MODEL 1
REMARK VINA RESULT:      -7.2      0.000      0.000
REMARK  26 active torsions:
REMARK  status: ('A' for Active; 'I' for Inactive)
REMARK    1  A    between atoms: C2_2  and  C3_3 
REMARK    2  A    between atoms: C4_6  and  C5_7 
REMARK       I    between atoms: C5_7  and  N2_9 
REMARK    3  A    between atoms: N2_9  and  C6_10 
REMARK    4  A    between atoms: C6_10  and  C7_11 
REMARK    5  A    between atoms: C6_10  and  C8_13 
REMARK       I    between atoms: C7_11  and  N3_14 
REMARK    6  A    between atoms: N3_14  and  C9_15 
REMARK    7  A    between atoms: C9_15  and  C10_16 
REMARK    8  A    between atoms: C9_15  and  C11_18 
REMARK       I    between atoms: C10_16  and  N4_21 
REMARK    9  A    between atoms: C11_18  and  C12_19 
REMARK   10  A    between atoms: C11_18  and  C13_20 
REMARK   11  A    between atoms: N4_21  and  C14_22 
REMARK   12  A    between atoms: C14_22  and  C15_23 
REMARK   13  A    between atoms: C14_22  and  C16_25 
REMARK       I    between atoms: C15_23  and  N6_40 
REMARK   14  A    between atoms: C16_25  and  C17_26 
REMARK   15  A    between atoms: C17_26  and  C18_27 
REMARK   16  A    between atoms: C17_26  and  C19_28 
REMARK   17  A    between atoms: C20_29  and  C21_30 
REMARK   18  A    between atoms: C20_29  and  C24_33 
REMARK   19  A    between atoms: C20_29  and  N6_40 
REMARK   20  A    between atoms: C21_30  and  C22_31 
REMARK   21  A    between atoms: C22_31  and  C23_32 
REMARK   22  A    between atoms: C23_32  and  O8_43 
REMARK   23  A    between atoms: C24_33  and  C25_34 
REMARK   24  A    between atoms: C28_38  and  O6_39 
REMARK   25  A    between atoms: C29_42  and  O8_43 
REMARK   26  A    between atoms: C29_42  and  C35_49 
ROOT
ATOM      1  C14 non d ame     -10.044  10.251  68.505  0.00  0.00     0.089 C 
ATOM      2  H20 non d ame      -9.334  10.340  69.328  0.00  0.00     0.087 H 
ENDROOT
BRANCH   1   3
ATOM      3  N4  non d ame     -10.617   8.914  68.564  0.00  0.00    -0.346 N 
ATOM      4  C10 non d ame      -9.944   7.832  69.370  0.00  0.00     0.241 C 
ATOM      5  O4  non d ame      -8.941   8.060  69.961  0.00  0.00    -0.271 OA
ATOM      6  H19 non d ame     -11.470   8.740  68.052  0.00  0.00     0.163 HD
BRANCH   4   7
ATOM      7  C9  non d ame     -10.554   6.456  69.424  0.00  0.00     0.092 C 
ATOM      8  H11 non d ame     -11.614   6.523  69.179  0.00  0.00     0.088 H 
BRANCH   7   9
ATOM      9  N3  non d ame      -9.928   5.603  68.409  0.00  0.00    -0.346 N 
ATOM     10  C7  non d ame     -10.313   5.730  67.024  0.00  0.00     0.240 C 
ATOM     11  O3  non d ame     -11.125   6.512  66.710  0.00  0.00    -0.271 OA
ATOM     12  H10 non d ame      -9.226   4.923  68.665  0.00  0.00     0.163 HD
BRANCH  10  13
ATOM     13  C6  non d ame      -9.645   4.818  65.949  0.00  0.00     0.086 C 
ATOM     14  H6  non d ame     -10.265   4.688  65.062  0.00  0.00     0.086 H 
BRANCH  13  15
ATOM     15  N2  non d ame      -8.409   5.441  65.503  0.00  0.00    -0.343 N 
ATOM     16  C5  non d ame      -8.125   5.536  64.070  0.00  0.00     0.273 C 
ATOM     17  O2  non d ame      -8.895   5.105  63.283  0.00  0.00    -0.266 OA
ATOM     18  H5  non d ame      -7.756   5.804  66.183  0.00  0.00     0.163 HD
BRANCH  16  19
ATOM     19  C4  non d ame      -6.824   6.193  63.585  0.00  0.00     0.154 A 
ATOM     20  C1  non d ame      -6.513   7.590  63.572  0.00  0.00    -0.017 A 
ATOM     21  C2  non d ame      -5.208   7.668  63.038  0.00  0.00     0.077 A 
ATOM     22  H1  non d ame      -7.139   8.420  63.901  0.00  0.00     0.091 H 
ATOM     23  O1  non d ame      -4.823   6.452  62.778  0.00  0.00    -0.218 OA
ATOM     24  N1  non d ame      -5.749   5.575  63.088  0.00  0.00    -0.123 NA
BRANCH  21  25
ATOM     25  C3  non d ame      -4.401   8.939  62.809  0.00  0.00    -0.029 C 
ATOM     26  H2  non d ame      -3.344   8.735  62.980  0.00  0.00     0.036 H 
ATOM     27  H3  non d ame      -4.545   9.281  61.784  0.00  0.00     0.036 H 
ATOM     28  H4  non d ame      -4.738   9.713  63.500  0.00  0.00     0.036 H 
ENDBRANCH  21  25
ENDBRANCH  16  19
ENDBRANCH  13  15
BRANCH  13  29
ATOM     29  C8  non d ame      -9.355   3.464  66.544  0.00  0.00    -0.049 C 
ATOM     30  H7  non d ame      -8.767   2.875  65.840  0.00  0.00     0.030 H 
ATOM     31  H8  non d ame      -8.794   3.587  67.471  0.00  0.00     0.030 H 
ATOM     32  H9  non d ame     -10.293   2.950  66.752  0.00  0.00     0.030 H 
ENDBRANCH  13  29
ENDBRANCH  10  13
ENDBRANCH   7   9
BRANCH   7  33
ATOM     33  C11 non d ame     -10.317   5.838  70.833  0.00  0.00    -0.033 C 
ATOM     34  H12 non d ame      -9.465   6.352  71.278  0.00  0.00     0.042 H 
BRANCH  33  35
ATOM     35  C12 non d ame     -11.544   6.070  71.769  0.00  0.00    -0.071 C 
ATOM     36  H13 non d ame     -12.003   7.031  71.535  0.00  0.00     0.028 H 
ATOM     37  H14 non d ame     -12.273   5.274  71.616  0.00  0.00     0.028 H 
ATOM     38  H15 non d ame     -11.215   6.067  72.807  0.00  0.00     0.028 H 
ENDBRANCH  33  35
BRANCH  33  39
ATOM     39  C13 non d ame      -9.964   4.320  70.727  0.00  0.00    -0.071 C 
ATOM     40  H16 non d ame      -9.883   3.895  71.727  0.00  0.00     0.028 H 
ATOM     41  H17 non d ame     -10.750   3.802  70.175  0.00  0.00     0.028 H 
ATOM     42  H18 non d ame      -9.015   4.204  70.203  0.00  0.00     0.028 H 
ENDBRANCH  33  39
ENDBRANCH   7  33
ENDBRANCH   4   7
ENDBRANCH   1   3
BRANCH   1  43
ATOM     43  C15 non d ame     -11.198  11.289  68.611  0.00  0.00     0.240 C 
ATOM     44  O5  non d ame     -12.208  11.114  68.009  0.00  0.00    -0.271 OA
ATOM     45  N6  non d ame     -11.047  12.498  69.470  0.00  0.00    -0.355 N 
ATOM     46  H46 non d ame     -10.196  12.655  69.989  0.00  0.00     0.162 HD
BRANCH  45  47
ATOM     47  C20 non d ame     -12.154  13.475  69.560  0.00  0.00     0.013 C 
ATOM     48  H30 non d ame     -12.993  13.086  68.984  0.00  0.00     0.072 H 
BRANCH  47  49
ATOM     49  C21 non d ame     -11.701  14.798  68.985  0.00  0.00    -0.038 C 
ATOM     50  H31 non d ame     -12.513  15.499  69.182  0.00  0.00     0.036 H 
ATOM     51  H32 non d ame     -10.711  14.978  69.405  0.00  0.00     0.036 H 
BRANCH  49  52
ATOM     52  C22 non d ame     -11.524  14.755  67.452  0.00  0.00     0.018 C 
ATOM     53  H33 non d ame     -11.981  13.820  67.127  0.00  0.00     0.048 H 
ATOM     54  H34 non d ame     -11.910  15.706  67.083  0.00  0.00     0.048 H 
BRANCH  52  55
ATOM     55  C23 non d ame     -10.041  14.690  66.994  0.00  0.00     0.259 C 
ATOM     56  O7  non d ame      -9.275  13.958  67.533  0.00  0.00    -0.265 OA
BRANCH  55  57
ATOM     57  O8  non d ame      -9.603  15.524  65.928  0.00  0.00    -0.317 OA
BRANCH  57  58
ATOM     58  C29 non d ame      -8.531  16.404  66.281  0.00  0.00     0.052 C 
ATOM     59  H47 non d ame      -7.975  15.892  67.067  0.00  0.00     0.082 H 
ATOM     60  H48 non d ame      -8.038  16.659  65.343  0.00  0.00     0.082 H 
BRANCH  58  61
ATOM     61  C35 non d ame      -9.149  17.696  66.878  0.00  0.00    -0.034 A 
ATOM     62  C30 non d ame      -9.903  18.544  66.074  0.00  0.00    -0.075 A 
ATOM     63  C31 non d ame     -10.458  19.705  66.610  0.00  0.00    -0.082 A 
ATOM     64  H49 non d ame     -10.059  18.299  65.023  0.00  0.00     0.084 H 
ATOM     65  C32 non d ame     -10.254  20.018  67.957  0.00  0.00    -0.083 A 
ATOM     66  H50 non d ame     -11.050  20.366  65.978  0.00  0.00     0.083 H 
ATOM     67  C33 non d ame      -9.499  19.170  68.755  0.00  0.00    -0.082 A 
ATOM     68  H51 non d ame     -10.685  20.923  68.384  0.00  0.00     0.083 H 
ATOM     69  C34 non d ame      -8.944  18.008  68.224  0.00  0.00    -0.075 A 
ATOM     70  H52 non d ame      -9.340  19.418  69.805  0.00  0.00     0.083 H 
ATOM     71  H53 non d ame      -8.352  17.346  68.857  0.00  0.00     0.084 H 
ENDBRANCH  58  61
ENDBRANCH  57  58
ENDBRANCH  55  57
ENDBRANCH  52  55
ENDBRANCH  49  52
ENDBRANCH  47  49
BRANCH  47  72
ATOM     72  C24 non d ame     -12.557  13.665  71.021  0.00  0.00    -0.039 C 
ATOM     73  H35 non d ame     -13.498  13.127  71.135  0.00  0.00     0.036 H 
ATOM     74  H36 non d ame     -11.685  13.368  71.604  0.00  0.00     0.036 H 
BRANCH  72  75
ATOM     75  C25 non d ame     -12.849  15.204  71.360  0.00  0.00    -0.001 C 
ATOM     76  C26 non d ame     -11.715  15.772  72.406  0.00  0.00    -0.035 C 
ATOM     77  C27 non d ame     -12.342  16.362  73.452  0.00  0.00     0.085 C 
ATOM     78  H38 non d ame     -11.180  14.941  72.866  0.00  0.00     0.036 H 
ATOM     79  H39 non d ame     -11.159  16.590  71.948  0.00  0.00     0.036 H 
ATOM     80  N5  non d ame     -13.796  15.961  73.377  0.00  0.00    -0.049 N 
ATOM     81  H40 non d ame     -11.897  15.922  74.345  0.00  0.00     0.075 H 
ATOM     82  H41 non d ame     -12.259  17.434  73.273  0.00  0.00     0.075 H 
ATOM     83  C28 non d ame     -14.013  15.351  71.899  0.00  0.00     0.193 C 
ATOM     84  H42 non d ame     -13.924  15.222  74.053  0.00  0.00     0.280 HD
ATOM     85  H43 non d ame     -14.332  16.814  73.455  0.00  0.00     0.280 HD
ATOM     86  H44 non d ame     -14.516  15.934  71.127  0.00  0.00     0.129 H 
ATOM     87  H37 non d ame     -13.038  15.795  70.464  0.00  0.00     0.046 H 
BRANCH  83  88
ATOM     88  O6  non d ame     -14.731  14.118  71.976  0.00  0.00    -0.369 OA
ATOM     89  H45 non d ame     -14.817  13.855  72.894  0.00  0.00     0.212 HD
ENDBRANCH  83  88
ENDBRANCH  72  75
ENDBRANCH  47  72
ENDBRANCH  45  47
ENDBRANCH   1  43
BRANCH   1  90
ATOM     90  C16 non d ame      -9.321  10.423  67.179  0.00  0.00    -0.035 C 
ATOM     91  H21 non d ame      -9.594   9.550  66.586  0.00  0.00     0.037 H 
ATOM     92  H22 non d ame      -9.588  11.422  66.833  0.00  0.00     0.037 H 
BRANCH  90  93
ATOM     93  C17 non d ame      -7.765  10.401  67.307  0.00  0.00    -0.059 C 
ATOM     94  H23 non d ame      -7.361  11.064  66.542  0.00  0.00     0.038 H 
BRANCH  93  95
ATOM     95  C18 non d ame      -7.280  10.927  68.696  0.00  0.00    -0.073 C 
ATOM     96  H24 non d ame      -6.195  10.847  68.756  0.00  0.00     0.028 H 
ATOM     97  H25 non d ame      -7.575  11.970  68.813  0.00  0.00     0.028 H 
ATOM     98  H26 non d ame      -7.733  10.330  69.488  0.00  0.00     0.028 H 
ENDBRANCH  93  95
BRANCH  93  99
ATOM     99  C19 non d ame      -7.213   9.000  67.033  0.00  0.00    -0.073 C 
ATOM    100  H27 non d ame      -8.029   8.277  67.057  0.00  0.00     0.028 H 
ATOM    101  H28 non d ame      -6.741   8.982  66.050  0.00  0.00     0.028 H 
ATOM    102  H29 non d ame      -6.477   8.743  67.794  0.00  0.00     0.028 H 
ENDBRANCH  93  99
ENDBRANCH  90  93
ENDBRANCH   1  90
TORSDOF 26
ENDMDL
MODEL 2
REMARK VINA RESULT:      -7.0      3.613      9.041
REMARK  26 active torsions:
REMARK  status: ('A' for Active; 'I' for Inactive)
REMARK    1  A    between atoms: C2_2  and  C3_3 
REMARK    2  A    between atoms: C4_6  and  C5_7 
REMARK       I    between atoms: C5_7  and  N2_9 
REMARK    3  A    between atoms: N2_9  and  C6_10 
REMARK    4  A    between atoms: C6_10  and  C7_11 
REMARK    5  A    between atoms: C6_10  and  C8_13 
REMARK       I    between atoms: C7_11  and  N3_14 
REMARK    6  A    between atoms: N3_14  and  C9_15 
REMARK    7  A    between atoms: C9_15  and  C10_16 
REMARK    8  A    between atoms: C9_15  and  C11_18 
REMARK       I    between atoms: C10_16  and  N4_21 
REMARK    9  A    between atoms: C11_18  and  C12_19 
REMARK   10  A    between atoms: C11_18  and  C13_20 
REMARK   11  A    between atoms: N4_21  and  C14_22 
REMARK   12  A    between atoms: C14_22  and  C15_23 
REMARK   13  A    between atoms: C14_22  and  C16_25 
REMARK       I    between atoms: C15_23  and  N6_40 
REMARK   14  A    between atoms: C16_25  and  C17_26 
REMARK   15  A    between atoms: C17_26  and  C18_27 
REMARK   16  A    between atoms: C17_26  and  C19_28 
REMARK   17  A    between atoms: C20_29  and  C21_30 
REMARK   18  A    between atoms: C20_29  and  C24_33 
REMARK   19  A    between atoms: C20_29  and  N6_40 
REMARK   20  A    between atoms: C21_30  and  C22_31 
REMARK   21  A    between atoms: C22_31  and  C23_32 
REMARK   22  A    between atoms: C23_32  and  O8_43 
REMARK   23  A    between atoms: C24_33  and  C25_34 
REMARK   24  A    between atoms: C28_38  and  O6_39 
REMARK   25  A    between atoms: C29_42  and  O8_43 
REMARK   26  A    between atoms: C29_42  and  C35_49 
ROOT
ATOM      1  C14 non d ame      -5.445  13.945  69.051  0.00  0.00     0.089 C 
ATOM      2  H20 non d ame      -4.437  14.018  68.642  0.00  0.00     0.087 H 
ENDROOT
BRANCH   1   3
ATOM      3  N4  non d ame      -6.040  15.272  68.987  0.00  0.00    -0.346 N 
ATOM      4  C10 non d ame      -5.631  16.240  67.906  0.00  0.00     0.241 C 
ATOM      5  O4  non d ame      -4.817  15.929  67.099  0.00  0.00    -0.271 OA
ATOM      6  H19 non d ame      -6.729  15.517  69.684  0.00  0.00     0.163 HD
BRANCH   4   7
ATOM      7  C9  non d ame      -6.261  17.606  67.852  0.00  0.00     0.092 C 
ATOM      8  H11 non d ame      -5.844  18.161  67.012  0.00  0.00     0.088 H 
BRANCH   7   9
ATOM      9  N3  non d ame      -7.701  17.471  67.611  0.00  0.00    -0.346 N 
ATOM     10  C7  non d ame      -8.311  18.153  66.496  0.00  0.00     0.240 C 
ATOM     11  O3  non d ame      -7.659  18.815  65.784  0.00  0.00    -0.271 OA
ATOM     12  H10 non d ame      -8.277  16.905  68.217  0.00  0.00     0.163 HD
BRANCH  10  13
ATOM     13  C6  non d ame      -9.845  18.008  66.245  0.00  0.00     0.086 C 
ATOM     14  H6  non d ame     -10.162  18.453  65.302  0.00  0.00     0.086 H 
BRANCH  13  15
ATOM     15  N2  non d ame     -10.179  16.596  66.172  0.00  0.00    -0.343 N 
ATOM     16  C5  non d ame     -10.968  16.099  65.043  0.00  0.00     0.273 C 
ATOM     17  O2  non d ame     -11.332  16.844  64.200  0.00  0.00    -0.266 OA
ATOM     18  H5  non d ame      -9.866  15.966  66.898  0.00  0.00     0.163 HD
BRANCH  16  19
ATOM     19  C4  non d ame     -11.328  14.608  64.952  0.00  0.00     0.154 A 
ATOM     20  C1  non d ame     -10.502  13.548  64.459  0.00  0.00    -0.017 A 
ATOM     21  C2  non d ame     -11.290  12.382  64.589  0.00  0.00     0.077 A 
ATOM     22  H1  non d ame      -9.487  13.614  64.066  0.00  0.00     0.091 H 
ATOM     23  O1  non d ame     -12.432  12.742  65.099  0.00  0.00    -0.218 OA
ATOM     24  N1  non d ame     -12.478  14.035  65.319  0.00  0.00    -0.123 NA
BRANCH  21  25
ATOM     25  C3  non d ame     -10.878  10.968  64.204  0.00  0.00    -0.029 C 
ATOM     26  H2  non d ame      -9.906  10.993  63.710  0.00  0.00     0.036 H 
ATOM     27  H3  non d ame     -10.814  10.352  65.101  0.00  0.00     0.036 H 
ATOM     28  H4  non d ame     -11.619  10.545  63.525  0.00  0.00     0.036 H 
ENDBRANCH  21  25
ENDBRANCH  16  19
ENDBRANCH  13  15
BRANCH  13  29
ATOM     29  C8  non d ame     -10.604  18.661  67.372  0.00  0.00    -0.049 C 
ATOM     30  H7  non d ame     -11.595  18.951  67.023  0.00  0.00     0.030 H 
ATOM     31  H8  non d ame     -10.702  17.958  68.200  0.00  0.00     0.030 H 
ATOM     32  H9  non d ame     -10.065  19.546  67.708  0.00  0.00     0.030 H 
ENDBRANCH  13  29
ENDBRANCH  10  13
ENDBRANCH   7   9
BRANCH   7  33
ATOM     33  C11 non d ame      -6.032  18.337  69.207  0.00  0.00    -0.033 C 
ATOM     34  H12 non d ame      -6.525  17.753  69.984  0.00  0.00     0.042 H 
BRANCH  33  35
ATOM     35  C12 non d ame      -4.515  18.406  69.566  0.00  0.00    -0.071 C 
ATOM     36  H13 non d ame      -4.378  19.032  70.448  0.00  0.00     0.028 H 
ATOM     37  H14 non d ame      -4.144  17.402  69.773  0.00  0.00     0.028 H 
ATOM     38  H15 non d ame      -3.963  18.833  68.729  0.00  0.00     0.028 H 
ENDBRANCH  33  35
BRANCH  33  39
ATOM     39  C13 non d ame      -6.676  19.761  69.191  0.00  0.00    -0.071 C 
ATOM     40  H16 non d ame      -7.037  20.007  70.189  0.00  0.00     0.028 H 
ATOM     41  H17 non d ame      -5.929  20.494  68.884  0.00  0.00     0.028 H 
ATOM     42  H18 non d ame      -7.509  19.774  68.489  0.00  0.00     0.028 H 
ENDBRANCH  33  39
ENDBRANCH   7  33
ENDBRANCH   4   7
ENDBRANCH   1   3
BRANCH   1  43
ATOM     43  C15 non d ame      -6.337  12.962  68.239  0.00  0.00     0.240 C 
ATOM     44  O5  non d ame      -6.150  12.818  67.075  0.00  0.00    -0.271 OA
ATOM     45  N6  non d ame      -7.420  12.194  68.917  0.00  0.00    -0.355 N 
ATOM     46  H46 non d ame      -7.585  12.304  69.907  0.00  0.00     0.162 HD
BRANCH  45  47
ATOM     47  C20 non d ame      -8.259  11.262  68.132  0.00  0.00     0.013 C 
ATOM     48  H30 non d ame      -7.645  10.852  67.330  0.00  0.00     0.072 H 
BRANCH  47  49
ATOM     49  C21 non d ame      -9.433  12.016  67.550  0.00  0.00    -0.038 C 
ATOM     50  H31 non d ame      -9.009  12.696  66.810  0.00  0.00     0.036 H 
ATOM     51  H32 non d ame     -10.150  11.254  67.244  0.00  0.00     0.036 H 
BRANCH  49  52
ATOM     52  C22 non d ame     -10.153  12.900  68.592  0.00  0.00     0.018 C 
ATOM     53  H33 non d ame     -11.219  12.775  68.398  0.00  0.00     0.048 H 
ATOM     54  H34 non d ame      -9.738  12.615  69.559  0.00  0.00     0.048 H 
BRANCH  52  55
ATOM     55  C23 non d ame      -9.864  14.418  68.432  0.00  0.00     0.259 C 
ATOM     56  O7  non d ame      -8.873  14.790  67.892  0.00  0.00    -0.265 OA
BRANCH  55  57
ATOM     57  O8  non d ame     -10.792  15.363  68.952  0.00  0.00    -0.317 OA
BRANCH  57  58
ATOM     58  C29 non d ame     -12.101  14.831  69.174  0.00  0.00     0.052 C 
ATOM     59  H47 non d ame     -12.752  15.343  68.465  0.00  0.00     0.082 H 
ATOM     60  H48 non d ame     -11.991  13.748  69.129  0.00  0.00     0.082 H 
BRANCH  58  61
ATOM     61  C35 non d ame     -12.539  15.221  70.611  0.00  0.00    -0.034 A 
ATOM     62  C30 non d ame     -13.830  14.942  71.046  0.00  0.00    -0.075 A 
ATOM     63  C31 non d ame     -14.223  15.292  72.337  0.00  0.00    -0.082 A 
ATOM     64  H49 non d ame     -14.534  14.448  70.376  0.00  0.00     0.084 H 
ATOM     65  C32 non d ame     -13.320  15.926  73.194  0.00  0.00    -0.083 A 
ATOM     66  H50 non d ame     -15.236  15.070  72.675  0.00  0.00     0.083 H 
ATOM     67  C33 non d ame     -12.033  16.205  72.754  0.00  0.00    -0.082 A 
ATOM     68  H51 non d ame     -13.619  16.202  74.205  0.00  0.00     0.083 H 
ATOM     69  C34 non d ame     -11.635  15.855  71.466  0.00  0.00    -0.075 A 
ATOM     70  H52 non d ame     -11.331  16.702  73.425  0.00  0.00     0.083 H 
ATOM     71  H53 non d ame     -10.622  16.077  71.129  0.00  0.00     0.084 H 
ENDBRANCH  58  61
ENDBRANCH  57  58
ENDBRANCH  55  57
ENDBRANCH  52  55
ENDBRANCH  49  52
ENDBRANCH  47  49
BRANCH  47  72
ATOM     72  C24 non d ame      -8.770  10.141  69.035  0.00  0.00    -0.039 C 
ATOM     73  H35 non d ame      -8.039  10.061  69.840  0.00  0.00     0.036 H 
ATOM     74  H36 non d ame      -9.804  10.401  69.263  0.00  0.00     0.036 H 
BRANCH  72  75
ATOM     75  C25 non d ame      -8.792   8.732  68.275  0.00  0.00    -0.001 C 
ATOM     76  C26 non d ame     -10.346   8.266  68.005  0.00  0.00    -0.035 C 
ATOM     77  C27 non d ame     -10.507   6.999  68.457  0.00  0.00     0.085 C 
ATOM     78  H38 non d ame     -11.024   8.847  68.629  0.00  0.00     0.036 H 
ATOM     79  H39 non d ame     -10.530   8.179  66.934  0.00  0.00     0.036 H 
ATOM     80  N5  non d ame      -9.300   6.676  69.304  0.00  0.00    -0.049 N 
ATOM     81  H40 non d ame     -11.391   7.027  69.095  0.00  0.00     0.075 H 
ATOM     82  H41 non d ame     -10.495   6.369  67.569  0.00  0.00     0.075 H 
ATOM     83  C28 non d ame      -8.206   7.816  68.971  0.00  0.00     0.193 C 
ATOM     84  H42 non d ame      -9.589   6.780  70.266  0.00  0.00     0.280 HD
ATOM     85  H43 non d ame      -8.949   5.788  68.976  0.00  0.00     0.280 HD
ATOM     86  H44 non d ame      -7.354   7.594  68.328  0.00  0.00     0.129 H 
ATOM     87  H37 non d ame      -8.113   8.711  67.422  0.00  0.00     0.046 H 
BRANCH  83  88
ATOM     88  O6  non d ame      -7.647   8.332  70.180  0.00  0.00    -0.369 OA
ATOM     89  H45 non d ame      -7.796   9.279  70.222  0.00  0.00     0.212 HD
ENDBRANCH  83  88
ENDBRANCH  72  75
ENDBRANCH  47  72
ENDBRANCH  45  47
ENDBRANCH   1  43
BRANCH   1  90
ATOM     90  C16 non d ame      -5.382  13.498  70.502  0.00  0.00    -0.035 C 
ATOM     91  H21 non d ame      -6.420  13.377  70.813  0.00  0.00     0.037 H 
ATOM     92  H22 non d ame      -4.707  12.642  70.512  0.00  0.00     0.037 H 
BRANCH  90  93
ATOM     93  C17 non d ame      -4.757  14.563  71.459  0.00  0.00    -0.059 C 
ATOM     94  H23 non d ame      -5.185  15.532  71.200  0.00  0.00     0.038 H 
BRANCH  93  95
ATOM     95  C18 non d ame      -5.093  14.279  72.958  0.00  0.00    -0.073 C 
ATOM     96  H24 non d ame      -4.875  13.236  73.187  0.00  0.00     0.028 H 
ATOM     97  H25 non d ame      -4.488  14.925  73.595  0.00  0.00     0.028 H 
ATOM     98  H26 non d ame      -6.150  14.478  73.137  0.00  0.00     0.028 H 
ENDBRANCH  93  95
BRANCH  93  99
ATOM     99  C19 non d ame      -3.244  14.665  71.250  0.00  0.00    -0.073 C 
ATOM    100  H27 non d ame      -2.835  15.425  71.916  0.00  0.00     0.028 H 
ATOM    101  H28 non d ame      -2.781  13.702  71.470  0.00  0.00     0.028 H 
ATOM    102  H29 non d ame      -3.037  14.938  70.215  0.00  0.00     0.028 H 
ENDBRANCH  93  99
ENDBRANCH  90  93
ENDBRANCH   1  90
TORSDOF 26
ENDMDL
MODEL 3
REMARK VINA RESULT:      -7.0      3.909      8.426
REMARK  26 active torsions:
REMARK  status: ('A' for Active; 'I' for Inactive)
REMARK    1  A    between atoms: C2_2  and  C3_3 
REMARK    2  A    between atoms: C4_6  and  C5_7 
REMARK       I    between atoms: C5_7  and  N2_9 
REMARK    3  A    between atoms: N2_9  and  C6_10 
REMARK    4  A    between atoms: C6_10  and  C7_11 
REMARK    5  A    between atoms: C6_10  and  C8_13 
REMARK       I    between atoms: C7_11  and  N3_14 
REMARK    6  A    between atoms: N3_14  and  C9_15 
REMARK    7  A    between atoms: C9_15  and  C10_16 
REMARK    8  A    between atoms: C9_15  and  C11_18 
REMARK       I    between atoms: C10_16  and  N4_21 
REMARK    9  A    between atoms: C11_18  and  C12_19 
REMARK   10  A    between atoms: C11_18  and  C13_20 
REMARK   11  A    between atoms: N4_21  and  C14_22 
REMARK   12  A    between atoms: C14_22  and  C15_23 
REMARK   13  A    between atoms: C14_22  and  C16_25 
REMARK       I    between atoms: C15_23  and  N6_40 
REMARK   14  A    between atoms: C16_25  and  C17_26 
REMARK   15  A    between atoms: C17_26  and  C18_27 
REMARK   16  A    between atoms: C17_26  and  C19_28 
REMARK   17  A    between atoms: C20_29  and  C21_30 
REMARK   18  A    between atoms: C20_29  and  C24_33 
REMARK   19  A    between atoms: C20_29  and  N6_40 
REMARK   20  A    between atoms: C21_30  and  C22_31 
REMARK   21  A    between atoms: C22_31  and  C23_32 
REMARK   22  A    between atoms: C23_32  and  O8_43 
REMARK   23  A    between atoms: C24_33  and  C25_34 
REMARK   24  A    between atoms: C28_38  and  O6_39 
REMARK   25  A    between atoms: C29_42  and  O8_43 
REMARK   26  A    between atoms: C29_42  and  C35_49 
ROOT
ATOM      1  C14 non d ame      -6.610  16.017  67.818  0.00  0.00     0.089 C 
ATOM      2  H20 non d ame      -6.004  16.516  67.061  0.00  0.00     0.087 H 
ENDROOT
BRANCH   1   3
ATOM      3  N4  non d ame      -8.007  16.224  67.466  0.00  0.00    -0.346 N 
ATOM      4  C10 non d ame      -8.384  17.207  66.386  0.00  0.00     0.241 C 
ATOM      5  O4  non d ame      -7.544  17.822  65.816  0.00  0.00    -0.271 OA
ATOM      6  H19 non d ame      -8.707  15.692  67.965  0.00  0.00     0.163 HD
BRANCH   4   7
ATOM      7  C9  non d ame      -9.834  17.404  66.031  0.00  0.00     0.092 C 
ATOM      8  H11 non d ame      -9.902  17.924  65.076  0.00  0.00     0.088 H 
BRANCH   7   9
ATOM      9  N3  non d ame     -10.477  16.098  65.860  0.00  0.00    -0.346 N 
ATOM     10  C7  non d ame     -11.317  15.854  64.713  0.00  0.00     0.240 C 
ATOM     11  O3  non d ame     -11.487  16.697  63.919  0.00  0.00    -0.271 OA
ATOM     12  H10 non d ame     -10.341  15.361  66.537  0.00  0.00     0.163 HD
BRANCH  10  13
ATOM     13  C6  non d ame     -12.002  14.462  64.538  0.00  0.00     0.086 C 
ATOM     14  H6  non d ame     -12.634  14.413  63.652  0.00  0.00     0.086 H 
BRANCH  13  15
ATOM     15  N2  non d ame     -10.974  13.449  64.372  0.00  0.00    -0.343 N 
ATOM     16  C5  non d ame     -11.285  12.218  63.643  0.00  0.00     0.273 C 
ATOM     17  O2  non d ame     -12.367  12.051  63.195  0.00  0.00    -0.266 OA
ATOM     18  H5  non d ame     -10.053  13.598  64.761  0.00  0.00     0.163 HD
BRANCH  16  19
ATOM     19  C4  non d ame     -10.208  11.138  63.459  0.00  0.00     0.154 A 
ATOM     20  C1  non d ame      -9.885  10.076  64.362  0.00  0.00    -0.017 A 
ATOM     21  C2  non d ame      -8.835   9.370  63.733  0.00  0.00     0.077 A 
ATOM     22  H1  non d ame     -10.342   9.852  65.326  0.00  0.00     0.091 H 
ATOM     23  O1  non d ame      -8.592   9.964  62.602  0.00  0.00    -0.218 OA
ATOM     24  N1  non d ame      -9.380  10.999  62.420  0.00  0.00    -0.123 NA
BRANCH  21  25
ATOM     25  C3  non d ame      -8.121   8.140  64.279  0.00  0.00    -0.029 C 
ATOM     26  H2  non d ame      -7.065   8.185  64.013  0.00  0.00     0.036 H 
ATOM     27  H3  non d ame      -8.222   8.114  65.364  0.00  0.00     0.036 H 
ATOM     28  H4  non d ame      -8.566   7.242  63.851  0.00  0.00     0.036 H 
ENDBRANCH  21  25
ENDBRANCH  16  19
ENDBRANCH  13  15
BRANCH  13  29
ATOM     29  C8  non d ame     -12.840  14.155  65.753  0.00  0.00    -0.049 C 
ATOM     30  H7  non d ame     -13.090  15.083  66.267  0.00  0.00     0.030 H 
ATOM     31  H8  non d ame     -13.757  13.653  65.444  0.00  0.00     0.030 H 
ATOM     32  H9  non d ame     -12.279  13.508  66.426  0.00  0.00     0.030 H 
ENDBRANCH  13  29
ENDBRANCH  10  13
ENDBRANCH   7   9
BRANCH   7  33
ATOM     33  C11 non d ame     -10.546  18.184  67.175  0.00  0.00    -0.033 C 
ATOM     34  H12 non d ame     -11.602  18.257  66.915  0.00  0.00     0.042 H 
BRANCH  33  35
ATOM     35  C12 non d ame     -10.449  17.419  68.531  0.00  0.00    -0.071 C 
ATOM     36  H13 non d ame     -11.377  17.549  69.089  0.00  0.00     0.028 H 
ATOM     37  H14 non d ame     -10.288  16.358  68.339  0.00  0.00     0.028 H 
ATOM     38  H15 non d ame      -9.616  17.814  69.112  0.00  0.00     0.028 H 
ENDBRANCH  33  35
BRANCH  33  39
ATOM     39  C13 non d ame      -9.979  19.634  67.301  0.00  0.00    -0.071 C 
ATOM     40  H16 non d ame     -10.541  20.180  68.058  0.00  0.00     0.028 H 
ATOM     41  H17 non d ame      -8.928  19.590  67.590  0.00  0.00     0.028 H 
ATOM     42  H18 non d ame     -10.070  20.144  66.342  0.00  0.00     0.028 H 
ENDBRANCH  33  39
ENDBRANCH   7  33
ENDBRANCH   4   7
ENDBRANCH   1   3
BRANCH   1  43
ATOM     43  C15 non d ame      -6.335  14.487  67.876  0.00  0.00     0.240 C 
ATOM     44  O5  non d ame      -5.315  14.054  67.447  0.00  0.00    -0.271 OA
ATOM     45  N6  non d ame      -7.340  13.563  68.474  0.00  0.00    -0.355 N 
ATOM     46  H46 non d ame      -8.208  13.920  68.846  0.00  0.00     0.162 HD
BRANCH  45  47
ATOM     47  C20 non d ame      -7.063  12.111  68.523  0.00  0.00     0.013 C 
ATOM     48  H30 non d ame      -6.531  11.841  67.611  0.00  0.00     0.072 H 
BRANCH  47  49
ATOM     49  C21 non d ame      -8.370  11.355  68.602  0.00  0.00    -0.038 C 
ATOM     50  H31 non d ame      -8.108  10.302  68.502  0.00  0.00     0.036 H 
ATOM     51  H32 non d ame      -8.862  11.712  69.508  0.00  0.00     0.036 H 
BRANCH  49  52
ATOM     52  C22 non d ame      -9.323  11.682  67.431  0.00  0.00     0.018 C 
ATOM     53  H33 non d ame      -9.032  12.673  67.081  0.00  0.00     0.048 H 
ATOM     54  H34 non d ame      -9.265  10.827  66.757  0.00  0.00     0.048 H 
BRANCH  52  55
ATOM     55  C23 non d ame     -10.815  11.796  67.851  0.00  0.00     0.259 C 
ATOM     56  O7  non d ame     -11.678  11.470  67.103  0.00  0.00    -0.265 OA
BRANCH  55  57
ATOM     57  O8  non d ame     -11.139  12.307  69.138  0.00  0.00    -0.317 OA
BRANCH  57  58
ATOM     58  C29 non d ame     -11.385  13.716  69.160  0.00  0.00     0.052 C 
ATOM     59  H47 non d ame     -10.408  14.188  69.056  0.00  0.00     0.082 H 
ATOM     60  H48 non d ame     -12.157  13.893  68.411  0.00  0.00     0.082 H 
BRANCH  58  61
ATOM     61  C35 non d ame     -11.962  14.081  70.554  0.00  0.00    -0.034 A 
ATOM     62  C30 non d ame     -12.932  13.274  71.139  0.00  0.00    -0.075 A 
ATOM     63  C31 non d ame     -13.450  13.601  72.391  0.00  0.00    -0.082 A 
ATOM     64  H49 non d ame     -13.287  12.385  70.616  0.00  0.00     0.084 H 
ATOM     65  C32 non d ame     -12.996  14.742  73.058  0.00  0.00    -0.083 A 
ATOM     66  H50 non d ame     -14.209  12.965  72.848  0.00  0.00     0.083 H 
ATOM     67  C33 non d ame     -12.029  15.546  72.469  0.00  0.00    -0.082 A 
ATOM     68  H51 non d ame     -13.395  15.005  74.037  0.00  0.00     0.083 H 
ATOM     69  C34 non d ame     -11.507  15.221  71.218  0.00  0.00    -0.075 A 
ATOM     70  H52 non d ame     -11.678  16.437  72.990  0.00  0.00     0.083 H 
ATOM     71  H53 non d ame     -10.748  15.857  70.762  0.00  0.00     0.084 H 
ENDBRANCH  58  61
ENDBRANCH  57  58
ENDBRANCH  55  57
ENDBRANCH  52  55
ENDBRANCH  49  52
ENDBRANCH  47  49
BRANCH  47  72
ATOM     72  C24 non d ame      -6.213  11.789  69.750  0.00  0.00    -0.039 C 
ATOM     73  H35 non d ame      -5.863  12.752  70.122  0.00  0.00     0.036 H 
ATOM     74  H36 non d ame      -6.839  11.157  70.379  0.00  0.00     0.036 H 
BRANCH  72  75
ATOM     75  C25 non d ame      -4.915  10.932  69.363  0.00  0.00    -0.001 C 
ATOM     76  C26 non d ame      -4.882   9.540  70.237  0.00  0.00    -0.035 C 
ATOM     77  C27 non d ame      -3.668   9.424  70.827  0.00  0.00     0.085 C 
ATOM     78  H38 non d ame      -5.569   9.611  71.080  0.00  0.00     0.036 H 
ATOM     79  H39 non d ame      -4.925   8.678  69.571  0.00  0.00     0.036 H 
ATOM     80  N5  non d ame      -2.987  10.765  70.703  0.00  0.00    -0.049 N 
ATOM     81  H40 non d ame      -3.874   9.226  71.880  0.00  0.00     0.075 H 
ATOM     82  H41 non d ame      -3.124   8.692  70.232  0.00  0.00     0.075 H 
ATOM     83  C28 non d ame      -3.831  11.592  69.602  0.00  0.00     0.193 C 
ATOM     84  H42 non d ame      -3.090  11.223  71.597  0.00  0.00     0.280 HD
ATOM     85  H43 non d ame      -2.065  10.585  70.331  0.00  0.00     0.280 HD
ATOM     86  H44 non d ame      -3.448  11.716  68.589  0.00  0.00     0.129 H 
ATOM     87  H37 non d ame      -4.786  10.843  68.284  0.00  0.00     0.046 H 
BRANCH  83  88
ATOM     88  O6  non d ame      -4.097  12.913  70.075  0.00  0.00    -0.369 OA
ATOM     89  H45 non d ame      -4.419  12.870  70.979  0.00  0.00     0.212 HD
ENDBRANCH  83  88
ENDBRANCH  72  75
ENDBRANCH  47  72
ENDBRANCH  45  47
ENDBRANCH   1  43
BRANCH   1  90
ATOM     90  C16 non d ame      -6.345  16.636  69.181  0.00  0.00    -0.035 C 
ATOM     91  H21 non d ame      -7.329  16.785  69.627  0.00  0.00     0.037 H 
ATOM     92  H22 non d ame      -5.623  15.976  69.662  0.00  0.00     0.037 H 
BRANCH  90  93
ATOM     93  C17 non d ame      -5.676  18.045  69.110  0.00  0.00    -0.059 C 
ATOM     94  H23 non d ame      -5.080  18.175  70.013  0.00  0.00     0.038 H 
BRANCH  93  95
ATOM     95  C18 non d ame      -4.717  18.181  67.884  0.00  0.00    -0.073 C 
ATOM     96  H24 non d ame      -3.991  18.970  68.076  0.00  0.00     0.028 H 
ATOM     97  H25 non d ame      -4.195  17.237  67.725  0.00  0.00     0.028 H 
ATOM     98  H26 non d ame      -5.297  18.430  66.995  0.00  0.00     0.028 H 
ENDBRANCH  93  95
BRANCH  93  99
ATOM     99  C19 non d ame      -6.733  19.153  69.100  0.00  0.00    -0.073 C 
ATOM    100  H27 non d ame      -7.635  18.799  69.598  0.00  0.00     0.028 H 
ATOM    101  H28 non d ame      -6.347  20.028  69.624  0.00  0.00     0.028 H 
ATOM    102  H29 non d ame      -6.968  19.421  68.070  0.00  0.00     0.028 H 
ENDBRANCH  93  99
ENDBRANCH  90  93
ENDBRANCH   1  90
TORSDOF 26
ENDMDL
MODEL 4
REMARK VINA RESULT:      -6.9      2.712      8.141
REMARK  26 active torsions:
REMARK  status: ('A' for Active; 'I' for Inactive)
REMARK    1  A    between atoms: C2_2  and  C3_3 
REMARK    2  A    between atoms: C4_6  and  C5_7 
REMARK       I    between atoms: C5_7  and  N2_9 
REMARK    3  A    between atoms: N2_9  and  C6_10 
REMARK    4  A    between atoms: C6_10  and  C7_11 
REMARK    5  A    between atoms: C6_10  and  C8_13 
REMARK       I    between atoms: C7_11  and  N3_14 
REMARK    6  A    between atoms: N3_14  and  C9_15 
REMARK    7  A    between atoms: C9_15  and  C10_16 
REMARK    8  A    between atoms: C9_15  and  C11_18 
REMARK       I    between atoms: C10_16  and  N4_21 
REMARK    9  A    between atoms: C11_18  and  C12_19 
REMARK   10  A    between atoms: C11_18  and  C13_20 
REMARK   11  A    between atoms: N4_21  and  C14_22 
REMARK   12  A    between atoms: C14_22  and  C15_23 
REMARK   13  A    between atoms: C14_22  and  C16_25 
REMARK       I    between atoms: C15_23  and  N6_40 
REMARK   14  A    between atoms: C16_25  and  C17_26 
REMARK   15  A    between atoms: C17_26  and  C18_27 
REMARK   16  A    between atoms: C17_26  and  C19_28 
REMARK   17  A    between atoms: C20_29  and  C21_30 
REMARK   18  A    between atoms: C20_29  and  C24_33 
REMARK   19  A    between atoms: C20_29  and  N6_40 
REMARK   20  A    between atoms: C21_30  and  C22_31 
REMARK   21  A    between atoms: C22_31  and  C23_32 
REMARK   22  A    between atoms: C23_32  and  O8_43 
REMARK   23  A    between atoms: C24_33  and  C25_34 
REMARK   24  A    between atoms: C28_38  and  O6_39 
REMARK   25  A    between atoms: C29_42  and  O8_43 
REMARK   26  A    between atoms: C29_42  and  C35_49 
ROOT
ATOM      1  C14 non d ame      -9.111   7.091  67.028  0.00  0.00     0.089 C 
ATOM      2  H20 non d ame      -9.644   6.810  66.120  0.00  0.00     0.087 H 
ENDROOT
BRANCH   1   3
ATOM      3  N4  non d ame      -8.878   8.527  66.972  0.00  0.00    -0.346 N 
ATOM      4  C10 non d ame      -8.726   9.223  65.643  0.00  0.00     0.241 C 
ATOM      5  O4  non d ame      -8.792   8.605  64.632  0.00  0.00    -0.271 OA
ATOM      6  H19 non d ame      -8.822   9.033  67.845  0.00  0.00     0.163 HD
BRANCH   4   7
ATOM      7  C9  non d ame      -8.490  10.710  65.604  0.00  0.00     0.092 C 
ATOM      8  H11 non d ame      -7.993  10.970  64.670  0.00  0.00     0.088 H 
BRANCH   7   9
ATOM      9  N3  non d ame      -9.779  11.409  65.619  0.00  0.00    -0.346 N 
ATOM     10  C7  non d ame     -10.388  11.822  64.378  0.00  0.00     0.240 C 
ATOM     11  O3  non d ame      -9.854  11.601  63.360  0.00  0.00    -0.271 OA
ATOM     12  H10 non d ame     -10.250  11.608  66.489  0.00  0.00     0.163 HD
BRANCH  10  13
ATOM     13  C6  non d ame     -11.758  12.569  64.400  0.00  0.00     0.086 C 
ATOM     14  H6  non d ame     -12.328  12.378  65.309  0.00  0.00     0.086 H 
BRANCH  13  15
ATOM     15  N2  non d ame     -11.515  14.001  64.355  0.00  0.00    -0.343 N 
ATOM     16  C5  non d ame     -11.133  14.707  65.580  0.00  0.00     0.273 C 
ATOM     17  O2  non d ame     -11.027  14.114  66.597  0.00  0.00    -0.266 OA
ATOM     18  H5  non d ame     -11.610  14.501  63.482  0.00  0.00     0.163 HD
BRANCH  16  19
ATOM     19  C4  non d ame     -10.871  16.221  65.547  0.00  0.00     0.154 A 
ATOM     20  C1  non d ame     -10.173  16.999  66.524  0.00  0.00    -0.017 A 
ATOM     21  C2  non d ame     -10.209  18.322  66.028  0.00  0.00     0.077 A 
ATOM     22  H1  non d ame      -9.712  16.657  67.450  0.00  0.00     0.091 H 
ATOM     23  O1  non d ame     -10.852  18.294  64.898  0.00  0.00    -0.218 OA
ATOM     24  N1  non d ame     -11.249  17.080  64.596  0.00  0.00    -0.123 NA
BRANCH  21  25
ATOM     25  C3  non d ame      -9.604  19.551  66.694  0.00  0.00    -0.029 C 
ATOM     26  H2  non d ame      -9.986  20.451  66.211  0.00  0.00     0.036 H 
ATOM     27  H3  non d ame      -9.874  19.562  67.750  0.00  0.00     0.036 H 
ATOM     28  H4  non d ame      -8.518  19.520  66.597  0.00  0.00     0.036 H 
ENDBRANCH  21  25
ENDBRANCH  16  19
ENDBRANCH  13  15
BRANCH  13  29
ATOM     29  C8  non d ame     -12.582  12.147  63.210  0.00  0.00    -0.049 C 
ATOM     30  H7  non d ame     -11.926  11.968  62.358  0.00  0.00     0.030 H 
ATOM     31  H8  non d ame     -13.125  11.233  63.450  0.00  0.00     0.030 H 
ATOM     32  H9  non d ame     -13.290  12.937  62.961  0.00  0.00     0.030 H 
ENDBRANCH  13  29
ENDBRANCH  10  13
ENDBRANCH   7   9
BRANCH   7  33
ATOM     33  C11 non d ame      -7.658  11.136  66.849  0.00  0.00    -0.033 C 
ATOM     34  H12 non d ame      -7.865  10.419  67.644  0.00  0.00     0.042 H 
BRANCH  33  35
ATOM     35  C12 non d ame      -6.127  11.082  66.555  0.00  0.00    -0.071 C 
ATOM     36  H13 non d ame      -5.582  11.553  67.373  0.00  0.00     0.028 H 
ATOM     37  H14 non d ame      -5.812  10.043  66.460  0.00  0.00     0.028 H 
ATOM     38  H15 non d ame      -5.917  11.612  65.626  0.00  0.00     0.028 H 
ENDBRANCH  33  35
BRANCH  33  39
ATOM     39  C13 non d ame      -8.089  12.552  67.352  0.00  0.00    -0.071 C 
ATOM     40  H16 non d ame      -9.173  12.644  67.292  0.00  0.00     0.028 H 
ATOM     41  H17 non d ame      -7.769  12.683  68.386  0.00  0.00     0.028 H 
ATOM     42  H18 non d ame      -7.624  13.315  66.728  0.00  0.00     0.028 H 
ENDBRANCH  33  39
ENDBRANCH   7  33
ENDBRANCH   4   7
ENDBRANCH   1   3
BRANCH   1  43
ATOM     43  C15 non d ame      -9.928   6.771  68.313  0.00  0.00     0.240 C 
ATOM     44  O5  non d ame     -10.855   6.030  68.254  0.00  0.00    -0.271 OA
ATOM     45  N6  non d ame      -9.549   7.383  69.618  0.00  0.00    -0.355 N 
ATOM     46  H46 non d ame      -8.761   8.011  69.681  0.00  0.00     0.162 HD
BRANCH  45  47
ATOM     47  C20 non d ame     -10.336   7.068  70.830  0.00  0.00     0.013 C 
ATOM     48  H30 non d ame     -10.638   6.023  70.772  0.00  0.00     0.072 H 
BRANCH  47  49
ATOM     49  C21 non d ame     -11.558   7.957  70.878  0.00  0.00    -0.038 C 
ATOM     50  H31 non d ame     -11.959   7.961  69.864  0.00  0.00     0.036 H 
ATOM     51  H32 non d ame     -12.164   7.580  71.702  0.00  0.00     0.036 H 
BRANCH  49  52
ATOM     52  C22 non d ame     -11.220   9.424  71.221  0.00  0.00     0.018 C 
ATOM     53  H33 non d ame     -12.011   9.761  71.891  0.00  0.00     0.048 H 
ATOM     54  H34 non d ame     -10.184   9.416  71.561  0.00  0.00     0.048 H 
BRANCH  52  55
ATOM     55  C23 non d ame     -11.261  10.379  69.995  0.00  0.00     0.259 C 
ATOM     56  O7  non d ame     -10.456  10.281  69.127  0.00  0.00    -0.265 OA
BRANCH  55  57
ATOM     57  O8  non d ame     -12.267  11.382  69.927  0.00  0.00    -0.317 OA
BRANCH  57  58
ATOM     58  C29 non d ame     -11.774  12.677  69.572  0.00  0.00     0.052 C 
ATOM     59  H47 non d ame     -10.687  12.594  69.586  0.00  0.00     0.082 H 
ATOM     60  H48 non d ame     -12.287  12.945  68.649  0.00  0.00     0.082 H 
BRANCH  58  61
ATOM     61  C35 non d ame     -12.205  13.675  70.680  0.00  0.00    -0.034 A 
ATOM     62  C30 non d ame     -13.125  13.285  71.648  0.00  0.00    -0.075 A 
ATOM     63  C31 non d ame     -13.512  14.181  72.644  0.00  0.00    -0.082 A 
ATOM     64  H49 non d ame     -13.541  12.278  71.628  0.00  0.00     0.084 H 
ATOM     65  C32 non d ame     -12.978  15.472  72.667  0.00  0.00    -0.083 A 
ATOM     66  H50 non d ame     -14.231  13.872  73.403  0.00  0.00     0.083 H 
ATOM     67  C33 non d ame     -12.063  15.857  71.696  0.00  0.00    -0.082 A 
ATOM     68  H51 non d ame     -13.275  16.179  73.442  0.00  0.00     0.083 H 
ATOM     69  C34 non d ame     -11.672  14.965  70.701  0.00  0.00    -0.075 A 
ATOM     70  H52 non d ame     -11.650  16.866  71.715  0.00  0.00     0.083 H 
ATOM     71  H53 non d ame     -10.952  15.274  69.943  0.00  0.00     0.084 H 
ENDBRANCH  58  61
ENDBRANCH  57  58
ENDBRANCH  55  57
ENDBRANCH  52  55
ENDBRANCH  49  52
ENDBRANCH  47  49
BRANCH  47  72
ATOM     72  C24 non d ame      -9.483   7.306  72.075  0.00  0.00    -0.039 C 
ATOM     73  H35 non d ame      -8.503   7.602  71.703  0.00  0.00     0.036 H 
ATOM     74  H36 non d ame     -10.061   7.992  72.695  0.00  0.00     0.036 H 
BRANCH  72  75
ATOM     75  C25 non d ame      -9.281   5.961  72.921  0.00  0.00    -0.001 C 
ATOM     76  C26 non d ame      -9.759   4.663  72.031  0.00  0.00    -0.035 C 
ATOM     77  C27 non d ame     -10.621   3.922  72.768  0.00  0.00     0.085 C 
ATOM     78  H38 non d ame     -10.364   4.991  71.186  0.00  0.00     0.036 H 
ATOM     79  H39 non d ame      -8.918   3.989  71.870  0.00  0.00     0.036 H 
ATOM     80  N5  non d ame     -11.028   4.766  73.952  0.00  0.00    -0.049 N 
ATOM     81  H40 non d ame     -11.491   3.765  72.129  0.00  0.00     0.075 H 
ATOM     82  H41 non d ame     -10.043   3.069  73.122  0.00  0.00     0.075 H 
ATOM     83  C28 non d ame      -9.972   5.986  74.012  0.00  0.00     0.193 C 
ATOM     84  H42 non d ame     -11.940   5.141  73.737  0.00  0.00     0.280 HD
ATOM     85  H43 non d ame     -10.899   4.190  74.772  0.00  0.00     0.280 HD
ATOM     86  H44 non d ame      -9.172   5.990  74.752  0.00  0.00     0.129 H 
ATOM     87  H37 non d ame      -8.296   5.908  73.384  0.00  0.00     0.046 H 
BRANCH  83  88
ATOM     88  O6  non d ame     -10.660   7.226  74.186  0.00  0.00    -0.369 OA
ATOM     89  H45 non d ame     -11.407   7.263  73.585  0.00  0.00     0.212 HD
ENDBRANCH  83  88
ENDBRANCH  72  75
ENDBRANCH  47  72
ENDBRANCH  45  47
ENDBRANCH   1  43
BRANCH   1  90
ATOM     90  C16 non d ame      -7.772   6.373  67.082  0.00  0.00    -0.035 C 
ATOM     91  H21 non d ame      -7.025   7.138  66.872  0.00  0.00     0.037 H 
ATOM     92  H22 non d ame      -7.763   5.851  68.040  0.00  0.00     0.037 H 
BRANCH  90  93
ATOM     93  C17 non d ame      -7.604   5.278  65.982  0.00  0.00    -0.059 C 
ATOM     94  H23 non d ame      -6.994   4.478  66.402  0.00  0.00     0.038 H 
BRANCH  93  95
ATOM     95  C18 non d ame      -8.972   4.658  65.552  0.00  0.00    -0.073 C 
ATOM     96  H24 non d ame      -9.561   4.428  66.440  0.00  0.00     0.028 H 
ATOM     97  H25 non d ame      -9.515   5.372  64.931  0.00  0.00     0.028 H 
ATOM     98  H26 non d ame      -8.795   3.744  64.985  0.00  0.00     0.028 H 
ENDBRANCH  93  95
BRANCH  93  99
ATOM     99  C19 non d ame      -6.852   5.833  64.769  0.00  0.00    -0.073 C 
ATOM    100  H27 non d ame      -6.902   6.922  64.777  0.00  0.00     0.028 H 
ATOM    101  H28 non d ame      -5.810   5.516  64.811  0.00  0.00     0.028 H 
ATOM    102  H29 non d ame      -7.310   5.455  63.854  0.00  0.00     0.028 H 
ENDBRANCH  93  99
ENDBRANCH  90  93
ENDBRANCH   1  90
TORSDOF 26
ENDMDL
MODEL 5
REMARK VINA RESULT:      -6.9      3.047     10.314
REMARK  26 active torsions:
REMARK  status: ('A' for Active; 'I' for Inactive)
REMARK    1  A    between atoms: C2_2  and  C3_3 
REMARK    2  A    between atoms: C4_6  and  C5_7 
REMARK       I    between atoms: C5_7  and  N2_9 
REMARK    3  A    between atoms: N2_9  and  C6_10 
REMARK    4  A    between atoms: C6_10  and  C7_11 
REMARK    5  A    between atoms: C6_10  and  C8_13 
REMARK       I    between atoms: C7_11  and  N3_14 
REMARK    6  A    between atoms: N3_14  and  C9_15 
REMARK    7  A    between atoms: C9_15  and  C10_16 
REMARK    8  A    between atoms: C9_15  and  C11_18 
REMARK       I    between atoms: C10_16  and  N4_21 
REMARK    9  A    between atoms: C11_18  and  C12_19 
REMARK   10  A    between atoms: C11_18  and  C13_20 
REMARK   11  A    between atoms: N4_21  and  C14_22 
REMARK   12  A    between atoms: C14_22  and  C15_23 
REMARK   13  A    between atoms: C14_22  and  C16_25 
REMARK       I    between atoms: C15_23  and  N6_40 
REMARK   14  A    between atoms: C16_25  and  C17_26 
REMARK   15  A    between atoms: C17_26  and  C18_27 
REMARK   16  A    between atoms: C17_26  and  C19_28 
REMARK   17  A    between atoms: C20_29  and  C21_30 
REMARK   18  A    between atoms: C20_29  and  C24_33 
REMARK   19  A    between atoms: C20_29  and  N6_40 
REMARK   20  A    between atoms: C21_30  and  C22_31 
REMARK   21  A    between atoms: C22_31  and  C23_32 
REMARK   22  A    between atoms: C23_32  and  O8_43 
REMARK   23  A    between atoms: C24_33  and  C25_34 
REMARK   24  A    between atoms: C28_38  and  O6_39 
REMARK   25  A    between atoms: C29_42  and  O8_43 
REMARK   26  A    between atoms: C29_42  and  C35_49 
ROOT
ATOM      1  C14 non d ame      -6.677  13.675  67.981  0.00  0.00     0.089 C 
ATOM      2  H20 non d ame      -5.942  13.568  67.183  0.00  0.00     0.087 H 
ENDROOT
BRANCH   1   3
ATOM      3  N4  non d ame      -7.023  15.086  68.072  0.00  0.00    -0.346 N 
ATOM      4  C10 non d ame      -6.047  16.140  67.614  0.00  0.00     0.241 C 
ATOM      5  O4  non d ame      -4.987  15.829  67.179  0.00  0.00    -0.271 OA
ATOM      6  H19 non d ame      -7.928  15.330  68.448  0.00  0.00     0.163 HD
BRANCH   4   7
ATOM      7  C9  non d ame      -6.423  17.595  67.710  0.00  0.00     0.092 C 
ATOM      8  H11 non d ame      -6.196  18.088  66.765  0.00  0.00     0.088 H 
BRANCH   7   9
ATOM      9  N3  non d ame      -7.869  17.713  67.924  0.00  0.00    -0.346 N 
ATOM     10  C7  non d ame      -8.755  17.857  66.796  0.00  0.00     0.240 C 
ATOM     11  O3  non d ame      -8.322  17.881  65.708  0.00  0.00    -0.271 OA
ATOM     12  H10 non d ame      -8.257  17.696  68.857  0.00  0.00     0.163 HD
BRANCH  10  13
ATOM     13  C6  non d ame     -10.292  17.985  67.030  0.00  0.00     0.086 C 
ATOM     14  H6  non d ame     -10.878  17.444  66.288  0.00  0.00     0.086 H 
BRANCH  13  15
ATOM     15  N2  non d ame     -10.622  17.408  68.322  0.00  0.00    -0.343 N 
ATOM     16  C5  non d ame     -11.212  16.069  68.385  0.00  0.00     0.273 C 
ATOM     17  O2  non d ame     -11.420  15.466  67.390  0.00  0.00    -0.266 OA
ATOM     18  H5  non d ame     -10.443  17.931  69.168  0.00  0.00     0.163 HD
BRANCH  16  19
ATOM     19  C4  non d ame     -11.564  15.445  69.745  0.00  0.00     0.154 A 
ATOM     20  C1  non d ame     -11.630  16.111  71.010  0.00  0.00    -0.017 A 
ATOM     21  C2  non d ame     -11.992  15.103  71.932  0.00  0.00     0.077 A 
ATOM     22  H1  non d ame     -11.445  17.163  71.226  0.00  0.00     0.091 H 
ATOM     23  O1  non d ame     -12.117  13.994  71.264  0.00  0.00    -0.218 OA
ATOM     24  N1  non d ame     -11.872  14.168  69.986  0.00  0.00    -0.123 NA
BRANCH  21  25
ATOM     25  C3  non d ame     -12.198  15.284  73.430  0.00  0.00    -0.029 C 
ATOM     26  H2  non d ame     -11.230  15.401  73.919  0.00  0.00     0.036 H 
ATOM     27  H3  non d ame     -12.805  16.172  73.609  0.00  0.00     0.036 H 
ATOM     28  H4  non d ame     -12.706  14.409  73.835  0.00  0.00     0.036 H 
ENDBRANCH  21  25
ENDBRANCH  16  19
ENDBRANCH  13  15
BRANCH  13  29
ATOM     29  C8  non d ame     -10.689  19.440  66.998  0.00  0.00    -0.049 C 
ATOM     30  H7  non d ame      -9.794  20.059  66.930  0.00  0.00     0.030 H 
ATOM     31  H8  non d ame     -11.325  19.624  66.132  0.00  0.00     0.030 H 
ATOM     32  H9  non d ame     -11.233  19.688  67.909  0.00  0.00     0.030 H 
ENDBRANCH  13  29
ENDBRANCH  10  13
ENDBRANCH   7   9
BRANCH   7  33
ATOM     33  C11 non d ame      -5.670  18.248  68.906  0.00  0.00    -0.033 C 
ATOM     34  H12 non d ame      -4.638  18.411  68.595  0.00  0.00     0.042 H 
BRANCH  33  35
ATOM     35  C12 non d ame      -6.275  19.641  69.267  0.00  0.00    -0.071 C 
ATOM     36  H13 non d ame      -6.913  19.982  68.452  0.00  0.00     0.028 H 
ATOM     37  H14 non d ame      -6.866  19.554  70.179  0.00  0.00     0.028 H 
ATOM     38  H15 non d ame      -5.469  20.357  69.422  0.00  0.00     0.028 H 
ENDBRANCH  33  35
BRANCH  33  39
ATOM     39  C13 non d ame      -5.657  17.297  70.145  0.00  0.00    -0.071 C 
ATOM     40  H16 non d ame      -6.661  16.911  70.318  0.00  0.00     0.028 H 
ATOM     41  H17 non d ame      -4.975  16.467  69.959  0.00  0.00     0.028 H 
ATOM     42  H18 non d ame      -5.324  17.851  71.024  0.00  0.00     0.028 H 
ENDBRANCH  33  39
ENDBRANCH   7  33
ENDBRANCH   4   7
ENDBRANCH   1   3
BRANCH   1  43
ATOM     43  C15 non d ame      -7.974  12.865  67.697  0.00  0.00     0.240 C 
ATOM     44  O5  non d ame      -8.985  13.154  68.251  0.00  0.00    -0.271 OA
ATOM     45  N6  non d ame      -7.958  11.732  66.728  0.00  0.00    -0.355 N 
ATOM     46  H46 non d ame      -7.106  11.480  66.248  0.00  0.00     0.162 HD
BRANCH  45  47
ATOM     47  C20 non d ame      -9.199  10.972  66.468  0.00  0.00     0.013 C 
ATOM     48  H30 non d ame     -10.020  11.492  66.961  0.00  0.00     0.072 H 
BRANCH  47  49
ATOM     49  C21 non d ame      -9.058   9.576  67.031  0.00  0.00    -0.038 C 
ATOM     50  H31 non d ame      -8.132   9.182  66.614  0.00  0.00     0.036 H 
ATOM     51  H32 non d ame      -9.169   9.683  68.111  0.00  0.00     0.036 H 
BRANCH  49  52
ATOM     52  C22 non d ame     -10.184   8.626  66.568  0.00  0.00     0.018 C 
ATOM     53  H33 non d ame     -10.957   8.688  67.335  0.00  0.00     0.048 H 
ATOM     54  H34 non d ame     -10.411   8.915  65.541  0.00  0.00     0.048 H 
BRANCH  52  55
ATOM     55  C23 non d ame      -9.759   7.133  66.509  0.00  0.00     0.259 C 
ATOM     56  O7  non d ame     -10.549   6.272  66.723  0.00  0.00    -0.265 OA
BRANCH  55  57
ATOM     57  O8  non d ame      -8.408   6.805  66.207  0.00  0.00    -0.317 OA
BRANCH  57  58
ATOM     58  C29 non d ame      -8.201   6.369  64.860  0.00  0.00     0.052 C 
ATOM     59  H47 non d ame      -7.436   5.594  64.916  0.00  0.00     0.082 H 
ATOM     60  H48 non d ame      -9.191   6.130  64.472  0.00  0.00     0.082 H 
BRANCH  58  61
ATOM     61  C35 non d ame      -7.632   7.564  64.051  0.00  0.00    -0.034 A 
ATOM     62  C30 non d ame      -6.651   8.378  64.608  0.00  0.00    -0.075 A 
ATOM     63  C31 non d ame      -6.140   9.453  63.882  0.00  0.00    -0.082 A 
ATOM     64  H49 non d ame      -6.282   8.174  65.613  0.00  0.00     0.084 H 
ATOM     65  C32 non d ame      -6.615   9.714  62.594  0.00  0.00    -0.083 A 
ATOM     66  H50 non d ame      -5.369  10.087  64.320  0.00  0.00     0.083 H 
ATOM     67  C33 non d ame      -7.597   8.901  62.044  0.00  0.00    -0.082 A 
ATOM     68  H51 non d ame      -6.221  10.551  62.019  0.00  0.00     0.083 H 
ATOM     69  C34 non d ame      -8.109   7.825  62.765  0.00  0.00    -0.075 A 
ATOM     70  H52 non d ame      -7.968   9.108  61.040  0.00  0.00     0.083 H 
ATOM     71  H53 non d ame      -8.880   7.190  62.326  0.00  0.00     0.084 H 
ENDBRANCH  58  61
ENDBRANCH  57  58
ENDBRANCH  55  57
ENDBRANCH  52  55
ENDBRANCH  49  52
ENDBRANCH  47  49
BRANCH  47  72
ATOM     72  C24 non d ame      -9.450  10.892  64.963  0.00  0.00    -0.039 C 
ATOM     73  H35 non d ame      -8.462  10.920  64.503  0.00  0.00     0.036 H 
ATOM     74  H36 non d ame     -10.093  10.023  64.822  0.00  0.00     0.036 H 
BRANCH  72  75
ATOM     75  C25 non d ame     -10.257  12.168  64.428  0.00  0.00    -0.001 C 
ATOM     76  C26 non d ame     -11.503  12.510  65.446  0.00  0.00    -0.035 C 
ATOM     77  C27 non d ame     -12.642  12.618  64.721  0.00  0.00     0.085 C 
ATOM     78  H38 non d ame     -11.696  11.660  66.099  0.00  0.00     0.036 H 
ATOM     79  H39 non d ame     -11.375  13.506  65.871  0.00  0.00     0.036 H 
ATOM     80  N5  non d ame     -12.347  12.060  63.350  0.00  0.00    -0.049 N 
ATOM     81  H40 non d ame     -13.367  11.974  65.220  0.00  0.00     0.075 H 
ATOM     82  H41 non d ame     -12.832  13.688  64.636  0.00  0.00     0.075 H 
ATOM     83  C28 non d ame     -10.739  11.955  63.249  0.00  0.00     0.193 C 
ATOM     84  H42 non d ame     -12.732  11.126  63.333  0.00  0.00     0.280 HD
ATOM     85  H43 non d ame     -12.667  12.750  62.685  0.00  0.00     0.280 HD
ATOM     86  H44 non d ame     -10.173  12.684  62.669  0.00  0.00     0.129 H 
ATOM     87  H37 non d ame      -9.596  12.992  64.159  0.00  0.00     0.046 H 
BRANCH  83  88
ATOM     88  O6  non d ame     -10.360  10.678  62.734  0.00  0.00    -0.369 OA
ATOM     89  H45 non d ame     -11.091  10.303  62.239  0.00  0.00     0.212 HD
ENDBRANCH  83  88
ENDBRANCH  72  75
ENDBRANCH  47  72
ENDBRANCH  45  47
ENDBRANCH   1  43
BRANCH   1  90
ATOM     90  C16 non d ame      -6.073  13.226  69.302  0.00  0.00    -0.035 C 
ATOM     91  H21 non d ame      -5.274  13.938  69.511  0.00  0.00     0.037 H 
ATOM     92  H22 non d ame      -6.915  13.136  69.989  0.00  0.00     0.037 H 
BRANCH  90  93
ATOM     93  C17 non d ame      -5.403  11.817  69.238  0.00  0.00    -0.059 C 
ATOM     94  H23 non d ame      -5.616  11.394  68.257  0.00  0.00     0.038 H 
BRANCH  93  95
ATOM     95  C18 non d ame      -3.850  11.895  69.396  0.00  0.00    -0.073 C 
ATOM     96  H24 non d ame      -3.603  12.534  70.243  0.00  0.00     0.028 H 
ATOM     97  H25 non d ame      -3.452  10.894  69.566  0.00  0.00     0.028 H 
ATOM     98  H26 non d ame      -3.413  12.310  68.487  0.00  0.00     0.028 H 
ENDBRANCH  93  95
BRANCH  93  99
ATOM     99  C19 non d ame      -6.009  10.875  70.281  0.00  0.00    -0.073 C 
ATOM    100  H27 non d ame      -5.350  10.819  71.147  0.00  0.00     0.028 H 
ATOM    101  H28 non d ame      -6.984  11.255  70.590  0.00  0.00     0.028 H 
ATOM    102  H29 non d ame      -6.128   9.882  69.849  0.00  0.00     0.028 H 
ENDBRANCH  93  99
ENDBRANCH  90  93
ENDBRANCH   1  90
TORSDOF 26
ENDMDL
MODEL 6
REMARK VINA RESULT:      -6.9      2.775     10.179
REMARK  26 active torsions:
REMARK  status: ('A' for Active; 'I' for Inactive)
REMARK    1  A    between atoms: C2_2  and  C3_3 
REMARK    2  A    between atoms: C4_6  and  C5_7 
REMARK       I    between atoms: C5_7  and  N2_9 
REMARK    3  A    between atoms: N2_9  and  C6_10 
REMARK    4  A    between atoms: C6_10  and  C7_11 
REMARK    5  A    between atoms: C6_10  and  C8_13 
REMARK       I    between atoms: C7_11  and  N3_14 
REMARK    6  A    between atoms: N3_14  and  C9_15 
REMARK    7  A    between atoms: C9_15  and  C10_16 
REMARK    8  A    between atoms: C9_15  and  C11_18 
REMARK       I    between atoms: C10_16  and  N4_21 
REMARK    9  A    between atoms: C11_18  and  C12_19 
REMARK   10  A    between atoms: C11_18  and  C13_20 
REMARK   11  A    between atoms: N4_21  and  C14_22 
REMARK   12  A    between atoms: C14_22  and  C15_23 
REMARK   13  A    between atoms: C14_22  and  C16_25 
REMARK       I    between atoms: C15_23  and  N6_40 
REMARK   14  A    between atoms: C16_25  and  C17_26 
REMARK   15  A    between atoms: C17_26  and  C18_27 
REMARK   16  A    between atoms: C17_26  and  C19_28 
REMARK   17  A    between atoms: C20_29  and  C21_30 
REMARK   18  A    between atoms: C20_29  and  C24_33 
REMARK   19  A    between atoms: C20_29  and  N6_40 
REMARK   20  A    between atoms: C21_30  and  C22_31 
REMARK   21  A    between atoms: C22_31  and  C23_32 
REMARK   22  A    between atoms: C23_32  and  O8_43 
REMARK   23  A    between atoms: C24_33  and  C25_34 
REMARK   24  A    between atoms: C28_38  and  O6_39 
REMARK   25  A    between atoms: C29_42  and  O8_43 
REMARK   26  A    between atoms: C29_42  and  C35_49 
ROOT
ATOM      1  C14 non d ame      -7.768   7.991  64.045  0.00  0.00     0.089 C 
ATOM      2  H20 non d ame      -7.777   8.276  62.992  0.00  0.00     0.087 H 
ENDROOT
BRANCH   1   3
ATOM      3  N4  non d ame      -8.717   8.847  64.739  0.00  0.00    -0.346 N 
ATOM      4  C10 non d ame      -9.503   9.886  63.980  0.00  0.00     0.241 C 
ATOM      5  O4  non d ame      -9.353  10.016  62.809  0.00  0.00    -0.271 OA
ATOM      6  H19 non d ame      -8.829   8.723  65.736  0.00  0.00     0.163 HD
BRANCH   4   7
ATOM      7  C9  non d ame     -10.486  10.760  64.714  0.00  0.00     0.092 C 
ATOM      8  H11 non d ame     -11.362  10.170  64.980  0.00  0.00     0.088 H 
BRANCH   7   9
ATOM      9  N3  non d ame      -9.883  11.230  65.965  0.00  0.00    -0.346 N 
ATOM     10  C7  non d ame     -10.125  10.515  67.194  0.00  0.00     0.240 C 
ATOM     11  O3  non d ame     -10.804   9.561  67.194  0.00  0.00    -0.271 OA
ATOM     12  H10 non d ame      -9.297  12.052  65.980  0.00  0.00     0.163 HD
BRANCH  10  13
ATOM     13  C6  non d ame      -9.483  11.021  68.523  0.00  0.00     0.086 C 
ATOM     14  H6  non d ame      -8.585  11.615  68.358  0.00  0.00     0.086 H 
BRANCH  13  15
ATOM     15  N2  non d ame     -10.433  11.884  69.206  0.00  0.00    -0.343 N 
ATOM     16  C5  non d ame     -10.508  13.301  68.847  0.00  0.00     0.273 C 
ATOM     17  O2  non d ame      -9.798  13.738  68.008  0.00  0.00    -0.266 OA
ATOM     18  H5  non d ame     -11.034  11.502  69.923  0.00  0.00     0.163 HD
BRANCH  16  19
ATOM     19  C4  non d ame     -11.508  14.225  69.560  0.00  0.00     0.154 A 
ATOM     20  C1  non d ame     -12.361  13.891  70.659  0.00  0.00    -0.017 A 
ATOM     21  C2  non d ame     -13.075  15.077  70.938  0.00  0.00     0.077 A 
ATOM     22  H1  non d ame     -12.449  12.934  71.175  0.00  0.00     0.091 H 
ATOM     23  O1  non d ame     -12.671  15.980  70.094  0.00  0.00    -0.218 OA
ATOM     24  N1  non d ame     -11.757  15.507  69.279  0.00  0.00    -0.123 NA
BRANCH  21  25
ATOM     25  C3  non d ame     -14.124  15.263  72.027  0.00  0.00    -0.029 C 
ATOM     26  H2  non d ame     -14.028  16.260  72.458  0.00  0.00     0.036 H 
ATOM     27  H3  non d ame     -15.118  15.147  71.598  0.00  0.00     0.036 H 
ATOM     28  H4  non d ame     -13.975  14.515  72.807  0.00  0.00     0.036 H 
ENDBRANCH  21  25
ENDBRANCH  16  19
ENDBRANCH  13  15
BRANCH  13  29
ATOM     29  C8  non d ame      -9.135   9.843  69.396  0.00  0.00    -0.049 C 
ATOM     30  H7  non d ame      -8.947  10.187  70.413  0.00  0.00     0.030 H 
ATOM     31  H8  non d ame      -9.963   9.135  69.399  0.00  0.00     0.030 H 
ATOM     32  H9  non d ame      -8.241   9.355  69.008  0.00  0.00     0.030 H 
ENDBRANCH  13  29
ENDBRANCH  10  13
ENDBRANCH   7   9
BRANCH   7  33
ATOM     33  C11 non d ame     -10.853  11.986  63.826  0.00  0.00    -0.033 C 
ATOM     34  H12 non d ame     -10.238  11.937  62.928  0.00  0.00     0.042 H 
BRANCH  33  35
ATOM     35  C12 non d ame     -12.346  11.934  63.376  0.00  0.00    -0.071 C 
ATOM     36  H13 non d ame     -12.857  12.839  63.708  0.00  0.00     0.028 H 
ATOM     37  H14 non d ame     -12.396  11.868  62.289  0.00  0.00     0.028 H 
ATOM     38  H15 non d ame     -12.828  11.062  63.816  0.00  0.00     0.028 H 
ENDBRANCH  33  35
BRANCH  33  39
ATOM     39  C13 non d ame     -10.529  13.326  64.562  0.00  0.00    -0.071 C 
ATOM     40  H16 non d ame     -11.246  13.482  65.367  0.00  0.00     0.028 H 
ATOM     41  H17 non d ame      -9.522  13.278  64.977  0.00  0.00     0.028 H 
ATOM     42  H18 non d ame     -10.591  14.152  63.854  0.00  0.00     0.028 H 
ENDBRANCH  33  39
ENDBRANCH   7  33
ENDBRANCH   4   7
ENDBRANCH   1   3
BRANCH   1  43
ATOM     43  C15 non d ame      -8.192   6.509  64.256  0.00  0.00     0.240 C 
ATOM     44  O5  non d ame      -8.243   5.771  63.326  0.00  0.00    -0.271 OA
ATOM     45  N6  non d ame      -8.526   6.008  65.619  0.00  0.00    -0.355 N 
ATOM     46  H46 non d ame      -8.482   6.624  66.418  0.00  0.00     0.162 HD
BRANCH  45  47
ATOM     47  C20 non d ame      -8.926   4.596  65.803  0.00  0.00     0.013 C 
ATOM     48  H30 non d ame      -8.925   4.116  64.825  0.00  0.00     0.072 H 
BRANCH  47  49
ATOM     49  C21 non d ame     -10.313   4.543  66.403  0.00  0.00    -0.038 C 
ATOM     50  H31 non d ame     -10.979   4.281  65.581  0.00  0.00     0.036 H 
ATOM     51  H32 non d ame     -10.234   3.889  67.271  0.00  0.00     0.036 H 
BRANCH  49  52
ATOM     52  C22 non d ame     -10.790   5.914  66.930  0.00  0.00     0.018 C 
ATOM     53  H33 non d ame     -10.215   6.659  66.380  0.00  0.00     0.048 H 
ATOM     54  H34 non d ame     -11.877   5.898  66.852  0.00  0.00     0.048 H 
BRANCH  52  55
ATOM     55  C23 non d ame     -10.472   6.151  68.433  0.00  0.00     0.259 C 
ATOM     56  O7  non d ame      -9.357   6.352  68.789  0.00  0.00    -0.265 OA
BRANCH  55  57
ATOM     57  O8  non d ame     -11.530   6.113  69.383  0.00  0.00    -0.317 OA
BRANCH  57  58
ATOM     58  C29 non d ame     -11.152   6.544  70.694  0.00  0.00     0.052 C 
ATOM     59  H47 non d ame     -11.158   5.647  71.312  0.00  0.00     0.082 H 
ATOM     60  H48 non d ame     -10.230   7.109  70.563  0.00  0.00     0.082 H 
BRANCH  58  61
ATOM     61  C35 non d ame     -12.250   7.509  71.216  0.00  0.00    -0.034 A 
ATOM     62  C30 non d ame     -13.544   7.044  71.424  0.00  0.00    -0.075 A 
ATOM     63  C31 non d ame     -14.530   7.910  71.893  0.00  0.00    -0.082 A 
ATOM     64  H49 non d ame     -13.786   6.000  71.221  0.00  0.00     0.084 H 
ATOM     65  C32 non d ame     -14.219   9.248  72.152  0.00  0.00    -0.083 A 
ATOM     66  H50 non d ame     -15.543   7.542  72.058  0.00  0.00     0.083 H 
ATOM     67  C33 non d ame     -12.926   9.708  71.939  0.00  0.00    -0.082 A 
ATOM     68  H51 non d ame     -14.983   9.932  72.519  0.00  0.00     0.083 H 
ATOM     69  C34 non d ame     -11.937   8.845  71.472  0.00  0.00    -0.075 A 
ATOM     70  H52 non d ame     -12.687  10.753  72.139  0.00  0.00     0.083 H 
ATOM     71  H53 non d ame     -10.924   9.214  71.309  0.00  0.00     0.084 H 
ENDBRANCH  58  61
ENDBRANCH  57  58
ENDBRANCH  55  57
ENDBRANCH  52  55
ENDBRANCH  49  52
ENDBRANCH  47  49
BRANCH  47  72
ATOM     72  C24 non d ame      -7.940   3.897  66.738  0.00  0.00    -0.039 C 
ATOM     73  H35 non d ame      -8.463   3.799  67.689  0.00  0.00     0.036 H 
ATOM     74  H36 non d ame      -7.613   3.007  66.201  0.00  0.00     0.036 H 
BRANCH  72  75
ATOM     75  C25 non d ame      -6.639   4.793  67.004  0.00  0.00    -0.001 C 
ATOM     76  C26 non d ame      -5.355   4.172  66.185  0.00  0.00    -0.035 C 
ATOM     77  C27 non d ame      -4.319   4.026  67.046  0.00  0.00     0.085 C 
ATOM     78  H38 non d ame      -5.570   3.152  65.870  0.00  0.00     0.036 H 
ATOM     79  H39 non d ame      -4.985   4.900  65.462  0.00  0.00     0.036 H 
ATOM     80  N5  non d ame      -4.877   4.181  68.439  0.00  0.00    -0.049 N 
ATOM     81  H40 non d ame      -3.973   3.000  66.913  0.00  0.00     0.075 H 
ATOM     82  H41 non d ame      -3.647   4.858  66.837  0.00  0.00     0.075 H 
ATOM     83  C28 non d ame      -6.345   4.829  68.260  0.00  0.00     0.193 C 
ATOM     84  H42 non d ame      -4.980   3.248  68.812  0.00  0.00     0.280 HD
ATOM     85  H43 non d ame      -4.286   4.851  68.912  0.00  0.00     0.280 HD
ATOM     86  H44 non d ame      -6.514   5.885  68.473  0.00  0.00     0.129 H 
ATOM     87  H37 non d ame      -6.838   5.858  66.880  0.00  0.00     0.046 H 
BRANCH  83  88
ATOM     88  O6  non d ame      -7.296   4.121  69.057  0.00  0.00    -0.369 OA
ATOM     89  H45 non d ame      -7.675   4.717  69.707  0.00  0.00     0.212 HD
ENDBRANCH  83  88
ENDBRANCH  72  75
ENDBRANCH  47  72
ENDBRANCH  45  47
ENDBRANCH   1  43
BRANCH   1  90
ATOM     90  C16 non d ame      -6.381   8.213  64.626  0.00  0.00    -0.035 C 
ATOM     91  H21 non d ame      -6.542   8.753  65.560  0.00  0.00     0.037 H 
ATOM     92  H22 non d ame      -5.913   7.229  64.641  0.00  0.00     0.037 H 
BRANCH  90  93
ATOM     93  C17 non d ame      -5.469   9.122  63.742  0.00  0.00    -0.059 C 
ATOM     94  H23 non d ame      -4.469   8.690  63.744  0.00  0.00     0.038 H 
BRANCH  93  95
ATOM     95  C18 non d ame      -5.959   9.184  62.260  0.00  0.00    -0.073 C 
ATOM     96  H24 non d ame      -5.107   9.356  61.603  0.00  0.00     0.028 H 
ATOM     97  H25 non d ame      -6.437   8.240  61.995  0.00  0.00     0.028 H 
ATOM     98  H26 non d ame      -6.675   9.998  62.147  0.00  0.00     0.028 H 
ENDBRANCH  93  95
BRANCH  93  99
ATOM     99  C19 non d ame      -5.357  10.528  64.337  0.00  0.00    -0.073 C 
ATOM    100  H27 non d ame      -5.293  11.260  63.532  0.00  0.00     0.028 H 
ATOM    101  H28 non d ame      -6.237  10.735  64.948  0.00  0.00     0.028 H 
ATOM    102  H29 non d ame      -4.463  10.590  64.957  0.00  0.00     0.028 H 
ENDBRANCH  93  99
ENDBRANCH  90  93
ENDBRANCH   1  90
TORSDOF 26
ENDMDL
MODEL 7
REMARK VINA RESULT:      -6.9      3.311      9.997
REMARK  26 active torsions:
REMARK  status: ('A' for Active; 'I' for Inactive)
REMARK    1  A    between atoms: C2_2  and  C3_3 
REMARK    2  A    between atoms: C4_6  and  C5_7 
REMARK       I    between atoms: C5_7  and  N2_9 
REMARK    3  A    between atoms: N2_9  and  C6_10 
REMARK    4  A    between atoms: C6_10  and  C7_11 
REMARK    5  A    between atoms: C6_10  and  C8_13 
REMARK       I    between atoms: C7_11  and  N3_14 
REMARK    6  A    between atoms: N3_14  and  C9_15 
REMARK    7  A    between atoms: C9_15  and  C10_16 
REMARK    8  A    between atoms: C9_15  and  C11_18 
REMARK       I    between atoms: C10_16  and  N4_21 
REMARK    9  A    between atoms: C11_18  and  C12_19 
REMARK   10  A    between atoms: C11_18  and  C13_20 
REMARK   11  A    between atoms: N4_21  and  C14_22 
REMARK   12  A    between atoms: C14_22  and  C15_23 
REMARK   13  A    between atoms: C14_22  and  C16_25 
REMARK       I    between atoms: C15_23  and  N6_40 
REMARK   14  A    between atoms: C16_25  and  C17_26 
REMARK   15  A    between atoms: C17_26  and  C18_27 
REMARK   16  A    between atoms: C17_26  and  C19_28 
REMARK   17  A    between atoms: C20_29  and  C21_30 
REMARK   18  A    between atoms: C20_29  and  C24_33 
REMARK   19  A    between atoms: C20_29  and  N6_40 
REMARK   20  A    between atoms: C21_30  and  C22_31 
REMARK   21  A    between atoms: C22_31  and  C23_32 
REMARK   22  A    between atoms: C23_32  and  O8_43 
REMARK   23  A    between atoms: C24_33  and  C25_34 
REMARK   24  A    between atoms: C28_38  and  O6_39 
REMARK   25  A    between atoms: C29_42  and  O8_43 
REMARK   26  A    between atoms: C29_42  and  C35_49 
ROOT
ATOM      1  C14 non d ame      -7.157  12.801  68.153  0.00  0.00     0.089 C 
ATOM      2  H20 non d ame      -6.422  12.606  67.372  0.00  0.00     0.087 H 
ENDROOT
BRANCH   1   3
ATOM      3  N4  non d ame      -7.355  14.242  68.218  0.00  0.00    -0.346 N 
ATOM      4  C10 non d ame      -6.270  15.181  67.755  0.00  0.00     0.241 C 
ATOM      5  O4  non d ame      -5.244  14.755  67.337  0.00  0.00    -0.271 OA
ATOM      6  H19 non d ame      -8.234  14.585  68.578  0.00  0.00     0.163 HD
BRANCH   4   7
ATOM      7  C9  non d ame      -6.494  16.669  67.824  0.00  0.00     0.092 C 
ATOM      8  H11 non d ame      -6.113  17.132  66.913  0.00  0.00     0.088 H 
BRANCH   7   9
ATOM      9  N3  non d ame      -7.933  16.945  67.880  0.00  0.00    -0.346 N 
ATOM     10  C7  non d ame      -8.643  17.313  66.680  0.00  0.00     0.240 C 
ATOM     11  O3  non d ame      -8.072  17.394  65.661  0.00  0.00    -0.271 OA
ATOM     12  H10 non d ame      -8.439  16.881  68.752  0.00  0.00     0.163 HD
BRANCH  10  13
ATOM     13  C6  non d ame     -10.174  17.608  66.746  0.00  0.00     0.086 C 
ATOM     14  H6  non d ame     -10.755  16.976  66.075  0.00  0.00     0.086 H 
BRANCH  13  15
ATOM     15  N2  non d ame     -10.649  17.334  68.092  0.00  0.00    -0.343 N 
ATOM     16  C5  non d ame     -11.293  16.050  68.382  0.00  0.00     0.273 C 
ATOM     17  O2  non d ame     -11.426  15.247  67.525  0.00  0.00    -0.266 OA
ATOM     18  H5  non d ame     -10.533  18.027  68.818  0.00  0.00     0.163 HD
BRANCH  16  19
ATOM     19  C4  non d ame     -11.798  15.746  69.801  0.00  0.00     0.154 A 
ATOM     20  C1  non d ame     -12.514  14.585  70.233  0.00  0.00    -0.017 A 
ATOM     21  C2  non d ame     -12.741  14.790  71.612  0.00  0.00     0.077 A 
ATOM     22  H1  non d ame     -12.822  13.725  69.637  0.00  0.00     0.091 H 
ATOM     23  O1  non d ame     -12.212  15.937  71.925  0.00  0.00    -0.218 OA
ATOM     24  N1  non d ame     -11.656  16.514  70.885  0.00  0.00    -0.123 NA
BRANCH  21  25
ATOM     25  C3  non d ame     -13.470  13.843  72.557  0.00  0.00    -0.029 C 
ATOM     26  H2  non d ame     -12.840  13.639  73.423  0.00  0.00     0.036 H 
ATOM     27  H3  non d ame     -14.402  14.303  72.885  0.00  0.00     0.036 H 
ATOM     28  H4  non d ame     -13.689  12.909  72.038  0.00  0.00     0.036 H 
ENDBRANCH  21  25
ENDBRANCH  16  19
ENDBRANCH  13  15
BRANCH  13  29
ATOM     29  C8  non d ame     -10.426  19.052  66.394  0.00  0.00    -0.049 C 
ATOM     30  H7  non d ame     -11.464  19.304  66.613  0.00  0.00     0.030 H 
ATOM     31  H8  non d ame      -9.766  19.690  66.982  0.00  0.00     0.030 H 
ATOM     32  H9  non d ame     -10.231  19.207  65.333  0.00  0.00     0.030 H 
ENDBRANCH  13  29
ENDBRANCH  10  13
ENDBRANCH   7   9
BRANCH   7  33
ATOM     33  C11 non d ame      -5.810  17.239  69.101  0.00  0.00    -0.033 C 
ATOM     34  H12 non d ame      -6.451  18.028  69.493  0.00  0.00     0.042 H 
BRANCH  33  35
ATOM     35  C12 non d ame      -5.677  16.148  70.209  0.00  0.00    -0.071 C 
ATOM     36  H13 non d ame      -4.642  16.095  70.545  0.00  0.00     0.028 H 
ATOM     37  H14 non d ame      -6.319  16.406  71.051  0.00  0.00     0.028 H 
ATOM     38  H15 non d ame      -5.979  15.182  69.805  0.00  0.00     0.028 H 
ENDBRANCH  33  35
BRANCH  33  39
ATOM     39  C13 non d ame      -4.422  17.869  68.758  0.00  0.00    -0.071 C 
ATOM     40  H16 non d ame      -3.628  17.187  69.063  0.00  0.00     0.028 H 
ATOM     41  H17 non d ame      -4.358  18.044  67.683  0.00  0.00     0.028 H 
ATOM     42  H18 non d ame      -4.312  18.815  69.287  0.00  0.00     0.028 H 
ENDBRANCH  33  39
ENDBRANCH   7  33
ENDBRANCH   4   7
ENDBRANCH   1   3
BRANCH   1  43
ATOM     43  C15 non d ame      -8.526  12.126  67.854  0.00  0.00     0.240 C 
ATOM     44  O5  non d ame      -9.522  12.582  68.313  0.00  0.00    -0.271 OA
ATOM     45  N6  non d ame      -8.595  10.916  66.986  0.00  0.00    -0.355 N 
ATOM     46  H46 non d ame      -7.755  10.522  66.586  0.00  0.00     0.162 HD
BRANCH  45  47
ATOM     47  C20 non d ame      -9.904  10.286  66.710  0.00  0.00     0.013 C 
ATOM     48  H30 non d ame     -10.662  10.827  67.276  0.00  0.00     0.072 H 
BRANCH  47  49
ATOM     49  C21 non d ame      -9.865   8.840  67.149  0.00  0.00    -0.038 C 
ATOM     50  H31 non d ame     -10.565   8.766  67.982  0.00  0.00     0.036 H 
ATOM     51  H32 non d ame     -10.030   8.253  66.245  0.00  0.00     0.036 H 
BRANCH  49  52
ATOM     52  C22 non d ame      -8.486   8.416  67.698  0.00  0.00     0.018 C 
ATOM     53  H33 non d ame      -7.980   7.915  66.872  0.00  0.00     0.048 H 
ATOM     54  H34 non d ame      -8.053   9.317  68.136  0.00  0.00     0.048 H 
BRANCH  52  55
ATOM     55  C23 non d ame      -8.562   7.375  68.849  0.00  0.00     0.259 C 
ATOM     56  O7  non d ame      -7.619   6.704  69.118  0.00  0.00    -0.265 OA
BRANCH  55  57
ATOM     57  O8  non d ame      -9.778   7.223  69.571  0.00  0.00    -0.317 OA
BRANCH  57  58
ATOM     58  C29 non d ame      -9.732   7.740  70.904  0.00  0.00     0.052 C 
ATOM     59  H47 non d ame      -9.927   6.890  71.557  0.00  0.00     0.082 H 
ATOM     60  H48 non d ame      -8.789   8.280  70.979  0.00  0.00     0.082 H 
BRANCH  58  61
ATOM     61  C35 non d ame     -10.894   8.758  71.063  0.00  0.00    -0.034 A 
ATOM     62  C30 non d ame     -10.866   9.961  70.366  0.00  0.00    -0.075 A 
ATOM     63  C31 non d ame     -11.908  10.875  70.508  0.00  0.00    -0.082 A 
ATOM     64  H49 non d ame     -10.027  10.188  69.707  0.00  0.00     0.084 H 
ATOM     65  C32 non d ame     -12.982  10.583  71.354  0.00  0.00    -0.083 A 
ATOM     66  H50 non d ame     -11.885  11.816  69.959  0.00  0.00     0.083 H 
ATOM     67  C33 non d ame     -13.004   9.382  72.050  0.00  0.00    -0.082 A 
ATOM     68  H51 non d ame     -13.801  11.292  71.471  0.00  0.00     0.083 H 
ATOM     69  C34 non d ame     -11.965   8.465  71.909  0.00  0.00    -0.075 A 
ATOM     70  H52 non d ame     -13.841   9.158  72.712  0.00  0.00     0.083 H 
ATOM     71  H53 non d ame     -11.990   7.523  72.458  0.00  0.00     0.084 H 
ENDBRANCH  58  61
ENDBRANCH  57  58
ENDBRANCH  55  57
ENDBRANCH  52  55
ENDBRANCH  49  52
ENDBRANCH  47  49
BRANCH  47  72
ATOM     72  C24 non d ame     -10.206  10.357  65.215  0.00  0.00    -0.039 C 
ATOM     73  H35 non d ame      -9.363   9.869  64.725  0.00  0.00     0.036 H 
ATOM     74  H36 non d ame     -11.211   9.951  65.102  0.00  0.00     0.036 H 
BRANCH  72  75
ATOM     75  C25 non d ame     -10.246  11.870  64.690  0.00  0.00    -0.001 C 
ATOM     76  C26 non d ame     -11.510  12.668  65.377  0.00  0.00    -0.035 C 
ATOM     77  C27 non d ame     -12.232  13.265  64.399  0.00  0.00     0.085 C 
ATOM     78  H38 non d ame     -12.209  11.955  65.812  0.00  0.00     0.036 H 
ATOM     79  H39 non d ame     -11.144  13.506  65.971  0.00  0.00     0.036 H 
ATOM     80  N5  non d ame     -11.770  12.679  63.087  0.00  0.00    -0.049 N 
ATOM     81  H40 non d ame     -13.266  12.966  64.577  0.00  0.00     0.075 H 
ATOM     82  H41 non d ame     -11.956  14.318  64.435  0.00  0.00     0.075 H 
ATOM     83  C28 non d ame     -10.383  11.916  63.406  0.00  0.00     0.193 C 
ATOM     84  H42 non d ame     -12.460  11.992  62.821  0.00  0.00     0.280 HD
ATOM     85  H43 non d ame     -11.573  13.460  62.478  0.00  0.00     0.280 HD
ATOM     86  H44 non d ame      -9.429  12.360  63.122  0.00  0.00     0.129 H 
ATOM     87  H37 non d ame      -9.269  12.351  64.741  0.00  0.00     0.046 H 
BRANCH  83  88
ATOM     88  O6  non d ame     -10.389  10.614  62.818  0.00  0.00    -0.369 OA
ATOM     89  H45 non d ame      -9.813  10.034  63.320  0.00  0.00     0.212 HD
ENDBRANCH  83  88
ENDBRANCH  72  75
ENDBRANCH  47  72
ENDBRANCH  45  47
ENDBRANCH   1  43
BRANCH   1  90
ATOM     90  C16 non d ame      -6.628  12.313  69.492  0.00  0.00    -0.035 C 
ATOM     91  H21 non d ame      -6.546  13.205  70.113  0.00  0.00     0.037 H 
ATOM     92  H22 non d ame      -7.294  11.503  69.788  0.00  0.00     0.037 H 
BRANCH  90  93
ATOM     93  C17 non d ame      -5.194  11.698  69.413  0.00  0.00    -0.059 C 
ATOM     94  H23 non d ame      -5.180  10.809  70.042  0.00  0.00     0.038 H 
BRANCH  93  95
ATOM     95  C18 non d ame      -4.820  11.260  67.960  0.00  0.00    -0.073 C 
ATOM     96  H24 non d ame      -5.617  11.553  67.277  0.00  0.00     0.028 H 
ATOM     97  H25 non d ame      -3.889  11.744  67.663  0.00  0.00     0.028 H 
ATOM     98  H26 non d ame      -4.693  10.178  67.929  0.00  0.00     0.028 H 
ENDBRANCH  93  95
BRANCH  93  99
ATOM     99  C19 non d ame      -4.151  12.668  69.974  0.00  0.00    -0.073 C 
ATOM    100  H27 non d ame      -4.609  13.287  70.746  0.00  0.00     0.028 H 
ATOM    101  H28 non d ame      -3.324  12.103  70.404  0.00  0.00     0.028 H 
ATOM    102  H29 non d ame      -3.778  13.304  69.172  0.00  0.00     0.028 H 
ENDBRANCH  93  99
ENDBRANCH  90  93
ENDBRANCH   1  90
TORSDOF 26
ENDMDL
MODEL 8
REMARK VINA RESULT:      -6.9      2.976      6.157
REMARK  26 active torsions:
REMARK  status: ('A' for Active; 'I' for Inactive)
REMARK    1  A    between atoms: C2_2  and  C3_3 
REMARK    2  A    between atoms: C4_6  and  C5_7 
REMARK       I    between atoms: C5_7  and  N2_9 
REMARK    3  A    between atoms: N2_9  and  C6_10 
REMARK    4  A    between atoms: C6_10  and  C7_11 
REMARK    5  A    between atoms: C6_10  and  C8_13 
REMARK       I    between atoms: C7_11  and  N3_14 
REMARK    6  A    between atoms: N3_14  and  C9_15 
REMARK    7  A    between atoms: C9_15  and  C10_16 
REMARK    8  A    between atoms: C9_15  and  C11_18 
REMARK       I    between atoms: C10_16  and  N4_21 
REMARK    9  A    between atoms: C11_18  and  C12_19 
REMARK   10  A    between atoms: C11_18  and  C13_20 
REMARK   11  A    between atoms: N4_21  and  C14_22 
REMARK   12  A    between atoms: C14_22  and  C15_23 
REMARK   13  A    between atoms: C14_22  and  C16_25 
REMARK       I    between atoms: C15_23  and  N6_40 
REMARK   14  A    between atoms: C16_25  and  C17_26 
REMARK   15  A    between atoms: C17_26  and  C18_27 
REMARK   16  A    between atoms: C17_26  and  C19_28 
REMARK   17  A    between atoms: C20_29  and  C21_30 
REMARK   18  A    between atoms: C20_29  and  C24_33 
REMARK   19  A    between atoms: C20_29  and  N6_40 
REMARK   20  A    between atoms: C21_30  and  C22_31 
REMARK   21  A    between atoms: C22_31  and  C23_32 
REMARK   22  A    between atoms: C23_32  and  O8_43 
REMARK   23  A    between atoms: C24_33  and  C25_34 
REMARK   24  A    between atoms: C28_38  and  O6_39 
REMARK   25  A    between atoms: C29_42  and  O8_43 
REMARK   26  A    between atoms: C29_42  and  C35_49 
ROOT
ATOM      1  C14 non d ame      -8.627   6.084  67.717  0.00  0.00     0.089 C 
ATOM      2  H20 non d ame      -9.205   5.290  67.242  0.00  0.00     0.087 H 
ENDROOT
BRANCH   1   3
ATOM      3  N4  non d ame      -7.463   6.339  66.881  0.00  0.00    -0.346 N 
ATOM      4  C10 non d ame      -6.775   5.204  66.166  0.00  0.00     0.241 C 
ATOM      5  O4  non d ame      -7.173   4.092  66.282  0.00  0.00    -0.271 OA
ATOM      6  H19 non d ame      -7.139   7.292  66.797  0.00  0.00     0.163 HD
BRANCH   4   7
ATOM      7  C9  non d ame      -5.576   5.488  65.300  0.00  0.00     0.092 C 
ATOM      8  H11 non d ame      -5.549   4.772  64.479  0.00  0.00     0.088 H 
BRANCH   7   9
ATOM      9  N3  non d ame      -5.705   6.823  64.707  0.00  0.00    -0.346 N 
ATOM     10  C7  non d ame      -5.347   7.035  63.327  0.00  0.00     0.240 C 
ATOM     11  O3  non d ame      -4.951   6.145  62.679  0.00  0.00    -0.271 OA
ATOM     12  H10 non d ame      -6.043   7.601  65.254  0.00  0.00     0.163 HD
BRANCH  10  13
ATOM     13  C6  non d ame      -5.484   8.459  62.702  0.00  0.00     0.086 C 
ATOM     14  H6  non d ame      -5.731   8.432  61.641  0.00  0.00     0.086 H 
BRANCH  13  15
ATOM     15  N2  non d ame      -6.569   9.162  63.365  0.00  0.00    -0.343 N 
ATOM     16  C5  non d ame      -7.845   9.339  62.668  0.00  0.00     0.273 C 
ATOM     17  O2  non d ame      -7.987   8.915  61.574  0.00  0.00    -0.266 OA
ATOM     18  H5  non d ame      -6.439   9.523  64.299  0.00  0.00     0.163 HD
BRANCH  16  19
ATOM     19  C4  non d ame      -9.003  10.079  63.358  0.00  0.00     0.154 A 
ATOM     20  C1  non d ame      -9.610  11.308  62.947  0.00  0.00    -0.017 A 
ATOM     21  C2  non d ame     -10.615  11.555  63.908  0.00  0.00     0.077 A 
ATOM     22  H1  non d ame      -9.360  11.925  62.084  0.00  0.00     0.091 H 
ATOM     23  O1  non d ame     -10.582  10.577  64.765  0.00  0.00    -0.218 OA
ATOM     24  N1  non d ame      -9.649   9.703  64.465  0.00  0.00    -0.123 NA
BRANCH  21  25
ATOM     25  C3  non d ame     -11.563  12.747  63.935  0.00  0.00    -0.029 C 
ATOM     26  H2  non d ame     -11.255  13.440  64.718  0.00  0.00     0.036 H 
ATOM     27  H3  non d ame     -11.537  13.254  62.970  0.00  0.00     0.036 H 
ATOM     28  H4  non d ame     -12.578  12.401  64.135  0.00  0.00     0.036 H 
ENDBRANCH  21  25
ENDBRANCH  16  19
ENDBRANCH  13  15
BRANCH  13  29
ATOM     29  C8  non d ame      -4.192   9.216  62.882  0.00  0.00    -0.049 C 
ATOM     30  H7  non d ame      -4.229  10.140  62.304  0.00  0.00     0.030 H 
ATOM     31  H8  non d ame      -4.053   9.452  63.937  0.00  0.00     0.030 H 
ATOM     32  H9  non d ame      -3.361   8.603  62.533  0.00  0.00     0.030 H 
ENDBRANCH  13  29
ENDBRANCH  10  13
ENDBRANCH   7   9
BRANCH   7  33
ATOM     33  C11 non d ame      -4.284   5.432  66.168  0.00  0.00    -0.033 C 
ATOM     34  H12 non d ame      -4.556   5.009  67.135  0.00  0.00     0.042 H 
BRANCH  33  35
ATOM     35  C12 non d ame      -3.212   4.494  65.531  0.00  0.00    -0.071 C 
ATOM     36  H13 non d ame      -3.702   3.619  65.103  0.00  0.00     0.028 H 
ATOM     37  H14 non d ame      -2.680   5.031  64.746  0.00  0.00     0.028 H 
ATOM     38  H15 non d ame      -2.506   4.177  66.298  0.00  0.00     0.028 H 
ENDBRANCH  33  35
BRANCH  33  39
ATOM     39  C13 non d ame      -3.711   6.865  66.411  0.00  0.00    -0.071 C 
ATOM     40  H16 non d ame      -2.758   6.791  66.934  0.00  0.00     0.028 H 
ATOM     41  H17 non d ame      -3.561   7.364  65.453  0.00  0.00     0.028 H 
ATOM     42  H18 non d ame      -4.414   7.439  67.014  0.00  0.00     0.028 H 
ENDBRANCH  33  39
ENDBRANCH   7  33
ENDBRANCH   4   7
ENDBRANCH   1   3
BRANCH   1  43
ATOM     43  C15 non d ame      -9.440   7.403  67.851  0.00  0.00     0.240 C 
ATOM     44  O5  non d ame     -10.380   7.592  67.149  0.00  0.00    -0.271 OA
ATOM     45  N6  non d ame      -9.052   8.427  68.863  0.00  0.00    -0.355 N 
ATOM     46  H46 non d ame      -8.259   8.276  69.468  0.00  0.00     0.162 HD
BRANCH  45  47
ATOM     47  C20 non d ame      -9.836   9.676  68.979  0.00  0.00     0.013 C 
ATOM     48  H30 non d ame     -10.649   9.630  68.254  0.00  0.00     0.072 H 
BRANCH  47  49
ATOM     49  C21 non d ame      -8.942  10.858  68.679  0.00  0.00    -0.038 C 
ATOM     50  H31 non d ame      -8.890  11.430  69.605  0.00  0.00     0.036 H 
ATOM     51  H32 non d ame      -8.035  10.437  68.245  0.00  0.00     0.036 H 
BRANCH  49  52
ATOM     52  C22 non d ame      -9.537  11.804  67.613  0.00  0.00     0.018 C 
ATOM     53  H33 non d ame      -8.814  12.612  67.499  0.00  0.00     0.048 H 
ATOM     54  H34 non d ame      -9.785  11.170  66.761  0.00  0.00     0.048 H 
BRANCH  52  55
ATOM     55  C23 non d ame     -10.868  12.478  68.047  0.00  0.00     0.259 C 
ATOM     56  O7  non d ame     -11.905  12.112  67.597  0.00  0.00    -0.265 OA
BRANCH  55  57
ATOM     57  O8  non d ame     -10.833  13.550  68.982  0.00  0.00    -0.317 OA
BRANCH  57  58
ATOM     58  C29 non d ame     -12.051  14.297  69.057  0.00  0.00     0.052 C 
ATOM     59  H47 non d ame     -11.851  15.239  68.546  0.00  0.00     0.082 H 
ATOM     60  H48 non d ame     -12.829  13.630  68.686  0.00  0.00     0.082 H 
BRANCH  58  61
ATOM     61  C35 non d ame     -12.335  14.600  70.552  0.00  0.00    -0.034 A 
ATOM     62  C30 non d ame     -13.052  13.691  71.323  0.00  0.00    -0.075 A 
ATOM     63  C31 non d ame     -13.309  13.963  72.666  0.00  0.00    -0.082 A 
ATOM     64  H49 non d ame     -13.413  12.765  70.875  0.00  0.00     0.084 H 
ATOM     65  C32 non d ame     -12.847  15.152  73.237  0.00  0.00    -0.083 A 
ATOM     66  H50 non d ame     -13.869  13.248  73.268  0.00  0.00     0.083 H 
ATOM     67  C33 non d ame     -12.134  16.058  72.463  0.00  0.00    -0.082 A 
ATOM     68  H51 non d ame     -13.042  15.373  74.287  0.00  0.00     0.083 H 
ATOM     69  C34 non d ame     -11.874  15.789  71.121  0.00  0.00    -0.075 A 
ATOM     70  H52 non d ame     -11.777  16.986  72.911  0.00  0.00     0.083 H 
ATOM     71  H53 non d ame     -11.313  16.505  70.520  0.00  0.00     0.084 H 
ENDBRANCH  58  61
ENDBRANCH  57  58
ENDBRANCH  55  57
ENDBRANCH  52  55
ENDBRANCH  49  52
ENDBRANCH  47  49
BRANCH  47  72
ATOM     72  C24 non d ame     -10.395   9.805  70.394  0.00  0.00    -0.039 C 
ATOM     73  H35 non d ame      -9.635   9.374  71.046  0.00  0.00     0.036 H 
ATOM     74  H36 non d ame     -10.673  10.854  70.502  0.00  0.00     0.036 H 
BRANCH  72  75
ATOM     75  C25 non d ame     -11.729   8.940  70.587  0.00  0.00    -0.001 C 
ATOM     76  C26 non d ame     -12.954   9.908  71.105  0.00  0.00    -0.035 C 
ATOM     77  C27 non d ame     -13.516   9.349  72.203  0.00  0.00     0.085 C 
ATOM     78  H38 non d ame     -12.554  10.851  71.475  0.00  0.00     0.036 H 
ATOM     79  H39 non d ame     -13.764   9.908  70.376  0.00  0.00     0.036 H 
ATOM     80  N5  non d ame     -12.581   8.261  72.673  0.00  0.00    -0.049 N 
ATOM     81  H40 non d ame     -13.544  10.142  72.952  0.00  0.00     0.075 H 
ATOM     82  H41 non d ame     -14.444   8.894  71.856  0.00  0.00     0.075 H 
ATOM     83  C28 non d ame     -11.556   8.000  71.454  0.00  0.00     0.193 C 
ATOM     84  H42 non d ame     -12.064   8.645  73.452  0.00  0.00     0.280 HD
ATOM     85  H43 non d ame     -13.146   7.434  72.801  0.00  0.00     0.280 HD
ATOM     86  H44 non d ame     -11.664   7.121  70.818  0.00  0.00     0.129 H 
ATOM     87  H37 non d ame     -11.933   8.299  69.729  0.00  0.00     0.046 H 
BRANCH  83  88
ATOM     88  O6  non d ame     -10.213   7.956  71.941  0.00  0.00    -0.369 OA
ATOM     89  H45 non d ame     -10.211   8.112  72.888  0.00  0.00     0.212 HD
ENDBRANCH  83  88
ENDBRANCH  72  75
ENDBRANCH  47  72
ENDBRANCH  45  47
ENDBRANCH   1  43
BRANCH   1  90
ATOM     90  C16 non d ame      -8.160   5.629  69.091  0.00  0.00    -0.035 C 
ATOM     91  H21 non d ame      -7.112   5.356  68.964  0.00  0.00     0.037 H 
ATOM     92  H22 non d ame      -8.434   6.436  69.770  0.00  0.00     0.037 H 
BRANCH  90  93
ATOM     93  C17 non d ame      -8.889   4.349  69.608  0.00  0.00    -0.059 C 
ATOM     94  H23 non d ame      -8.134   3.684  70.027  0.00  0.00     0.038 H 
BRANCH  93  95
ATOM     95  C18 non d ame      -9.918   4.673  70.739  0.00  0.00    -0.073 C 
ATOM     96  H24 non d ame      -9.979   5.752  70.875  0.00  0.00     0.028 H 
ATOM     97  H25 non d ame     -10.898   4.286  70.461  0.00  0.00     0.028 H 
ATOM     98  H26 non d ame      -9.593   4.206  71.669  0.00  0.00     0.028 H 
ENDBRANCH  93  95
BRANCH  93  99
ATOM     99  C19 non d ame      -9.565   3.601  68.456  0.00  0.00    -0.073 C 
ATOM    100  H27 non d ame     -10.601   3.386  68.720  0.00  0.00     0.028 H 
ATOM    101  H28 non d ame      -9.539   4.218  67.558  0.00  0.00     0.028 H 
ATOM    102  H29 non d ame      -9.036   2.667  68.269  0.00  0.00     0.028 H 
ENDBRANCH  93  99
ENDBRANCH  90  93
ENDBRANCH   1  90
TORSDOF 26
ENDMDL
MODEL 9
REMARK VINA RESULT:      -6.8      1.633      2.075
REMARK  26 active torsions:
REMARK  status: ('A' for Active; 'I' for Inactive)
REMARK    1  A    between atoms: C2_2  and  C3_3 
REMARK    2  A    between atoms: C4_6  and  C5_7 
REMARK       I    between atoms: C5_7  and  N2_9 
REMARK    3  A    between atoms: N2_9  and  C6_10 
REMARK    4  A    between atoms: C6_10  and  C7_11 
REMARK    5  A    between atoms: C6_10  and  C8_13 
REMARK       I    between atoms: C7_11  and  N3_14 
REMARK    6  A    between atoms: N3_14  and  C9_15 
REMARK    7  A    between atoms: C9_15  and  C10_16 
REMARK    8  A    between atoms: C9_15  and  C11_18 
REMARK       I    between atoms: C10_16  and  N4_21 
REMARK    9  A    between atoms: C11_18  and  C12_19 
REMARK   10  A    between atoms: C11_18  and  C13_20 
REMARK   11  A    between atoms: N4_21  and  C14_22 
REMARK   12  A    between atoms: C14_22  and  C15_23 
REMARK   13  A    between atoms: C14_22  and  C16_25 
REMARK       I    between atoms: C15_23  and  N6_40 
REMARK   14  A    between atoms: C16_25  and  C17_26 
REMARK   15  A    between atoms: C17_26  and  C18_27 
REMARK   16  A    between atoms: C17_26  and  C19_28 
REMARK   17  A    between atoms: C20_29  and  C21_30 
REMARK   18  A    between atoms: C20_29  and  C24_33 
REMARK   19  A    between atoms: C20_29  and  N6_40 
REMARK   20  A    between atoms: C21_30  and  C22_31 
REMARK   21  A    between atoms: C22_31  and  C23_32 
REMARK   22  A    between atoms: C23_32  and  O8_43 
REMARK   23  A    between atoms: C24_33  and  C25_34 
REMARK   24  A    between atoms: C28_38  and  O6_39 
REMARK   25  A    between atoms: C29_42  and  O8_43 
REMARK   26  A    between atoms: C29_42  and  C35_49 
ROOT
ATOM      1  C14 non d ame      -9.958  11.221  67.771  0.00  0.00     0.089 C 
ATOM      2  H20 non d ame      -9.120  11.311  68.463  0.00  0.00     0.087 H 
ENDROOT
BRANCH   1   3
ATOM      3  N4  non d ame     -10.548   9.905  67.966  0.00  0.00    -0.346 N 
ATOM      4  C10 non d ame      -9.910   8.917  68.909  0.00  0.00     0.241 C 
ATOM      5  O4  non d ame      -8.920   9.202  69.498  0.00  0.00    -0.271 OA
ATOM      6  H19 non d ame     -11.389   9.681  67.453  0.00  0.00     0.163 HD
BRANCH   4   7
ATOM      7  C9  non d ame     -10.537   7.561  69.103  0.00  0.00     0.092 C 
ATOM      8  H11 non d ame     -11.555   7.578  68.714  0.00  0.00     0.088 H 
BRANCH   7   9
ATOM      9  N3  non d ame      -9.794   6.563  68.328  0.00  0.00    -0.346 N 
ATOM     10  C7  non d ame     -10.263   6.170  67.021  0.00  0.00     0.240 C 
ATOM     11  O3  non d ame     -11.237   6.646  66.580  0.00  0.00    -0.271 OA
ATOM     12  H10 non d ame      -8.953   6.143  68.697  0.00  0.00     0.163 HD
BRANCH  10  13
ATOM     13  C6  non d ame      -9.469   5.106  66.202  0.00  0.00     0.086 C 
ATOM     14  H6  non d ame     -10.033   4.721  65.352  0.00  0.00     0.086 H 
BRANCH  13  15
ATOM     15  N2  non d ame      -8.271   5.724  65.661  0.00  0.00    -0.343 N 
ATOM     16  C5  non d ame      -7.984   5.611  64.229  0.00  0.00     0.273 C 
ATOM     17  O2  non d ame      -8.723   5.018  63.522  0.00  0.00    -0.266 OA
ATOM     18  H5  non d ame      -7.644   6.227  66.273  0.00  0.00     0.163 HD
BRANCH  16  19
ATOM     19  C4  non d ame      -6.721   6.262  63.643  0.00  0.00     0.154 A 
ATOM     20  C1  non d ame      -6.300   7.621  63.793  0.00  0.00    -0.017 A 
ATOM     21  C2  non d ame      -5.090   7.708  63.070  0.00  0.00     0.077 A 
ATOM     22  H1  non d ame      -6.796   8.422  64.342  0.00  0.00     0.091 H 
ATOM     23  O1  non d ame      -4.852   6.532  62.569  0.00  0.00    -0.218 OA
ATOM     24  N1  non d ame      -5.791   5.671  62.889  0.00  0.00    -0.123 NA
BRANCH  21  25
ATOM     25  C3  non d ame      -4.223   8.950  62.908  0.00  0.00    -0.029 C 
ATOM     26  H2  non d ame      -4.838   9.842  63.033  0.00  0.00     0.036 H 
ATOM     27  H3  non d ame      -3.435   8.944  63.661  0.00  0.00     0.036 H 
ATOM     28  H4  non d ame      -3.775   8.955  61.914  0.00  0.00     0.036 H 
ENDBRANCH  21  25
ENDBRANCH  16  19
ENDBRANCH  13  15
BRANCH  13  29
ATOM     29  C8  non d ame      -9.096   3.953  67.100  0.00  0.00    -0.049 C 
ATOM     30  H7  non d ame      -9.579   3.044  66.744  0.00  0.00     0.030 H 
ATOM     31  H8  non d ame      -8.014   3.819  67.088  0.00  0.00     0.030 H 
ATOM     32  H9  non d ame      -9.424   4.164  68.117  0.00  0.00     0.030 H 
ENDBRANCH  13  29
ENDBRANCH  10  13
ENDBRANCH   7   9
BRANCH   7  33
ATOM     33  C11 non d ame     -10.493   7.180  70.612  0.00  0.00    -0.033 C 
ATOM     34  H12 non d ame      -9.547   7.542  71.014  0.00  0.00     0.042 H 
BRANCH  33  35
ATOM     35  C12 non d ame     -11.639   7.878  71.408  0.00  0.00    -0.071 C 
ATOM     36  H13 non d ame     -12.352   7.128  71.751  0.00  0.00     0.028 H 
ATOM     37  H14 non d ame     -11.219   8.398  72.269  0.00  0.00     0.028 H 
ATOM     38  H15 non d ame     -12.146   8.594  70.762  0.00  0.00     0.028 H 
ENDBRANCH  33  35
BRANCH  33  39
ATOM     39  C13 non d ame     -10.536   5.629  70.799  0.00  0.00    -0.071 C 
ATOM     40  H16 non d ame      -9.520   5.246  70.886  0.00  0.00     0.028 H 
ATOM     41  H17 non d ame     -11.095   5.388  71.703  0.00  0.00     0.028 H 
ATOM     42  H18 non d ame     -11.024   5.174  69.937  0.00  0.00     0.028 H 
ENDBRANCH  33  39
ENDBRANCH   7  33
ENDBRANCH   4   7
ENDBRANCH   1   3
BRANCH   1  43
ATOM     43  C15 non d ame     -11.052  12.297  68.030  0.00  0.00     0.240 C 
ATOM     44  O5  non d ame     -11.986  12.378  67.300  0.00  0.00    -0.271 OA
ATOM     45  N6  non d ame     -10.938  13.222  69.193  0.00  0.00    -0.355 N 
ATOM     46  H46 non d ame     -10.152  13.160  69.823  0.00  0.00     0.162 HD
BRANCH  45  47
ATOM     47  C20 non d ame     -11.987  14.239  69.426  0.00  0.00     0.013 C 
ATOM     48  H30 non d ame     -12.781  14.074  68.698  0.00  0.00     0.072 H 
BRANCH  47  49
ATOM     49  C21 non d ame     -11.395  15.618  69.243  0.00  0.00    -0.038 C 
ATOM     50  H31 non d ame     -12.124  16.310  69.665  0.00  0.00     0.036 H 
ATOM     51  H32 non d ame     -10.389  15.564  69.659  0.00  0.00     0.036 H 
BRANCH  49  52
ATOM     52  C22 non d ame     -11.232  16.007  67.757  0.00  0.00     0.018 C 
ATOM     53  H33 non d ame     -10.598  15.237  67.318  0.00  0.00     0.048 H 
ATOM     54  H34 non d ame     -12.244  16.162  67.380  0.00  0.00     0.048 H 
BRANCH  52  55
ATOM     55  C23 non d ame     -10.485  17.352  67.541  0.00  0.00     0.259 C 
ATOM     56  O7  non d ame     -11.042  18.387  67.716  0.00  0.00    -0.265 OA
BRANCH  55  57
ATOM     57  O8  non d ame      -9.127  17.334  67.117  0.00  0.00    -0.317 OA
BRANCH  57  58
ATOM     58  C29 non d ame      -8.182  17.413  68.187  0.00  0.00     0.052 C 
ATOM     59  H47 non d ame      -8.774  17.504  69.098  0.00  0.00     0.082 H 
ATOM     60  H48 non d ame      -7.514  16.562  68.054  0.00  0.00     0.082 H 
BRANCH  58  61
ATOM     61  C35 non d ame      -7.358  18.715  68.004  0.00  0.00    -0.034 A 
ATOM     62  C30 non d ame      -6.844  19.376  69.116  0.00  0.00    -0.075 A 
ATOM     63  C31 non d ame      -6.105  20.546  68.952  0.00  0.00    -0.082 A 
ATOM     64  H49 non d ame      -7.020  18.977  70.114  0.00  0.00     0.084 H 
ATOM     65  C32 non d ame      -5.882  21.058  67.670  0.00  0.00    -0.083 A 
ATOM     66  H50 non d ame      -5.701  21.061  69.824  0.00  0.00     0.083 H 
ATOM     67  C33 non d ame      -6.400  20.397  66.565  0.00  0.00    -0.082 A 
ATOM     68  H51 non d ame      -5.304  21.972  67.533  0.00  0.00     0.083 H 
ATOM     69  C34 non d ame      -7.138  19.225  66.724  0.00  0.00    -0.075 A 
ATOM     70  H52 non d ame      -6.226  20.799  65.566  0.00  0.00     0.083 H 
ATOM     71  H53 non d ame      -7.540  18.711  65.850  0.00  0.00     0.084 H 
ENDBRANCH  58  61
ENDBRANCH  57  58
ENDBRANCH  55  57
ENDBRANCH  52  55
ENDBRANCH  49  52
ENDBRANCH  47  49
BRANCH  47  72
ATOM     72  C24 non d ame     -12.532  14.103  70.847  0.00  0.00    -0.039 C 
ATOM     73  H35 non d ame     -13.485  13.583  70.743  0.00  0.00     0.036 H 
ATOM     74  H36 non d ame     -11.725  13.651  71.425  0.00  0.00     0.036 H 
BRANCH  72  75
ATOM     75  C25 non d ame     -12.841  15.531  71.502  0.00  0.00    -0.001 C 
ATOM     76  C26 non d ame     -11.741  15.856  72.681  0.00  0.00    -0.035 C 
ATOM     77  C27 non d ame     -12.403  16.206  73.810  0.00  0.00     0.085 C 
ATOM     78  H38 non d ame     -11.218  14.943  72.965  0.00  0.00     0.036 H 
ATOM     79  H39 non d ame     -11.176  16.753  72.428  0.00  0.00     0.036 H 
ATOM     80  N5  non d ame     -13.851  15.835  73.606  0.00  0.00    -0.049 N 
ATOM     81  H40 non d ame     -11.983  15.581  74.600  0.00  0.00     0.075 H 
ATOM     82  H41 non d ame     -12.319  17.291  73.871  0.00  0.00     0.075 H 
ATOM     83  C28 non d ame     -14.021  15.560  72.025  0.00  0.00     0.193 C 
ATOM     84  H42 non d ame     -13.997  14.966  74.101  0.00  0.00     0.280 HD
ATOM     85  H43 non d ame     -14.393  16.651  73.851  0.00  0.00     0.280 HD
ATOM     86  H44 non d ame     -14.504  16.298  71.383  0.00  0.00     0.129 H 
ATOM     87  H37 non d ame     -13.005  16.304  70.751  0.00  0.00     0.046 H 
BRANCH  83  88
ATOM     88  O6  non d ame     -14.736  14.342  71.810  0.00  0.00    -0.369 OA
ATOM     89  H45 non d ame     -14.297  13.830  71.127  0.00  0.00     0.212 HD
ENDBRANCH  83  88
ENDBRANCH  72  75
ENDBRANCH  47  72
ENDBRANCH  45  47
ENDBRANCH   1  43
BRANCH   1  90
ATOM     90  C16 non d ame      -9.459  11.334  66.340  0.00  0.00    -0.035 C 
ATOM     91  H21 non d ame      -9.726  12.341  66.019  0.00  0.00     0.037 H 
ATOM     92  H22 non d ame      -8.411  11.034  66.375  0.00  0.00     0.037 H 
BRANCH  90  93
ATOM     93  C17 non d ame     -10.165  10.353  65.350  0.00  0.00    -0.059 C 
ATOM     94  H23 non d ame     -10.996   9.889  65.881  0.00  0.00     0.038 H 
BRANCH  93  95
ATOM     95  C18 non d ame     -10.750  11.093  64.104  0.00  0.00    -0.073 C 
ATOM     96  H24 non d ame     -11.394  11.907  64.435  0.00  0.00     0.028 H 
ATOM     97  H25 non d ame      -9.933  11.496  63.505  0.00  0.00     0.028 H 
ATOM     98  H26 non d ame     -11.329  10.391  63.504  0.00  0.00     0.028 H 
ENDBRANCH  93  95
BRANCH  93  99
ATOM     99  C19 non d ame      -9.216   9.232  64.922  0.00  0.00    -0.073 C 
ATOM    100  H27 non d ame      -9.454   8.922  63.904  0.00  0.00     0.028 H 
ATOM    101  H28 non d ame      -8.187   9.592  64.961  0.00  0.00     0.028 H 
ATOM    102  H29 non d ame      -9.329   8.383  65.596  0.00  0.00     0.028 H 
ENDBRANCH  93  99
ENDBRANCH  90  93
ENDBRANCH   1  90
TORSDOF 26
ENDMDL
MODEL 10
REMARK VINA RESULT:      -6.7      2.575      4.330
REMARK  26 active torsions:
REMARK  status: ('A' for Active; 'I' for Inactive)
REMARK    1  A    between atoms: C2_2  and  C3_3 
REMARK    2  A    between atoms: C4_6  and  C5_7 
REMARK       I    between atoms: C5_7  and  N2_9 
REMARK    3  A    between atoms: N2_9  and  C6_10 
REMARK    4  A    between atoms: C6_10  and  C7_11 
REMARK    5  A    between atoms: C6_10  and  C8_13 
REMARK       I    between atoms: C7_11  and  N3_14 
REMARK    6  A    between atoms: N3_14  and  C9_15 
REMARK    7  A    between atoms: C9_15  and  C10_16 
REMARK    8  A    between atoms: C9_15  and  C11_18 
REMARK       I    between atoms: C10_16  and  N4_21 
REMARK    9  A    between atoms: C11_18  and  C12_19 
REMARK   10  A    between atoms: C11_18  and  C13_20 
REMARK   11  A    between atoms: N4_21  and  C14_22 
REMARK   12  A    between atoms: C14_22  and  C15_23 
REMARK   13  A    between atoms: C14_22  and  C16_25 
REMARK       I    between atoms: C15_23  and  N6_40 
REMARK   14  A    between atoms: C16_25  and  C17_26 
REMARK   15  A    between atoms: C17_26  and  C18_27 
REMARK   16  A    between atoms: C17_26  and  C19_28 
REMARK   17  A    between atoms: C20_29  and  C21_30 
REMARK   18  A    between atoms: C20_29  and  C24_33 
REMARK   19  A    between atoms: C20_29  and  N6_40 
REMARK   20  A    between atoms: C21_30  and  C22_31 
REMARK   21  A    between atoms: C22_31  and  C23_32 
REMARK   22  A    between atoms: C23_32  and  O8_43 
REMARK   23  A    between atoms: C24_33  and  C25_34 
REMARK   24  A    between atoms: C28_38  and  O6_39 
REMARK   25  A    between atoms: C29_42  and  O8_43 
REMARK   26  A    between atoms: C29_42  and  C35_49 
ROOT
ATOM      1  C14 non d ame      -9.803  10.947  68.820  0.00  0.00     0.089 C 
ATOM      2  H20 non d ame      -9.131  11.480  69.494  0.00  0.00     0.087 H 
ENDROOT
BRANCH   1   3
ATOM      3  N4  non d ame      -9.413   9.546  68.830  0.00  0.00    -0.346 N 
ATOM      4  C10 non d ame      -9.143   8.839  70.135  0.00  0.00     0.241 C 
ATOM      5  O4  non d ame      -9.244   9.421  71.164  0.00  0.00    -0.271 OA
ATOM      6  H19 non d ame      -9.331   9.069  67.943  0.00  0.00     0.163 HD
BRANCH   4   7
ATOM      7  C9  non d ame      -8.746   7.386  70.126  0.00  0.00     0.092 C 
ATOM      8  H11 non d ame      -9.436   6.822  70.753  0.00  0.00     0.088 H 
BRANCH   7   9
ATOM      9  N3  non d ame      -8.863   6.855  68.765  0.00  0.00    -0.346 N 
ATOM     10  C7  non d ame     -10.037   6.111  68.381  0.00  0.00     0.240 C 
ATOM     11  O3  non d ame     -10.897   5.930  69.154  0.00  0.00    -0.271 OA
ATOM     12  H10 non d ame      -8.129   7.002  68.087  0.00  0.00     0.163 HD
BRANCH  10  13
ATOM     13  C6  non d ame     -10.155   5.545  66.931  0.00  0.00     0.086 C 
ATOM     14  H6  non d ame     -11.179   5.548  66.559  0.00  0.00     0.086 H 
BRANCH  13  15
ATOM     15  N2  non d ame      -9.383   6.388  66.032  0.00  0.00    -0.343 N 
ATOM     16  C5  non d ame      -9.700   7.814  65.931  0.00  0.00     0.273 C 
ATOM     17  O2  non d ame     -10.579   8.273  66.574  0.00  0.00    -0.266 OA
ATOM     18  H5  non d ame      -8.636   5.987  65.484  0.00  0.00     0.163 HD
BRANCH  16  19
ATOM     19  C4  non d ame      -8.892   8.717  64.986  0.00  0.00     0.154 A 
ATOM     20  C1  non d ame      -7.486   8.658  64.726  0.00  0.00    -0.017 A 
ATOM     21  C2  non d ame      -7.245   9.692  63.794  0.00  0.00     0.077 A 
ATOM     22  H1  non d ame      -6.753   7.971  65.149  0.00  0.00     0.091 H 
ATOM     23  O1  non d ame      -8.386  10.270  63.553  0.00  0.00    -0.218 OA
ATOM     24  N1  non d ame      -9.362   9.719  64.237  0.00  0.00    -0.123 NA
BRANCH  21  25
ATOM     25  C3  non d ame      -5.899  10.061  63.184  0.00  0.00    -0.029 C 
ATOM     26  H2  non d ame      -5.234  10.430  63.966  0.00  0.00     0.036 H 
ATOM     27  H3  non d ame      -5.458   9.180  62.718  0.00  0.00     0.036 H 
ATOM     28  H4  non d ame      -6.041  10.838  62.432  0.00  0.00     0.036 H 
ENDBRANCH  21  25
ENDBRANCH  16  19
ENDBRANCH  13  15
BRANCH  13  29
ATOM     29  C8  non d ame      -9.627   4.134  66.895  0.00  0.00    -0.049 C 
ATOM     30  H7  non d ame      -9.644   3.765  65.870  0.00  0.00     0.030 H 
ATOM     31  H8  non d ame      -8.604   4.118  67.270  0.00  0.00     0.030 H 
ATOM     32  H9  non d ame     -10.253   3.497  67.520  0.00  0.00     0.030 H 
ENDBRANCH  13  29
ENDBRANCH  10  13
ENDBRANCH   7   9
BRANCH   7  33
ATOM     33  C11 non d ame      -7.272   7.249  70.609  0.00  0.00    -0.033 C 
ATOM     34  H12 non d ame      -6.930   8.240  70.906  0.00  0.00     0.042 H 
BRANCH  33  35
ATOM     35  C12 non d ame      -7.167   6.323  71.860  0.00  0.00    -0.071 C 
ATOM     36  H13 non d ame      -8.011   5.632  71.873  0.00  0.00     0.028 H 
ATOM     37  H14 non d ame      -6.237   5.758  71.817  0.00  0.00     0.028 H 
ATOM     38  H15 non d ame      -7.182   6.931  72.764  0.00  0.00     0.028 H 
ENDBRANCH  33  35
BRANCH  33  39
ATOM     39  C13 non d ame      -6.349   6.745  69.453  0.00  0.00    -0.071 C 
ATOM     40  H16 non d ame      -6.263   7.521  68.692  0.00  0.00     0.028 H 
ATOM     41  H17 non d ame      -5.361   6.515  69.851  0.00  0.00     0.028 H 
ATOM     42  H18 non d ame      -6.781   5.848  69.009  0.00  0.00     0.028 H 
ENDBRANCH  33  39
ENDBRANCH   7  33
ENDBRANCH   4   7
ENDBRANCH   1   3
BRANCH   1  43
ATOM     43  C15 non d ame     -11.289  11.051  69.269  0.00  0.00     0.240 C 
ATOM     44  O5  non d ame     -12.158  10.954  68.464  0.00  0.00    -0.271 OA
ATOM     45  N6  non d ame     -11.629  11.263  70.705  0.00  0.00    -0.355 N 
ATOM     46  H46 non d ame     -10.900  11.343  71.399  0.00  0.00     0.162 HD
BRANCH  45  47
ATOM     47  C20 non d ame     -13.046  11.359  71.116  0.00  0.00     0.013 C 
ATOM     48  H30 non d ame     -13.660  11.328  70.215  0.00  0.00     0.072 H 
BRANCH  47  49
ATOM     49  C21 non d ame     -13.268  12.663  71.847  0.00  0.00    -0.038 C 
ATOM     50  H31 non d ame     -14.291  12.961  71.614  0.00  0.00     0.036 H 
ATOM     51  H32 non d ame     -12.977  12.474  72.881  0.00  0.00     0.036 H 
BRANCH  49  52
ATOM     52  C22 non d ame     -12.355  13.799  71.337  0.00  0.00     0.018 C 
ATOM     53  H33 non d ame     -11.671  14.019  72.157  0.00  0.00     0.048 H 
ATOM     54  H34 non d ame     -11.964  13.456  70.379  0.00  0.00     0.048 H 
BRANCH  52  55
ATOM     55  C23 non d ame     -13.110  15.124  71.041  0.00  0.00     0.259 C 
ATOM     56  O7  non d ame     -14.001  15.480  71.742  0.00  0.00    -0.265 OA
BRANCH  55  57
ATOM     57  O8  non d ame     -12.733  15.904  69.913  0.00  0.00    -0.317 OA
BRANCH  57  58
ATOM     58  C29 non d ame     -11.346  15.808  69.576  0.00  0.00     0.052 C 
ATOM     59  H47 non d ame     -10.938  16.809  69.716  0.00  0.00     0.082 H 
ATOM     60  H48 non d ame     -10.957  14.975  70.161  0.00  0.00     0.082 H 
BRANCH  58  61
ATOM     61  C35 non d ame     -11.243  15.441  68.071  0.00  0.00    -0.034 A 
ATOM     62  C30 non d ame     -11.981  14.378  67.561  0.00  0.00    -0.075 A 
ATOM     63  C31 non d ame     -11.889  14.049  66.210  0.00  0.00    -0.082 A 
ATOM     64  H49 non d ame     -12.633  13.804  68.220  0.00  0.00     0.084 H 
ATOM     65  C32 non d ame     -11.051  14.785  65.367  0.00  0.00    -0.083 A 
ATOM     66  H50 non d ame     -12.471  13.217  65.812  0.00  0.00     0.083 H 
ATOM     67  C33 non d ame     -10.314  15.843  65.882  0.00  0.00    -0.082 A 
ATOM     68  H51 non d ame     -10.974  14.535  64.310  0.00  0.00     0.083 H 
ATOM     69  C34 non d ame     -10.405  16.177  67.231  0.00  0.00    -0.075 A 
ATOM     70  H52 non d ame      -9.660  16.415  65.223  0.00  0.00     0.083 H 
ATOM     71  H53 non d ame      -9.824  17.010  67.628  0.00  0.00     0.084 H 
ENDBRANCH  58  61
ENDBRANCH  57  58
ENDBRANCH  55  57
ENDBRANCH  52  55
ENDBRANCH  49  52
ENDBRANCH  47  49
BRANCH  47  72
ATOM     72  C24 non d ame     -13.397  10.192  72.037  0.00  0.00    -0.039 C 
ATOM     73  H35 non d ame     -12.548  10.093  72.715  0.00  0.00     0.036 H 
ATOM     74  H36 non d ame     -14.386  10.421  72.433  0.00  0.00     0.036 H 
BRANCH  72  75
ATOM     75  C25 non d ame     -13.519   8.814  71.228  0.00  0.00    -0.001 C 
ATOM     76  C26 non d ame     -14.982   8.122  71.519  0.00  0.00    -0.035 C 
ATOM     77  C27 non d ame     -14.788   6.835  71.895  0.00  0.00     0.085 C 
ATOM     78  H38 non d ame     -15.443   8.577  72.395  0.00  0.00     0.036 H 
ATOM     79  H39 non d ame     -15.545   8.034  70.590  0.00  0.00     0.036 H 
ATOM     80  N5  non d ame     -13.319   6.681  72.203  0.00  0.00    -0.049 N 
ATOM     81  H40 non d ame     -15.360   6.711  72.815  0.00  0.00     0.075 H 
ATOM     82  H41 non d ame     -15.032   6.236  71.018  0.00  0.00     0.075 H 
ATOM     83  C28 non d ame     -12.595   7.983  71.579  0.00  0.00     0.193 C 
ATOM     84  H42 non d ame     -13.232   6.716  73.209  0.00  0.00     0.280 HD
ATOM     85  H43 non d ame     -13.004   5.865  71.697  0.00  0.00     0.280 HD
ATOM     86  H44 non d ame     -12.030   7.910  70.650  0.00  0.00     0.129 H 
ATOM     87  H37 non d ame     -13.218   8.919  70.186  0.00  0.00     0.046 H 
BRANCH  83  88
ATOM     88  O6  non d ame     -11.694   8.549  72.532  0.00  0.00    -0.369 OA
ATOM     89  H45 non d ame     -12.085   8.506  73.407  0.00  0.00     0.212 HD
ENDBRANCH  83  88
ENDBRANCH  72  75
ENDBRANCH  47  72
ENDBRANCH  45  47
ENDBRANCH   1  43
BRANCH   1  90
ATOM     90  C16 non d ame      -9.656  11.493  67.409  0.00  0.00    -0.035 C 
ATOM     91  H21 non d ame      -9.462  10.623  66.781  0.00  0.00     0.037 H 
ATOM     92  H22 non d ame     -10.547  12.099  67.239  0.00  0.00     0.037 H 
BRANCH  90  93
ATOM     93  C17 non d ame      -8.433  12.448  67.230  0.00  0.00    -0.059 C 
ATOM     94  H23 non d ame      -8.622  13.067  66.354  0.00  0.00     0.038 H 
BRANCH  93  95
ATOM     95  C18 non d ame      -8.244  13.400  68.455  0.00  0.00    -0.073 C 
ATOM     96  H24 non d ame      -8.429  12.847  69.376  0.00  0.00     0.028 H 
ATOM     97  H25 non d ame      -7.225  13.786  68.461  0.00  0.00     0.028 H 
ATOM     98  H26 non d ame      -8.947  14.230  68.381  0.00  0.00     0.028 H 
ENDBRANCH  93  95
BRANCH  93  99
ATOM     99  C19 non d ame      -7.154  11.652  66.957  0.00  0.00    -0.073 C 
ATOM    100  H27 non d ame      -6.740  11.948  65.993  0.00  0.00     0.028 H 
ATOM    101  H28 non d ame      -6.426  11.854  67.743  0.00  0.00     0.028 H 
ATOM    102  H29 non d ame      -7.385  10.587  66.942  0.00  0.00     0.028 H 
ENDBRANCH  93  99
ENDBRANCH  90  93
ENDBRANCH   1  90
TORSDOF 26
ENDMDL
MODEL 11
REMARK VINA RESULT:      -6.6      3.053      9.487
REMARK  26 active torsions:
REMARK  status: ('A' for Active; 'I' for Inactive)
REMARK    1  A    between atoms: C2_2  and  C3_3 
REMARK    2  A    between atoms: C4_6  and  C5_7 
REMARK       I    between atoms: C5_7  and  N2_9 
REMARK    3  A    between atoms: N2_9  and  C6_10 
REMARK    4  A    between atoms: C6_10  and  C7_11 
REMARK    5  A    between atoms: C6_10  and  C8_13 
REMARK       I    between atoms: C7_11  and  N3_14 
REMARK    6  A    between atoms: N3_14  and  C9_15 
REMARK    7  A    between atoms: C9_15  and  C10_16 
REMARK    8  A    between atoms: C9_15  and  C11_18 
REMARK       I    between atoms: C10_16  and  N4_21 
REMARK    9  A    between atoms: C11_18  and  C12_19 
REMARK   10  A    between atoms: C11_18  and  C13_20 
REMARK   11  A    between atoms: N4_21  and  C14_22 
REMARK   12  A    between atoms: C14_22  and  C15_23 
REMARK   13  A    between atoms: C14_22  and  C16_25 
REMARK       I    between atoms: C15_23  and  N6_40 
REMARK   14  A    between atoms: C16_25  and  C17_26 
REMARK   15  A    between atoms: C17_26  and  C18_27 
REMARK   16  A    between atoms: C17_26  and  C19_28 
REMARK   17  A    between atoms: C20_29  and  C21_30 
REMARK   18  A    between atoms: C20_29  and  C24_33 
REMARK   19  A    between atoms: C20_29  and  N6_40 
REMARK   20  A    between atoms: C21_30  and  C22_31 
REMARK   21  A    between atoms: C22_31  and  C23_32 
REMARK   22  A    between atoms: C23_32  and  O8_43 
REMARK   23  A    between atoms: C24_33  and  C25_34 
REMARK   24  A    between atoms: C28_38  and  O6_39 
REMARK   25  A    between atoms: C29_42  and  O8_43 
REMARK   26  A    between atoms: C29_42  and  C35_49 
ROOT
ATOM      1  C14 non d ame      -8.384   6.299  63.815  0.00  0.00     0.089 C 
ATOM      2  H20 non d ame      -9.136   6.393  63.031  0.00  0.00     0.087 H 
ENDROOT
BRANCH   1   3
ATOM      3  N4  non d ame      -8.235   7.606  64.439  0.00  0.00    -0.346 N 
ATOM      4  C10 non d ame      -8.298   8.860  63.604  0.00  0.00     0.241 C 
ATOM      5  O4  non d ame      -8.466   8.792  62.431  0.00  0.00    -0.271 OA
ATOM      6  H19 non d ame      -8.091   7.641  65.438  0.00  0.00     0.163 HD
BRANCH   4   7
ATOM      7  C9  non d ame      -8.147  10.204  64.267  0.00  0.00     0.092 C 
ATOM      8  H11 non d ame      -7.725  10.910  63.552  0.00  0.00     0.088 H 
BRANCH   7   9
ATOM      9  N3  non d ame      -9.469  10.712  64.648  0.00  0.00    -0.346 N 
ATOM     10  C7  non d ame     -10.175  11.612  63.771  0.00  0.00     0.240 C 
ATOM     11  O3  non d ame      -9.695  11.940  62.755  0.00  0.00    -0.271 OA
ATOM     12  H10 non d ame      -9.895  10.439  65.522  0.00  0.00     0.163 HD
BRANCH  10  13
ATOM     13  C6  non d ame     -11.580  12.152  64.184  0.00  0.00     0.086 C 
ATOM     14  H6  non d ame     -11.869  11.847  65.189  0.00  0.00     0.086 H 
BRANCH  13  15
ATOM     15  N2  non d ame     -11.545  13.605  64.184  0.00  0.00    -0.343 N 
ATOM     16  C5  non d ame     -10.883  14.311  65.283  0.00  0.00     0.273 C 
ATOM     17  O2  non d ame     -10.384  13.701  66.163  0.00  0.00    -0.266 OA
ATOM     18  H5  non d ame     -11.977  14.118  63.428  0.00  0.00     0.163 HD
BRANCH  16  19
ATOM     19  C4  non d ame     -10.838  15.847  65.294  0.00  0.00     0.154 A 
ATOM     20  C1  non d ame     -10.240  16.687  66.287  0.00  0.00    -0.017 A 
ATOM     21  C2  non d ame     -10.470  18.005  65.834  0.00  0.00     0.077 A 
ATOM     22  H1  non d ame      -9.721  16.386  67.197  0.00  0.00     0.091 H 
ATOM     23  O1  non d ame     -11.121  17.921  64.711  0.00  0.00    -0.218 OA
ATOM     24  N1  non d ame     -11.348  16.672  64.376  0.00  0.00    -0.123 NA
BRANCH  21  25
ATOM     25  C3  non d ame     -10.033  19.287  66.531  0.00  0.00    -0.029 C 
ATOM     26  H2  non d ame      -9.128  19.668  66.058  0.00  0.00     0.036 H 
ATOM     27  H3  non d ame     -10.826  20.031  66.452  0.00  0.00     0.036 H 
ATOM     28  H4  non d ame      -9.834  19.079  67.583  0.00  0.00     0.036 H 
ENDBRANCH  21  25
ENDBRANCH  16  19
ENDBRANCH  13  15
BRANCH  13  29
ATOM     29  C8  non d ame     -12.617  11.660  63.207  0.00  0.00    -0.049 C 
ATOM     30  H7  non d ame     -12.822  10.605  63.395  0.00  0.00     0.030 H 
ATOM     31  H8  non d ame     -13.535  12.235  63.331  0.00  0.00     0.030 H 
ATOM     32  H9  non d ame     -12.246  11.782  62.191  0.00  0.00     0.030 H 
ENDBRANCH  13  29
ENDBRANCH  10  13
ENDBRANCH   7   9
BRANCH   7  33
ATOM     33  C11 non d ame      -7.263  10.058  65.540  0.00  0.00    -0.033 C 
ATOM     34  H12 non d ame      -7.338   9.024  65.875  0.00  0.00     0.042 H 
BRANCH  33  35
ATOM     35  C12 non d ame      -5.761  10.341  65.224  0.00  0.00    -0.071 C 
ATOM     36  H13 non d ame      -5.625  11.406  65.031  0.00  0.00     0.028 H 
ATOM     37  H14 non d ame      -5.149  10.046  66.076  0.00  0.00     0.028 H 
ATOM     38  H15 non d ame      -5.461   9.772  64.345  0.00  0.00     0.028 H 
ENDBRANCH  33  35
BRANCH  33  39
ATOM     39  C13 non d ame      -7.783  10.978  66.690  0.00  0.00    -0.071 C 
ATOM     40  H16 non d ame      -7.427  11.996  66.531  0.00  0.00     0.028 H 
ATOM     41  H17 non d ame      -8.874  10.972  66.696  0.00  0.00     0.028 H 
ATOM     42  H18 non d ame      -7.413  10.608  67.646  0.00  0.00     0.028 H 
ENDBRANCH  33  39
ENDBRANCH   7  33
ENDBRANCH   4   7
ENDBRANCH   1   3
BRANCH   1  43
ATOM     43  C15 non d ame      -8.802   5.273  64.908  0.00  0.00     0.240 C 
ATOM     44  O5  non d ame      -9.497   4.353  64.620  0.00  0.00    -0.271 OA
ATOM     45  N6  non d ame      -8.328   5.434  66.312  0.00  0.00    -0.355 N 
ATOM     46  H46 non d ame      -7.733   6.209  66.568  0.00  0.00     0.162 HD
BRANCH  45  47
ATOM     47  C20 non d ame      -8.732   4.450  67.339  0.00  0.00     0.013 C 
ATOM     48  H30 non d ame      -9.434   3.754  66.879  0.00  0.00     0.072 H 
BRANCH  47  49
ATOM     49  C21 non d ame      -9.399   5.172  68.489  0.00  0.00    -0.038 C 
ATOM     50  H31 non d ame      -9.720   4.392  69.180  0.00  0.00     0.036 H 
ATOM     51  H32 non d ame      -8.685   5.929  68.814  0.00  0.00     0.036 H 
BRANCH  49  52
ATOM     52  C22 non d ame     -10.674   5.929  68.061  0.00  0.00     0.018 C 
ATOM     53  H33 non d ame     -10.882   5.606  67.041  0.00  0.00     0.048 H 
ATOM     54  H34 non d ame     -11.405   5.746  68.850  0.00  0.00     0.048 H 
BRANCH  52  55
ATOM     55  C23 non d ame     -10.494   7.471  67.995  0.00  0.00     0.259 C 
ATOM     56  O7  non d ame     -10.290   8.010  66.955  0.00  0.00    -0.265 OA
BRANCH  55  57
ATOM     57  O8  non d ame     -10.563   8.233  69.194  0.00  0.00    -0.317 OA
BRANCH  57  58
ATOM     58  C29 non d ame     -10.409   9.642  68.998  0.00  0.00     0.052 C 
ATOM     59  H47 non d ame      -9.388   9.872  69.302  0.00  0.00     0.082 H 
ATOM     60  H48 non d ame     -10.729   9.834  67.974  0.00  0.00     0.082 H 
BRANCH  58  61
ATOM     61  C35 non d ame     -11.385  10.369  69.962  0.00  0.00    -0.034 A 
ATOM     62  C30 non d ame     -11.596  11.738  69.837  0.00  0.00    -0.075 A 
ATOM     63  C31 non d ame     -12.472  12.391  70.703  0.00  0.00    -0.082 A 
ATOM     64  H49 non d ame     -11.076  12.299  69.061  0.00  0.00     0.084 H 
ATOM     65  C32 non d ame     -13.136  11.670  71.698  0.00  0.00    -0.083 A 
ATOM     66  H50 non d ame     -12.637  13.464  70.601  0.00  0.00     0.083 H 
ATOM     67  C33 non d ame     -12.920  10.304  71.821  0.00  0.00    -0.082 A 
ATOM     68  H51 non d ame     -13.823  12.172  72.379  0.00  0.00     0.083 H 
ATOM     69  C34 non d ame     -12.047   9.647  70.957  0.00  0.00    -0.075 A 
ATOM     70  H52 non d ame     -13.438   9.744  72.600  0.00  0.00     0.083 H 
ATOM     71  H53 non d ame     -11.883   8.574  71.059  0.00  0.00     0.084 H 
ENDBRANCH  58  61
ENDBRANCH  57  58
ENDBRANCH  55  57
ENDBRANCH  52  55
ENDBRANCH  49  52
ENDBRANCH  47  49
BRANCH  47  72
ATOM     72  C24 non d ame      -7.503   3.702  67.851  0.00  0.00    -0.039 C 
ATOM     73  H35 non d ame      -7.891   2.820  68.361  0.00  0.00     0.036 H 
ATOM     74  H36 non d ame      -6.851   3.587  66.984  0.00  0.00     0.036 H 
BRANCH  72  75
ATOM     75  C25 non d ame      -6.697   4.560  68.937  0.00  0.00    -0.001 C 
ATOM     76  C26 non d ame      -5.178   4.874  68.389  0.00  0.00    -0.035 C 
ATOM     77  C27 non d ame      -4.287   4.514  69.343  0.00  0.00     0.085 C 
ATOM     78  H38 non d ame      -4.939   4.216  67.554  0.00  0.00     0.036 H 
ATOM     79  H39 non d ame      -5.030   5.950  68.295  0.00  0.00     0.036 H 
ATOM     80  N5  non d ame      -5.036   3.682  70.356  0.00  0.00    -0.049 N 
ATOM     81  H40 non d ame      -3.556   3.882  68.835  0.00  0.00     0.075 H 
ATOM     82  H41 non d ame      -3.970   5.444  69.812  0.00  0.00     0.075 H 
ATOM     83  C28 non d ame      -6.604   3.927  70.059  0.00  0.00     0.193 C 
ATOM     84  H42 non d ame      -4.817   2.718  70.153  0.00  0.00     0.280 HD
ATOM     85  H43 non d ame      -4.817   4.070  71.263  0.00  0.00     0.280 HD
ATOM     86  H44 non d ame      -7.195   4.577  70.703  0.00  0.00     0.129 H 
ATOM     87  H37 non d ame      -7.276   5.407  69.307  0.00  0.00     0.046 H 
BRANCH  83  88
ATOM     88  O6  non d ame      -7.301   2.680  70.032  0.00  0.00    -0.369 OA
ATOM     89  H45 non d ame      -7.698   2.553  69.167  0.00  0.00     0.212 HD
ENDBRANCH  83  88
ENDBRANCH  72  75
ENDBRANCH  47  72
ENDBRANCH  45  47
ENDBRANCH   1  43
BRANCH   1  90
ATOM     90  C16 non d ame      -7.054   5.885  63.207  0.00  0.00    -0.035 C 
ATOM     91  H21 non d ame      -7.056   4.795  63.223  0.00  0.00     0.037 H 
ATOM     92  H22 non d ame      -6.994   6.415  62.257  0.00  0.00     0.037 H 
BRANCH  90  93
ATOM     93  C17 non d ame      -5.815   6.337  64.044  0.00  0.00    -0.059 C 
ATOM     94  H23 non d ame      -6.178   6.948  64.870  0.00  0.00     0.038 H 
BRANCH  93  95
ATOM     95  C18 non d ame      -5.041   5.123  64.653  0.00  0.00    -0.073 C 
ATOM     96  H24 non d ame      -4.175   4.897  64.032  0.00  0.00     0.028 H 
ATOM     97  H25 non d ame      -4.711   5.373  65.661  0.00  0.00     0.028 H 
ATOM     98  H26 non d ame      -5.699   4.255  64.691  0.00  0.00     0.028 H 
ENDBRANCH  93  95
BRANCH  93  99
ATOM     99  C19 non d ame      -4.880   7.214  63.207  0.00  0.00    -0.073 C 
ATOM    100  H27 non d ame      -4.522   8.046  63.813  0.00  0.00     0.028 H 
ATOM    101  H28 non d ame      -4.031   6.619  62.867  0.00  0.00     0.028 H 
ATOM    102  H29 non d ame      -5.421   7.600  62.343  0.00  0.00     0.028 H 
ENDBRANCH  93  99
ENDBRANCH  90  93
ENDBRANCH   1  90
TORSDOF 26
ENDMDL
MODEL 12
REMARK VINA RESULT:      -6.6      2.889      9.998
REMARK  26 active torsions:
REMARK  status: ('A' for Active; 'I' for Inactive)
REMARK    1  A    between atoms: C2_2  and  C3_3 
REMARK    2  A    between atoms: C4_6  and  C5_7 
REMARK       I    between atoms: C5_7  and  N2_9 
REMARK    3  A    between atoms: N2_9  and  C6_10 
REMARK    4  A    between atoms: C6_10  and  C7_11 
REMARK    5  A    between atoms: C6_10  and  C8_13 
REMARK       I    between atoms: C7_11  and  N3_14 
REMARK    6  A    between atoms: N3_14  and  C9_15 
REMARK    7  A    between atoms: C9_15  and  C10_16 
REMARK    8  A    between atoms: C9_15  and  C11_18 
REMARK       I    between atoms: C10_16  and  N4_21 
REMARK    9  A    between atoms: C11_18  and  C12_19 
REMARK   10  A    between atoms: C11_18  and  C13_20 
REMARK   11  A    between atoms: N4_21  and  C14_22 
REMARK   12  A    between atoms: C14_22  and  C15_23 
REMARK   13  A    between atoms: C14_22  and  C16_25 
REMARK       I    between atoms: C15_23  and  N6_40 
REMARK   14  A    between atoms: C16_25  and  C17_26 
REMARK   15  A    between atoms: C17_26  and  C18_27 
REMARK   16  A    between atoms: C17_26  and  C19_28 
REMARK   17  A    between atoms: C20_29  and  C21_30 
REMARK   18  A    between atoms: C20_29  and  C24_33 
REMARK   19  A    between atoms: C20_29  and  N6_40 
REMARK   20  A    between atoms: C21_30  and  C22_31 
REMARK   21  A    between atoms: C22_31  and  C23_32 
REMARK   22  A    between atoms: C23_32  and  O8_43 
REMARK   23  A    between atoms: C24_33  and  C25_34 
REMARK   24  A    between atoms: C28_38  and  O6_39 
REMARK   25  A    between atoms: C29_42  and  O8_43 
REMARK   26  A    between atoms: C29_42  and  C35_49 
ROOT
ATOM      1  C14 non d ame      -7.900   6.235  62.951  0.00  0.00     0.089 C 
ATOM      2  H20 non d ame      -8.225   6.446  61.932  0.00  0.00     0.087 H 
ENDROOT
BRANCH   1   3
ATOM      3  N4  non d ame      -7.773   7.509  63.643  0.00  0.00    -0.346 N 
ATOM      4  C10 non d ame      -7.776   8.802  62.866  0.00  0.00     0.241 C 
ATOM      5  O4  non d ame      -7.880   8.791  61.683  0.00  0.00    -0.271 OA
ATOM      6  H19 non d ame      -7.683   7.497  64.649  0.00  0.00     0.163 HD
BRANCH   4   7
ATOM      7  C9  non d ame      -7.649  10.111  63.598  0.00  0.00     0.092 C 
ATOM      8  H11 non d ame      -7.472  10.910  62.878  0.00  0.00     0.088 H 
BRANCH   7   9
ATOM      9  N3  non d ame      -8.912  10.415  64.279  0.00  0.00    -0.346 N 
ATOM     10  C7  non d ame      -9.967  11.096  63.570  0.00  0.00     0.240 C 
ATOM     11  O3  non d ame      -9.816  11.408  62.452  0.00  0.00    -0.271 OA
ATOM     12  H10 non d ame      -9.055  10.154  65.244  0.00  0.00     0.163 HD
BRANCH  10  13
ATOM     13  C6  non d ame     -11.307  11.420  64.301  0.00  0.00     0.086 C 
ATOM     14  H6  non d ame     -11.710  10.563  64.840  0.00  0.00     0.086 H 
BRANCH  13  15
ATOM     15  N2  non d ame     -11.066  12.458  65.289  0.00  0.00    -0.343 N 
ATOM     16  C5  non d ame     -11.256  12.159  66.710  0.00  0.00     0.273 C 
ATOM     17  O2  non d ame     -11.605  11.082  67.048  0.00  0.00    -0.266 OA
ATOM     18  H5  non d ame     -10.771  13.377  64.991  0.00  0.00     0.163 HD
BRANCH  16  19
ATOM     19  C4  non d ame     -11.003  13.247  67.766  0.00  0.00     0.154 A 
ATOM     20  C1  non d ame     -11.985  14.022  68.461  0.00  0.00    -0.017 A 
ATOM     21  C2  non d ame     -11.243  14.871  69.312  0.00  0.00     0.077 A 
ATOM     22  H1  non d ame     -13.070  13.976  68.363  0.00  0.00     0.091 H 
ATOM     23  O1  non d ame      -9.984  14.605  69.121  0.00  0.00    -0.218 OA
ATOM     24  N1  non d ame      -9.819  13.662  68.223  0.00  0.00    -0.123 NA
BRANCH  21  25
ATOM     25  C3  non d ame     -11.813  15.904  70.275  0.00  0.00    -0.029 C 
ATOM     26  H2  non d ame     -12.664  15.477  70.805  0.00  0.00     0.036 H 
ATOM     27  H3  non d ame     -11.045  16.193  70.993  0.00  0.00     0.036 H 
ATOM     28  H4  non d ame     -12.137  16.782  69.716  0.00  0.00     0.036 H 
ENDBRANCH  21  25
ENDBRANCH  16  19
ENDBRANCH  13  15
BRANCH  13  29
ATOM     29  C8  non d ame     -12.329  11.889  63.297  0.00  0.00    -0.049 C 
ATOM     30  H7  non d ame     -12.442  11.138  62.515  0.00  0.00     0.030 H 
ATOM     31  H8  non d ame     -13.286  12.040  63.797  0.00  0.00     0.030 H 
ATOM     32  H9  non d ame     -11.998  12.827  62.853  0.00  0.00     0.030 H 
ENDBRANCH  13  29
ENDBRANCH  10  13
ENDBRANCH   7   9
BRANCH   7  33
ATOM     33  C11 non d ame      -6.507  10.008  64.651  0.00  0.00    -0.033 C 
ATOM     34  H12 non d ame      -6.319   8.949  64.829  0.00  0.00     0.042 H 
BRANCH  33  35
ATOM     35  C12 non d ame      -5.183  10.636  64.116  0.00  0.00    -0.071 C 
ATOM     36  H13 non d ame      -4.493   9.841  63.831  0.00  0.00     0.028 H 
ATOM     37  H14 non d ame      -5.400  11.257  63.247  0.00  0.00     0.028 H 
ATOM     38  H15 non d ame      -4.730  11.248  64.896  0.00  0.00     0.028 H 
ENDBRANCH  33  35
BRANCH  33  39
ATOM     39  C13 non d ame      -6.935  10.657  66.006  0.00  0.00    -0.071 C 
ATOM     40  H16 non d ame      -7.647  11.460  65.816  0.00  0.00     0.028 H 
ATOM     41  H17 non d ame      -7.401   9.902  66.640  0.00  0.00     0.028 H 
ATOM     42  H18 non d ame      -6.056  11.061  66.509  0.00  0.00     0.028 H 
ENDBRANCH  33  39
ENDBRANCH   7  33
ENDBRANCH   4   7
ENDBRANCH   1   3
BRANCH   1  43
ATOM     43  C15 non d ame      -8.922   5.352  63.722  0.00  0.00     0.240 C 
ATOM     44  O5  non d ame      -9.588   4.565  63.131  0.00  0.00    -0.271 OA
ATOM     45  N6  non d ame      -9.065   5.483  65.201  0.00  0.00    -0.355 N 
ATOM     46  H46 non d ame      -8.501   6.144  65.714  0.00  0.00     0.162 HD
BRANCH  45  47
ATOM     47  C20 non d ame     -10.040   4.635  65.920  0.00  0.00     0.013 C 
ATOM     48  H30 non d ame     -10.906   4.497  65.272  0.00  0.00     0.072 H 
BRANCH  47  49
ATOM     49  C21 non d ame     -10.457   5.327  67.198  0.00  0.00    -0.038 C 
ATOM     50  H31 non d ame     -11.274   4.730  67.604  0.00  0.00     0.036 H 
ATOM     51  H32 non d ame      -9.540   5.459  67.773  0.00  0.00     0.036 H 
BRANCH  49  52
ATOM     52  C22 non d ame     -11.027   6.741  66.956  0.00  0.00     0.018 C 
ATOM     53  H33 non d ame     -11.311   6.769  65.903  0.00  0.00     0.048 H 
ATOM     54  H34 non d ame     -11.782   6.892  67.728  0.00  0.00     0.048 H 
BRANCH  52  55
ATOM     55  C23 non d ame      -9.986   7.878  67.148  0.00  0.00     0.259 C 
ATOM     56  O7  non d ame      -9.572   8.483  66.212  0.00  0.00    -0.265 OA
BRANCH  55  57
ATOM     57  O8  non d ame      -9.520   8.182  68.457  0.00  0.00    -0.317 OA
BRANCH  57  58
ATOM     58  C29 non d ame     -10.481   8.853  69.276  0.00  0.00     0.052 C 
ATOM     59  H47 non d ame     -10.049   9.829  69.499  0.00  0.00     0.082 H 
ATOM     60  H48 non d ame     -11.426   8.786  68.738  0.00  0.00     0.082 H 
BRANCH  58  61
ATOM     61  C35 non d ame     -10.616   8.061  70.604  0.00  0.00    -0.034 A 
ATOM     62  C30 non d ame     -11.346   6.877  70.638  0.00  0.00    -0.075 A 
ATOM     63  C31 non d ame     -11.467   6.165  71.830  0.00  0.00    -0.082 A 
ATOM     64  H49 non d ame     -11.822   6.507  69.730  0.00  0.00     0.084 H 
ATOM     65  C32 non d ame     -10.857   6.643  72.993  0.00  0.00    -0.083 A 
ATOM     66  H50 non d ame     -12.037   5.237  71.853  0.00  0.00     0.083 H 
ATOM     67  C33 non d ame     -10.132   7.827  72.955  0.00  0.00    -0.082 A 
ATOM     68  H51 non d ame     -10.946   6.093  73.930  0.00  0.00     0.083 H 
ATOM     69  C34 non d ame     -10.007   8.540  71.765  0.00  0.00    -0.075 A 
ATOM     70  H52 non d ame      -9.660   8.198  73.865  0.00  0.00     0.083 H 
ATOM     71  H53 non d ame      -9.435   9.469  71.743  0.00  0.00     0.084 H 
ENDBRANCH  58  61
ENDBRANCH  57  58
ENDBRANCH  55  57
ENDBRANCH  52  55
ENDBRANCH  49  52
ENDBRANCH  47  49
BRANCH  47  72
ATOM     72  C24 non d ame      -9.406   3.286  66.253  0.00  0.00    -0.039 C 
ATOM     73  H35 non d ame     -10.240   2.591  66.355  0.00  0.00     0.036 H 
ATOM     74  H36 non d ame      -8.651   3.123  65.484  0.00  0.00     0.036 H 
BRANCH  72  75
ATOM     75  C25 non d ame      -8.645   3.322  67.663  0.00  0.00    -0.001 C 
ATOM     76  C26 non d ame      -7.028   3.494  67.422  0.00  0.00    -0.035 C 
ATOM     77  C27 non d ame      -6.377   2.533  68.120  0.00  0.00     0.085 C 
ATOM     78  H38 non d ame      -6.778   3.269  66.385  0.00  0.00     0.036 H 
ATOM     79  H39 non d ame      -6.678   4.421  67.878  0.00  0.00     0.036 H 
ATOM     80  N5  non d ame      -7.413   1.523  68.551  0.00  0.00    -0.049 N 
ATOM     81  H40 non d ame      -5.698   2.063  67.407  0.00  0.00     0.075 H 
ATOM     82  H41 non d ame      -5.980   3.033  69.003  0.00  0.00     0.075 H 
ATOM     83  C28 non d ame      -8.846   2.234  68.330  0.00  0.00     0.193 C 
ATOM     84  H42 non d ame      -7.338   0.745  67.911  0.00  0.00     0.280 HD
ATOM     85  H43 non d ame      -7.277   1.378  69.541  0.00  0.00     0.280 HD
ATOM     86  H44 non d ame      -9.408   2.623  69.179  0.00  0.00     0.129 H 
ATOM     87  H37 non d ame      -9.117   4.004  68.370  0.00  0.00     0.046 H 
BRANCH  83  88
ATOM     88  O6  non d ame      -9.738   1.345  67.655  0.00  0.00    -0.369 OA
ATOM     89  H45 non d ame      -9.269   0.896  66.949  0.00  0.00     0.212 HD
ENDBRANCH  83  88
ENDBRANCH  72  75
ENDBRANCH  47  72
ENDBRANCH  45  47
ENDBRANCH   1  43
BRANCH   1  90
ATOM     90  C16 non d ame      -6.545   5.546  62.927  0.00  0.00    -0.035 C 
ATOM     91  H21 non d ame      -6.736   4.522  63.249  0.00  0.00     0.037 H 
ATOM     92  H22 non d ame      -6.141   5.738  61.933  0.00  0.00     0.037 H 
BRANCH  90  93
ATOM     93  C17 non d ame      -5.520   6.144  63.943  0.00  0.00    -0.059 C 
ATOM     94  H23 non d ame      -6.072   6.784  64.631  0.00  0.00     0.038 H 
BRANCH  93  95
ATOM     95  C18 non d ame      -4.812   5.036  64.787  0.00  0.00    -0.073 C 
ATOM     96  H24 non d ame      -4.031   4.568  64.189  0.00  0.00     0.028 H 
ATOM     97  H25 non d ame      -4.370   5.484  65.677  0.00  0.00     0.028 H 
ATOM     98  H26 non d ame      -5.543   4.283  65.084  0.00  0.00     0.028 H 
ENDBRANCH  93  95
BRANCH  93  99
ATOM     99  C19 non d ame      -4.492   7.024  63.228  0.00  0.00    -0.073 C 
ATOM    100  H27 non d ame      -4.894   7.347  62.268  0.00  0.00     0.028 H 
ATOM    101  H28 non d ame      -4.272   7.898  63.843  0.00  0.00     0.028 H 
ATOM    102  H29 non d ame      -3.576   6.455  63.066  0.00  0.00     0.028 H 
ENDBRANCH  93  99
ENDBRANCH  90  93
ENDBRANCH   1  90
TORSDOF 26
ENDMDL
MODEL 13
REMARK VINA RESULT:      -6.6      3.003      7.048
REMARK  26 active torsions:
REMARK  status: ('A' for Active; 'I' for Inactive)
REMARK    1  A    between atoms: C2_2  and  C3_3 
REMARK    2  A    between atoms: C4_6  and  C5_7 
REMARK       I    between atoms: C5_7  and  N2_9 
REMARK    3  A    between atoms: N2_9  and  C6_10 
REMARK    4  A    between atoms: C6_10  and  C7_11 
REMARK    5  A    between atoms: C6_10  and  C8_13 
REMARK       I    between atoms: C7_11  and  N3_14 
REMARK    6  A    between atoms: N3_14  and  C9_15 
REMARK    7  A    between atoms: C9_15  and  C10_16 
REMARK    8  A    between atoms: C9_15  and  C11_18 
REMARK       I    between atoms: C10_16  and  N4_21 
REMARK    9  A    between atoms: C11_18  and  C12_19 
REMARK   10  A    between atoms: C11_18  and  C13_20 
REMARK   11  A    between atoms: N4_21  and  C14_22 
REMARK   12  A    between atoms: C14_22  and  C15_23 
REMARK   13  A    between atoms: C14_22  and  C16_25 
REMARK       I    between atoms: C15_23  and  N6_40 
REMARK   14  A    between atoms: C16_25  and  C17_26 
REMARK   15  A    between atoms: C17_26  and  C18_27 
REMARK   16  A    between atoms: C17_26  and  C19_28 
REMARK   17  A    between atoms: C20_29  and  C21_30 
REMARK   18  A    between atoms: C20_29  and  C24_33 
REMARK   19  A    between atoms: C20_29  and  N6_40 
REMARK   20  A    between atoms: C21_30  and  C22_31 
REMARK   21  A    between atoms: C22_31  and  C23_32 
REMARK   22  A    between atoms: C23_32  and  O8_43 
REMARK   23  A    between atoms: C24_33  and  C25_34 
REMARK   24  A    between atoms: C28_38  and  O6_39 
REMARK   25  A    between atoms: C29_42  and  O8_43 
REMARK   26  A    between atoms: C29_42  and  C35_49 
ROOT
ATOM      1  C14 non d ame      -7.655   7.925  64.653  0.00  0.00     0.089 C 
ATOM      2  H20 non d ame      -6.585   7.717  64.662  0.00  0.00     0.087 H 
ENDROOT
BRANCH   1   3
ATOM      3  N4  non d ame      -8.270   7.102  65.684  0.00  0.00    -0.346 N 
ATOM      4  C10 non d ame      -7.420   6.447  66.743  0.00  0.00     0.241 C 
ATOM      5  O4  non d ame      -6.242   6.595  66.744  0.00  0.00    -0.271 OA
ATOM      6  H19 non d ame      -9.273   6.987  65.664  0.00  0.00     0.163 HD
BRANCH   4   7
ATOM      7  C9  non d ame      -8.073   5.604  67.806  0.00  0.00     0.092 C 
ATOM      8  H11 non d ame      -7.389   4.810  68.105  0.00  0.00     0.088 H 
BRANCH   7   9
ATOM      9  N3  non d ame      -8.329   6.425  68.993  0.00  0.00    -0.346 N 
ATOM     10  C7  non d ame      -7.531   6.243  70.181  0.00  0.00     0.240 C 
ATOM     11  O3  non d ame      -6.679   5.440  70.199  0.00  0.00    -0.271 OA
ATOM     12  H10 non d ame      -9.061   7.120  68.993  0.00  0.00     0.163 HD
BRANCH  10  13
ATOM     13  C6  non d ame      -7.810   7.118  71.442  0.00  0.00     0.086 C 
ATOM     14  H6  non d ame      -7.371   8.113  71.371  0.00  0.00     0.086 H 
BRANCH  13  15
ATOM     15  N2  non d ame      -9.245   7.306  71.577  0.00  0.00    -0.343 N 
ATOM     16  C5  non d ame      -9.830   8.619  71.297  0.00  0.00     0.273 C 
ATOM     17  O2  non d ame      -9.138   9.518  70.967  0.00  0.00    -0.266 OA
ATOM     18  H5  non d ame      -9.829   6.532  71.863  0.00  0.00     0.163 HD
BRANCH  16  19
ATOM     19  C4  non d ame     -11.346   8.831  71.434  0.00  0.00     0.154 A 
ATOM     20  C1  non d ame     -12.352   7.822  71.565  0.00  0.00    -0.017 A 
ATOM     21  C2  non d ame     -13.570   8.533  71.657  0.00  0.00     0.077 A 
ATOM     22  H1  non d ame     -12.220   6.740  71.589  0.00  0.00     0.091 H 
ATOM     23  O1  non d ame     -13.285   9.800  71.588  0.00  0.00    -0.218 OA
ATOM     24  N1  non d ame     -11.994  10.000  71.458  0.00  0.00    -0.123 NA
BRANCH  21  25
ATOM     25  C3  non d ame     -14.958   7.926  71.810  0.00  0.00    -0.029 C 
ATOM     26  H2  non d ame     -15.502   8.454  72.595  0.00  0.00     0.036 H 
ATOM     27  H3  non d ame     -15.500   8.017  70.869  0.00  0.00     0.036 H 
ATOM     28  H4  non d ame     -14.868   6.873  72.076  0.00  0.00     0.036 H 
ENDBRANCH  21  25
ENDBRANCH  16  19
ENDBRANCH  13  15
BRANCH  13  29
ATOM     29  C8  non d ame      -7.262   6.429  72.666  0.00  0.00    -0.049 C 
ATOM     30  H7  non d ame      -7.439   5.357  72.590  0.00  0.00     0.030 H 
ATOM     31  H8  non d ame      -6.191   6.617  72.739  0.00  0.00     0.030 H 
ATOM     32  H9  non d ame      -7.760   6.817  73.554  0.00  0.00     0.030 H 
ENDBRANCH  13  29
ENDBRANCH  10  13
ENDBRANCH   7   9
BRANCH   7  33
ATOM     33  C11 non d ame      -9.421   5.042  67.267  0.00  0.00    -0.033 C 
ATOM     34  H12 non d ame      -9.584   5.471  66.278  0.00  0.00     0.042 H 
BRANCH  33  35
ATOM     35  C12 non d ame      -9.366   3.491  67.102  0.00  0.00    -0.071 C 
ATOM     36  H13 non d ame      -9.559   3.017  68.064  0.00  0.00     0.028 H 
ATOM     37  H14 non d ame     -10.122   3.176  66.383  0.00  0.00     0.028 H 
ATOM     38  H15 non d ame      -8.379   3.200  66.744  0.00  0.00     0.028 H 
ENDBRANCH  33  35
BRANCH  33  39
ATOM     39  C13 non d ame     -10.613   5.472  68.182  0.00  0.00    -0.071 C 
ATOM     40  H16 non d ame     -11.065   4.588  68.629  0.00  0.00     0.028 H 
ATOM     41  H17 non d ame     -10.246   6.131  68.969  0.00  0.00     0.028 H 
ATOM     42  H18 non d ame     -11.357   5.999  67.584  0.00  0.00     0.028 H 
ENDBRANCH  33  39
ENDBRANCH   7  33
ENDBRANCH   4   7
ENDBRANCH   1   3
BRANCH   1  43
ATOM     43  C15 non d ame      -7.966   9.418  64.959  0.00  0.00     0.240 C 
ATOM     44  O5  non d ame      -7.577  10.266  64.223  0.00  0.00    -0.271 OA
ATOM     45  N6  non d ame      -8.758   9.790  66.166  0.00  0.00    -0.355 N 
ATOM     46  H46 non d ame      -9.098   9.078  66.796  0.00  0.00     0.162 HD
BRANCH  45  47
ATOM     47  C20 non d ame      -9.047  11.213  66.443  0.00  0.00     0.013 C 
ATOM     48  H30 non d ame      -8.298  11.814  65.927  0.00  0.00     0.072 H 
BRANCH  47  49
ATOM     49  C21 non d ame      -8.969  11.459  67.933  0.00  0.00    -0.038 C 
ATOM     50  H31 non d ame      -9.126  10.486  68.400  0.00  0.00     0.036 H 
ATOM     51  H32 non d ame      -8.034  11.996  68.094  0.00  0.00     0.036 H 
BRANCH  49  52
ATOM     52  C22 non d ame     -10.096  12.379  68.449  0.00  0.00     0.018 C 
ATOM     53  H33 non d ame     -10.874  12.350  67.685  0.00  0.00     0.048 H 
ATOM     54  H34 non d ame     -10.314  12.040  69.462  0.00  0.00     0.048 H 
BRANCH  52  55
ATOM     55  C23 non d ame      -9.678  13.870  68.577  0.00  0.00     0.259 C 
ATOM     56  O7  non d ame      -8.532  14.169  68.668  0.00  0.00    -0.265 OA
BRANCH  55  57
ATOM     57  O8  non d ame     -10.683  14.876  68.598  0.00  0.00    -0.317 OA
BRANCH  57  58
ATOM     58  C29 non d ame     -11.989  14.389  68.922  0.00  0.00     0.052 C 
ATOM     59  H47 non d ame     -12.683  14.994  68.339  0.00  0.00     0.082 H 
ATOM     60  H48 non d ame     -11.947  13.310  68.771  0.00  0.00     0.082 H 
BRANCH  58  61
ATOM     61  C35 non d ame     -12.242  14.664  70.428  0.00  0.00    -0.034 A 
ATOM     62  C30 non d ame     -11.799  15.850  71.004  0.00  0.00    -0.075 A 
ATOM     63  C31 non d ame     -12.027  16.097  72.357  0.00  0.00    -0.082 A 
ATOM     64  H49 non d ame     -11.275  16.586  70.395  0.00  0.00     0.084 H 
ATOM     65  C32 non d ame     -12.698  15.150  73.136  0.00  0.00    -0.083 A 
ATOM     66  H50 non d ame     -11.681  17.029  72.805  0.00  0.00     0.083 H 
ATOM     67  C33 non d ame     -13.135  13.966  72.557  0.00  0.00    -0.082 A 
ATOM     68  H51 non d ame     -12.881  15.336  74.194  0.00  0.00     0.083 H 
ATOM     69  C34 non d ame     -12.912  13.716  71.205  0.00  0.00    -0.075 A 
ATOM     70  H52 non d ame     -13.657  13.229  73.168  0.00  0.00     0.083 H 
ATOM     71  H53 non d ame     -13.259  12.785  70.758  0.00  0.00     0.084 H 
ENDBRANCH  58  61
ENDBRANCH  57  58
ENDBRANCH  55  57
ENDBRANCH  52  55
ENDBRANCH  49  52
ENDBRANCH  47  49
BRANCH  47  72
ATOM     72  C24 non d ame     -10.446  11.564  65.941  0.00  0.00    -0.039 C 
ATOM     73  H35 non d ame     -10.833  10.646  65.497  0.00  0.00     0.036 H 
ATOM     74  H36 non d ame     -10.956  12.013  66.793  0.00  0.00     0.036 H 
BRANCH  72  75
ATOM     75  C25 non d ame     -10.400  12.668  64.781  0.00  0.00    -0.001 C 
ATOM     76  C26 non d ame     -11.524  13.833  65.073  0.00  0.00    -0.035 C 
ATOM     77  C27 non d ame     -12.275  14.002  63.959  0.00  0.00     0.085 C 
ATOM     78  H38 non d ame     -12.242  13.482  65.813  0.00  0.00     0.036 H 
ATOM     79  H39 non d ame     -11.036  14.799  65.201  0.00  0.00     0.036 H 
ATOM     80  N5  non d ame     -11.982  12.836  63.046  0.00  0.00    -0.049 N 
ATOM     81  H40 non d ame     -13.312  13.940  64.293  0.00  0.00     0.075 H 
ATOM     82  H41 non d ame     -11.907  14.917  63.495  0.00  0.00     0.075 H 
ATOM     83  C28 non d ame     -10.644  12.144  63.627  0.00  0.00     0.193 C 
ATOM     84  H42 non d ame     -12.751  12.190  63.152  0.00  0.00     0.280 HD
ATOM     85  H43 non d ame     -11.773  13.228  62.139  0.00  0.00     0.280 HD
ATOM     86  H44 non d ame      -9.684  12.295  63.134  0.00  0.00     0.129 H 
ATOM     87  H37 non d ame      -9.385  13.001  64.568  0.00  0.00     0.046 H 
BRANCH  83  88
ATOM     88  O6  non d ame     -10.816  10.727  63.703  0.00  0.00    -0.369 OA
ATOM     89  H45 non d ame      -9.959  10.298  63.650  0.00  0.00     0.212 HD
ENDBRANCH  83  88
ENDBRANCH  72  75
ENDBRANCH  47  72
ENDBRANCH  45  47
ENDBRANCH   1  43
BRANCH   1  90
ATOM     90  C16 non d ame      -8.241   7.547  63.302  0.00  0.00    -0.035 C 
ATOM     91  H21 non d ame      -9.287   7.306  63.498  0.00  0.00     0.037 H 
ATOM     92  H22 non d ame      -7.988   8.373  62.636  0.00  0.00     0.037 H 
BRANCH  90  93
ATOM     93  C17 non d ame      -7.603   6.266  62.678  0.00  0.00    -0.059 C 
ATOM     94  H23 non d ame      -7.511   6.431  61.604  0.00  0.00     0.038 H 
BRANCH  93  95
ATOM     95  C18 non d ame      -6.173   5.985  63.241  0.00  0.00    -0.073 C 
ATOM     96  H24 non d ame      -6.251   5.633  64.270  0.00  0.00     0.028 H 
ATOM     97  H25 non d ame      -5.686   5.223  62.632  0.00  0.00     0.028 H 
ATOM     98  H26 non d ame      -5.586   6.903  63.214  0.00  0.00     0.028 H 
ENDBRANCH  93  95
BRANCH  93  99
ATOM     99  C19 non d ame      -8.514   5.051  62.873  0.00  0.00    -0.073 C 
ATOM    100  H27 non d ame      -9.072   4.863  61.956  0.00  0.00     0.028 H 
ATOM    101  H28 non d ame      -7.907   4.177  63.114  0.00  0.00     0.028 H 
ATOM    102  H29 non d ame      -9.209   5.245  63.689  0.00  0.00     0.028 H 
ENDBRANCH  93  99
ENDBRANCH  90  93
ENDBRANCH   1  90
TORSDOF 26
ENDMDL
MODEL 14
REMARK VINA RESULT:      -6.6      3.800      6.490
REMARK  26 active torsions:
REMARK  status: ('A' for Active; 'I' for Inactive)
REMARK    1  A    between atoms: C2_2  and  C3_3 
REMARK    2  A    between atoms: C4_6  and  C5_7 
REMARK       I    between atoms: C5_7  and  N2_9 
REMARK    3  A    between atoms: N2_9  and  C6_10 
REMARK    4  A    between atoms: C6_10  and  C7_11 
REMARK    5  A    between atoms: C6_10  and  C8_13 
REMARK       I    between atoms: C7_11  and  N3_14 
REMARK    6  A    between atoms: N3_14  and  C9_15 
REMARK    7  A    between atoms: C9_15  and  C10_16 
REMARK    8  A    between atoms: C9_15  and  C11_18 
REMARK       I    between atoms: C10_16  and  N4_21 
REMARK    9  A    between atoms: C11_18  and  C12_19 
REMARK   10  A    between atoms: C11_18  and  C13_20 
REMARK   11  A    between atoms: N4_21  and  C14_22 
REMARK   12  A    between atoms: C14_22  and  C15_23 
REMARK   13  A    between atoms: C14_22  and  C16_25 
REMARK       I    between atoms: C15_23  and  N6_40 
REMARK   14  A    between atoms: C16_25  and  C17_26 
REMARK   15  A    between atoms: C17_26  and  C18_27 
REMARK   16  A    between atoms: C17_26  and  C19_28 
REMARK   17  A    between atoms: C20_29  and  C21_30 
REMARK   18  A    between atoms: C20_29  and  C24_33 
REMARK   19  A    between atoms: C20_29  and  N6_40 
REMARK   20  A    between atoms: C21_30  and  C22_31 
REMARK   21  A    between atoms: C22_31  and  C23_32 
REMARK   22  A    between atoms: C23_32  and  O8_43 
REMARK   23  A    between atoms: C24_33  and  C25_34 
REMARK   24  A    between atoms: C28_38  and  O6_39 
REMARK   25  A    between atoms: C29_42  and  O8_43 
REMARK   26  A    between atoms: C29_42  and  C35_49 
ROOT
ATOM      1  C14 non d ame      -9.852  12.869  66.041  0.00  0.00     0.089 C 
ATOM      2  H20 non d ame      -9.297  13.531  65.375  0.00  0.00     0.087 H 
ENDROOT
BRANCH   1   3
ATOM      3  N4  non d ame      -8.883  12.168  66.869  0.00  0.00    -0.346 N 
ATOM      4  C10 non d ame      -7.616  12.858  67.309  0.00  0.00     0.241 C 
ATOM      5  O4  non d ame      -7.397  13.977  66.981  0.00  0.00    -0.271 OA
ATOM      6  H19 non d ame      -9.087  11.215  67.136  0.00  0.00     0.163 HD
BRANCH   4   7
ATOM      7  C9  non d ame      -6.627  12.119  68.172  0.00  0.00     0.092 C 
ATOM      8  H11 non d ame      -6.416  12.711  69.063  0.00  0.00     0.088 H 
BRANCH   7   9
ATOM      9  N3  non d ame      -7.218  10.855  68.620  0.00  0.00    -0.346 N 
ATOM     10  C7  non d ame      -6.999  10.397  69.970  0.00  0.00     0.240 C 
ATOM     11  O3  non d ame      -6.349  11.032  70.708  0.00  0.00    -0.271 OA
ATOM     12  H10 non d ame      -7.779  10.295  67.995  0.00  0.00     0.163 HD
BRANCH  10  13
ATOM     13  C6  non d ame      -7.627   9.049  70.441  0.00  0.00     0.086 C 
ATOM     14  H6  non d ame      -7.372   8.801  71.472  0.00  0.00     0.086 H 
BRANCH  13  15
ATOM     15  N2  non d ame      -9.076   9.160  70.387  0.00  0.00    -0.343 N 
ATOM     16  C5  non d ame      -9.860   8.963  71.608  0.00  0.00     0.273 C 
ATOM     17  O2  non d ame      -9.317   8.713  72.628  0.00  0.00    -0.266 OA
ATOM     18  H5  non d ame      -9.532   9.371  69.511  0.00  0.00     0.163 HD
BRANCH  16  19
ATOM     19  C4  non d ame     -11.392   9.079  71.566  0.00  0.00     0.154 A 
ATOM     20  C1  non d ame     -12.345   8.046  71.838  0.00  0.00    -0.017 A 
ATOM     21  C2  non d ame     -13.606   8.660  71.663  0.00  0.00     0.077 A 
ATOM     22  H1  non d ame     -12.152   7.011  72.119  0.00  0.00     0.091 H 
ATOM     23  O1  non d ame     -13.390   9.900  71.331  0.00  0.00    -0.218 OA
ATOM     24  N1  non d ame     -12.106  10.168  71.268  0.00  0.00    -0.123 NA
BRANCH  21  25
ATOM     25  C3  non d ame     -14.964   7.994  71.833  0.00  0.00    -0.029 C 
ATOM     26  H2  non d ame     -15.486   8.442  72.679  0.00  0.00     0.036 H 
ATOM     27  H3  non d ame     -15.554   8.134  70.927  0.00  0.00     0.036 H 
ATOM     28  H4  non d ame     -14.826   6.928  72.016  0.00  0.00     0.036 H 
ENDBRANCH  21  25
ENDBRANCH  16  19
ENDBRANCH  13  15
BRANCH  13  29
ATOM     29  C8  non d ame      -7.161   7.932  69.542  0.00  0.00    -0.049 C 
ATOM     30  H7  non d ame      -6.111   7.718  69.744  0.00  0.00     0.030 H 
ATOM     31  H8  non d ame      -7.757   7.039  69.732  0.00  0.00     0.030 H 
ATOM     32  H9  non d ame      -7.276   8.232  68.501  0.00  0.00     0.030 H 
ENDBRANCH  13  29
ENDBRANCH  10  13
ENDBRANCH   7   9
BRANCH   7  33
ATOM     33  C11 non d ame      -5.340  11.824  67.347  0.00  0.00    -0.033 C 
ATOM     34  H12 non d ame      -5.303  12.540  66.527  0.00  0.00     0.042 H 
BRANCH  33  35
ATOM     35  C12 non d ame      -4.054  12.029  68.208  0.00  0.00    -0.071 C 
ATOM     36  H13 non d ame      -4.300  11.909  69.263  0.00  0.00     0.028 H 
ATOM     37  H14 non d ame      -3.305  11.290  67.923  0.00  0.00     0.028 H 
ATOM     38  H15 non d ame      -3.660  13.031  68.038  0.00  0.00     0.028 H 
ENDBRANCH  33  35
BRANCH  33  39
ATOM     39  C13 non d ame      -5.387  10.388  66.733  0.00  0.00    -0.071 C 
ATOM     40  H16 non d ame      -5.184  10.443  65.664  0.00  0.00     0.028 H 
ATOM     41  H17 non d ame      -4.634   9.762  67.214  0.00  0.00     0.028 H 
ATOM     42  H18 non d ame      -6.374   9.956  66.894  0.00  0.00     0.028 H 
ENDBRANCH  33  39
ENDBRANCH   7  33
ENDBRANCH   4   7
ENDBRANCH   1   3
BRANCH   1  43
ATOM     43  C15 non d ame     -10.825  13.651  66.969  0.00  0.00     0.240 C 
ATOM     44  O5  non d ame     -11.980  13.370  66.986  0.00  0.00    -0.271 OA
ATOM     45  N6  non d ame     -10.315  14.744  67.845  0.00  0.00    -0.355 N 
ATOM     46  H46 non d ame      -9.336  14.988  67.843  0.00  0.00     0.162 HD
BRANCH  45  47
ATOM     47  C20 non d ame     -11.253  15.477  68.723  0.00  0.00     0.013 C 
ATOM     48  H30 non d ame     -12.246  15.413  68.281  0.00  0.00     0.072 H 
BRANCH  47  49
ATOM     49  C21 non d ame     -10.821  16.923  68.819  0.00  0.00    -0.038 C 
ATOM     50  H31 non d ame     -11.651  17.447  69.293  0.00  0.00     0.036 H 
ATOM     51  H32 non d ame      -9.842  16.906  69.297  0.00  0.00     0.036 H 
BRANCH  49  52
ATOM     52  C22 non d ame     -10.622  17.581  67.437  0.00  0.00     0.018 C 
ATOM     53  H33 non d ame      -9.826  17.015  66.952  0.00  0.00     0.048 H 
ATOM     54  H34 non d ame     -11.613  17.625  66.984  0.00  0.00     0.048 H 
BRANCH  52  55
ATOM     55  C23 non d ame     -10.120  19.050  67.509  0.00  0.00     0.259 C 
ATOM     56  O7  non d ame     -10.507  19.859  66.730  0.00  0.00    -0.265 OA
BRANCH  55  57
ATOM     57  O8  non d ame      -9.180  19.416  68.513  0.00  0.00    -0.317 OA
BRANCH  57  58
ATOM     58  C29 non d ame      -7.837  19.542  68.035  0.00  0.00     0.052 C 
ATOM     59  H47 non d ame      -7.863  19.219  66.994  0.00  0.00     0.082 H 
ATOM     60  H48 non d ame      -7.529  20.557  68.283  0.00  0.00     0.082 H 
BRANCH  58  61
ATOM     61  C35 non d ame      -6.950  18.551  68.834  0.00  0.00    -0.034 A 
ATOM     62  C30 non d ame      -7.239  17.190  68.820  0.00  0.00    -0.075 A 
ATOM     63  C31 non d ame      -6.442  16.299  69.538  0.00  0.00    -0.082 A 
ATOM     64  H49 non d ame      -8.088  16.821  68.245  0.00  0.00     0.084 H 
ATOM     65  C32 non d ame      -5.354  16.775  70.275  0.00  0.00    -0.083 A 
ATOM     66  H50 non d ame      -6.669  15.233  69.522  0.00  0.00     0.083 H 
ATOM     67  C33 non d ame      -5.073  18.134  70.290  0.00  0.00    -0.082 A 
ATOM     68  H51 non d ame      -4.726  16.085  70.839  0.00  0.00     0.083 H 
ATOM     69  C34 non d ame      -5.865  19.027  69.572  0.00  0.00    -0.075 A 
ATOM     70  H52 non d ame      -4.225  18.502  70.868  0.00  0.00     0.083 H 
ATOM     71  H53 non d ame      -5.636  20.093  69.587  0.00  0.00     0.084 H 
ENDBRANCH  58  61
ENDBRANCH  57  58
ENDBRANCH  55  57
ENDBRANCH  52  55
ENDBRANCH  49  52
ENDBRANCH  47  49
BRANCH  47  72
ATOM     72  C24 non d ame     -11.251  14.851  70.116  0.00  0.00    -0.039 C 
ATOM     73  H35 non d ame     -11.374  13.780  69.953  0.00  0.00     0.036 H 
ATOM     74  H36 non d ame     -10.352  15.228  70.603  0.00  0.00     0.036 H 
BRANCH  72  75
ATOM     75  C25 non d ame     -12.502  15.343  70.988  0.00  0.00    -0.001 C 
ATOM     76  C26 non d ame     -11.977  16.221  72.276  0.00  0.00    -0.035 C 
ATOM     77  C27 non d ame     -12.542  15.725  73.402  0.00  0.00     0.085 C 
ATOM     78  H38 non d ame     -10.911  16.055  72.431  0.00  0.00     0.036 H 
ATOM     79  H39 non d ame     -12.368  17.237  72.220  0.00  0.00     0.036 H 
ATOM     80  N5  non d ame     -13.145  14.388  73.042  0.00  0.00    -0.049 N 
ATOM     81  H40 non d ame     -11.717  15.566  74.097  0.00  0.00     0.075 H 
ATOM     82  H41 non d ame     -13.343  16.419  73.656  0.00  0.00     0.075 H 
ATOM     83  C28 non d ame     -13.188  14.341  71.429  0.00  0.00     0.193 C 
ATOM     84  H42 non d ame     -12.498  13.685  73.367  0.00  0.00     0.280 HD
ATOM     85  H43 non d ame     -14.095  14.400  73.388  0.00  0.00     0.280 HD
ATOM     86  H44 non d ame     -14.126  14.493  70.895  0.00  0.00     0.129 H 
ATOM     87  H37 non d ame     -13.286  15.785  70.373  0.00  0.00     0.046 H 
BRANCH  83  88
ATOM     88  O6  non d ame     -12.679  13.091  70.959  0.00  0.00    -0.369 OA
ATOM     89  H45 non d ame     -12.758  13.053  70.003  0.00  0.00     0.212 HD
ENDBRANCH  83  88
ENDBRANCH  72  75
ENDBRANCH  47  72
ENDBRANCH  45  47
ENDBRANCH   1  43
BRANCH   1  90
ATOM     90  C16 non d ame     -10.632  11.853  65.222  0.00  0.00    -0.035 C 
ATOM     91  H21 non d ame     -10.050  10.932  65.274  0.00  0.00     0.037 H 
ATOM     92  H22 non d ame     -11.647  11.879  65.621  0.00  0.00     0.037 H 
BRANCH  90  93
ATOM     93  C17 non d ame     -10.743  12.220  63.708  0.00  0.00    -0.059 C 
ATOM     94  H23 non d ame     -10.496  13.276  63.605  0.00  0.00     0.038 H 
BRANCH  93  95
ATOM     95  C18 non d ame      -9.739  11.407  62.830  0.00  0.00    -0.073 C 
ATOM     96  H24 non d ame      -8.799  11.289  63.368  0.00  0.00     0.028 H 
ATOM     97  H25 non d ame     -10.159  10.425  62.612  0.00  0.00     0.028 H 
ATOM     98  H26 non d ame      -9.559  11.940  61.896  0.00  0.00     0.028 H 
ENDBRANCH  93  95
BRANCH  93  99
ATOM     99  C19 non d ame     -12.178  12.037  63.205  0.00  0.00    -0.073 C 
ATOM    100  H27 non d ame     -12.195  11.279  62.422  0.00  0.00     0.028 H 
ATOM    101  H28 non d ame     -12.815  11.721  64.032  0.00  0.00     0.028 H 
ATOM    102  H29 non d ame     -12.545  12.982  62.805  0.00  0.00     0.028 H 
ENDBRANCH  93  99
ENDBRANCH  90  93
ENDBRANCH   1  90
TORSDOF 26
ENDMDL
MODEL 15
REMARK VINA RESULT:      -6.6      2.761      9.828
REMARK  26 active torsions:
REMARK  status: ('A' for Active; 'I' for Inactive)
REMARK    1  A    between atoms: C2_2  and  C3_3 
REMARK    2  A    between atoms: C4_6  and  C5_7 
REMARK       I    between atoms: C5_7  and  N2_9 
REMARK    3  A    between atoms: N2_9  and  C6_10 
REMARK    4  A    between atoms: C6_10  and  C7_11 
REMARK    5  A    between atoms: C6_10  and  C8_13 
REMARK       I    between atoms: C7_11  and  N3_14 
REMARK    6  A    between atoms: N3_14  and  C9_15 
REMARK    7  A    between atoms: C9_15  and  C10_16 
REMARK    8  A    between atoms: C9_15  and  C11_18 
REMARK       I    between atoms: C10_16  and  N4_21 
REMARK    9  A    between atoms: C11_18  and  C12_19 
REMARK   10  A    between atoms: C11_18  and  C13_20 
REMARK   11  A    between atoms: N4_21  and  C14_22 
REMARK   12  A    between atoms: C14_22  and  C15_23 
REMARK   13  A    between atoms: C14_22  and  C16_25 
REMARK       I    between atoms: C15_23  and  N6_40 
REMARK   14  A    between atoms: C16_25  and  C17_26 
REMARK   15  A    between atoms: C17_26  and  C18_27 
REMARK   16  A    between atoms: C17_26  and  C19_28 
REMARK   17  A    between atoms: C20_29  and  C21_30 
REMARK   18  A    between atoms: C20_29  and  C24_33 
REMARK   19  A    between atoms: C20_29  and  N6_40 
REMARK   20  A    between atoms: C21_30  and  C22_31 
REMARK   21  A    between atoms: C22_31  and  C23_32 
REMARK   22  A    between atoms: C23_32  and  O8_43 
REMARK   23  A    between atoms: C24_33  and  C25_34 
REMARK   24  A    between atoms: C28_38  and  O6_39 
REMARK   25  A    between atoms: C29_42  and  O8_43 
REMARK   26  A    between atoms: C29_42  and  C35_49 
ROOT
ATOM      1  C14 non d ame      -9.037   9.527  69.447  0.00  0.00     0.089 C 
ATOM      2  H20 non d ame      -8.522   8.732  69.987  0.00  0.00     0.087 H 
ENDROOT
BRANCH   1   3
ATOM      3  N4  non d ame      -8.182  10.704  69.483  0.00  0.00    -0.346 N 
ATOM      4  C10 non d ame      -6.699  10.563  69.719  0.00  0.00     0.241 C 
ATOM      5  O4  non d ame      -6.217   9.490  69.882  0.00  0.00    -0.271 OA
ATOM      6  H19 non d ame      -8.612  11.608  69.345  0.00  0.00     0.163 HD
BRANCH   4   7
ATOM      7  C9  non d ame      -5.829  11.791  69.747  0.00  0.00     0.092 C 
ATOM      8  H11 non d ame      -5.144  11.765  68.900  0.00  0.00     0.088 H 
BRANCH   7   9
ATOM      9  N3  non d ame      -6.664  12.986  69.592  0.00  0.00    -0.346 N 
ATOM     10  C7  non d ame      -7.160  13.354  68.288  0.00  0.00     0.240 C 
ATOM     11  O3  non d ame      -6.895  12.700  67.354  0.00  0.00    -0.271 OA
ATOM     12  H10 non d ame      -6.899  13.560  70.388  0.00  0.00     0.163 HD
BRANCH  10  13
ATOM     13  C6  non d ame      -8.046  14.628  68.128  0.00  0.00     0.086 C 
ATOM     14  H6  non d ame      -8.546  14.676  67.161  0.00  0.00     0.086 H 
BRANCH  13  15
ATOM     15  N2  non d ame      -9.093  14.604  69.136  0.00  0.00    -0.343 N 
ATOM     16  C5  non d ame     -10.374  15.258  68.862  0.00  0.00     0.273 C 
ATOM     17  O2  non d ame     -10.552  15.803  67.828  0.00  0.00    -0.266 OA
ATOM     18  H5  non d ame      -8.931  14.138  70.018  0.00  0.00     0.163 HD
BRANCH  16  19
ATOM     19  C4  non d ame     -11.490  15.239  69.918  0.00  0.00     0.154 A 
ATOM     20  C1  non d ame     -12.175  14.092  70.431  0.00  0.00    -0.017 A 
ATOM     21  C2  non d ame     -13.098  14.609  71.368  0.00  0.00     0.077 A 
ATOM     22  H1  non d ame     -12.026  13.046  70.165  0.00  0.00     0.091 H 
ATOM     23  O1  non d ame     -12.950  15.901  71.384  0.00  0.00    -0.218 OA
ATOM     24  N1  non d ame     -12.018  16.293  70.546  0.00  0.00    -0.123 NA
BRANCH  21  25
ATOM     25  C3  non d ame     -14.081  13.802  72.205  0.00  0.00    -0.029 C 
ATOM     26  H2  non d ame     -14.437  12.949  71.626  0.00  0.00     0.036 H 
ATOM     27  H3  non d ame     -13.584  13.446  73.107  0.00  0.00     0.036 H 
ATOM     28  H4  non d ame     -14.927  14.432  72.481  0.00  0.00     0.036 H 
ENDBRANCH  21  25
ENDBRANCH  16  19
ENDBRANCH  13  15
BRANCH  13  29
ATOM     29  C8  non d ame      -7.194  15.860  68.298  0.00  0.00    -0.049 C 
ATOM     30  H7  non d ame      -6.599  15.769  69.206  0.00  0.00     0.030 H 
ATOM     31  H8  non d ame      -6.532  15.965  67.438  0.00  0.00     0.030 H 
ATOM     32  H9  non d ame      -7.836  16.738  68.372  0.00  0.00     0.030 H 
ENDBRANCH  13  29
ENDBRANCH  10  13
ENDBRANCH   7   9
BRANCH   7  33
ATOM     33  C11 non d ame      -5.075  11.862  71.108  0.00  0.00    -0.033 C 
ATOM     34  H12 non d ame      -5.527  11.126  71.773  0.00  0.00     0.042 H 
BRANCH  33  35
ATOM     35  C12 non d ame      -3.570  11.484  70.944  0.00  0.00    -0.071 C 
ATOM     36  H13 non d ame      -3.148  12.031  70.101  0.00  0.00     0.028 H 
ATOM     37  H14 non d ame      -3.029  11.746  71.853  0.00  0.00     0.028 H 
ATOM     38  H15 non d ame      -3.482  10.414  70.764  0.00  0.00     0.028 H 
ENDBRANCH  33  35
BRANCH  33  39
ATOM     39  C13 non d ame      -5.238  13.271  71.764  0.00  0.00    -0.071 C 
ATOM     40  H16 non d ame      -4.612  13.331  72.655  0.00  0.00     0.028 H 
ATOM     41  H17 non d ame      -4.933  14.040  71.054  0.00  0.00     0.028 H 
ATOM     42  H18 non d ame      -6.280  13.424  72.041  0.00  0.00     0.028 H 
ENDBRANCH  33  39
ENDBRANCH   7  33
ENDBRANCH   4   7
ENDBRANCH   1   3
BRANCH   1  43
ATOM     43  C15 non d ame      -9.301   9.152  67.961  0.00  0.00     0.240 C 
ATOM     44  O5  non d ame      -9.913   8.167  67.700  0.00  0.00    -0.271 OA
ATOM     45  N6  non d ame      -8.799  10.025  66.862  0.00  0.00    -0.355 N 
ATOM     46  H46 non d ame      -8.282  10.867  67.072  0.00  0.00     0.162 HD
BRANCH  45  47
ATOM     47  C20 non d ame      -9.060   9.655  65.455  0.00  0.00     0.013 C 
ATOM     48  H30 non d ame      -9.154   8.571  65.405  0.00  0.00     0.072 H 
BRANCH  47  49
ATOM     49  C21 non d ame      -7.905  10.114  64.595  0.00  0.00    -0.038 C 
ATOM     50  H31 non d ame      -8.173  11.112  64.248  0.00  0.00     0.036 H 
ATOM     51  H32 non d ame      -7.011   9.970  65.202  0.00  0.00     0.036 H 
BRANCH  49  52
ATOM     52  C22 non d ame      -7.718   9.248  63.330  0.00  0.00     0.018 C 
ATOM     53  H33 non d ame      -8.594   8.602  63.282  0.00  0.00     0.048 H 
ATOM     54  H34 non d ame      -7.512   9.949  62.520  0.00  0.00     0.048 H 
BRANCH  52  55
ATOM     55  C23 non d ame      -6.489   8.299  63.397  0.00  0.00     0.259 C 
ATOM     56  O7  non d ame      -5.402   8.699  63.130  0.00  0.00    -0.265 OA
BRANCH  55  57
ATOM     57  O8  non d ame      -6.679   6.939  63.770  0.00  0.00    -0.317 OA
BRANCH  57  58
ATOM     58  C29 non d ame      -7.349   6.153  62.780  0.00  0.00     0.052 C 
ATOM     59  H47 non d ame      -7.813   6.867  62.100  0.00  0.00     0.082 H 
ATOM     60  H48 non d ame      -6.603   5.450  62.407  0.00  0.00     0.082 H 
BRANCH  58  61
ATOM     61  C35 non d ame      -8.471   5.348  63.487  0.00  0.00    -0.034 A 
ATOM     62  C30 non d ame      -9.353   4.576  62.738  0.00  0.00    -0.075 A 
ATOM     63  C31 non d ame     -10.362   3.853  63.373  0.00  0.00    -0.082 A 
ATOM     64  H49 non d ame      -9.254   4.537  61.653  0.00  0.00     0.084 H 
ATOM     65  C32 non d ame     -10.488   3.905  64.764  0.00  0.00    -0.083 A 
ATOM     66  H50 non d ame     -11.050   3.247  62.783  0.00  0.00     0.083 H 
ATOM     67  C33 non d ame      -9.608   4.679  65.507  0.00  0.00    -0.082 A 
ATOM     68  H51 non d ame     -11.273   3.343  65.268  0.00  0.00     0.083 H 
ATOM     69  C34 non d ame      -8.597   5.402  64.877  0.00  0.00    -0.075 A 
ATOM     70  H52 non d ame      -9.710   4.720  66.592  0.00  0.00     0.083 H 
ATOM     71  H53 non d ame      -7.909   6.007  65.468  0.00  0.00     0.084 H 
ENDBRANCH  58  61
ENDBRANCH  57  58
ENDBRANCH  55  57
ENDBRANCH  52  55
ENDBRANCH  49  52
ENDBRANCH  47  49
BRANCH  47  72
ATOM     72  C24 non d ame     -10.348  10.322  64.976  0.00  0.00    -0.039 C 
ATOM     73  H35 non d ame     -10.609   9.815  64.047  0.00  0.00     0.036 H 
ATOM     74  H36 non d ame     -11.028  10.284  65.827  0.00  0.00     0.036 H 
BRANCH  72  75
ATOM     75  C25 non d ame     -10.120  11.868  64.622  0.00  0.00    -0.001 C 
ATOM     76  C26 non d ame     -10.812  12.814  65.776  0.00  0.00    -0.035 C 
ATOM     77  C27 non d ame     -11.607  13.728  65.170  0.00  0.00     0.085 C 
ATOM     78  H38 non d ame     -11.508  12.226  66.373  0.00  0.00     0.036 H 
ATOM     79  H39 non d ame     -10.052  13.422  66.266  0.00  0.00     0.036 H 
ATOM     80  N5  non d ame     -11.778  13.285  63.737  0.00  0.00    -0.049 N 
ATOM     81  H40 non d ame     -12.569  13.660  65.680  0.00  0.00     0.075 H 
ATOM     82  H41 non d ame     -11.045  14.661  65.189  0.00  0.00     0.075 H 
ATOM     83  C28 non d ame     -10.641  12.168  63.480  0.00  0.00     0.193 C 
ATOM     84  H42 non d ame     -12.683  12.842  63.680  0.00  0.00     0.280 HD
ATOM     85  H43 non d ame     -11.572  14.090  63.163  0.00  0.00     0.280 HD
ATOM     86  H44 non d ame      -9.744  12.411  62.910  0.00  0.00     0.129 H 
ATOM     87  H37 non d ame      -9.084  12.083  64.360  0.00  0.00     0.046 H 
BRANCH  83  88
ATOM     88  O6  non d ame     -11.209  11.029  62.830  0.00  0.00    -0.369 OA
ATOM     89  H45 non d ame     -10.570  10.660  62.216  0.00  0.00     0.212 HD
ENDBRANCH  83  88
ENDBRANCH  72  75
ENDBRANCH  47  72
ENDBRANCH  45  47
ENDBRANCH   1  43
BRANCH   1  90
ATOM     90  C16 non d ame     -10.353   9.849  70.136  0.00  0.00    -0.035 C 
ATOM     91  H21 non d ame     -10.257  10.880  70.476  0.00  0.00     0.037 H 
ATOM     92  H22 non d ame     -11.128   9.584  69.416  0.00  0.00     0.037 H 
BRANCH  90  93
ATOM     93  C17 non d ame     -10.621   8.987  71.410  0.00  0.00    -0.059 C 
ATOM     94  H23 non d ame     -11.050   9.642  72.169  0.00  0.00     0.038 H 
BRANCH  93  95
ATOM     95  C18 non d ame     -11.645   7.838  71.140  0.00  0.00    -0.073 C 
ATOM     96  H24 non d ame     -11.698   7.187  72.012  0.00  0.00     0.028 H 
ATOM     97  H25 non d ame     -12.628   8.266  70.946  0.00  0.00     0.028 H 
ATOM     98  H26 non d ame     -11.322   7.261  70.274  0.00  0.00     0.028 H 
ENDBRANCH  93  95
BRANCH  93  99
ATOM     99  C19 non d ame      -9.313   8.430  71.978  0.00  0.00    -0.073 C 
ATOM    100  H27 non d ame      -9.119   8.879  72.952  0.00  0.00     0.028 H 
ATOM    101  H28 non d ame      -9.397   7.348  72.087  0.00  0.00     0.028 H 
ATOM    102  H29 non d ame      -8.494   8.663  71.299  0.00  0.00     0.028 H 
ENDBRANCH  93  99
ENDBRANCH  90  93
ENDBRANCH   1  90
TORSDOF 26
ENDMDL
MODEL 16
REMARK VINA RESULT:      -6.5      3.215      7.180
REMARK  26 active torsions:
REMARK  status: ('A' for Active; 'I' for Inactive)
REMARK    1  A    between atoms: C2_2  and  C3_3 
REMARK    2  A    between atoms: C4_6  and  C5_7 
REMARK       I    between atoms: C5_7  and  N2_9 
REMARK    3  A    between atoms: N2_9  and  C6_10 
REMARK    4  A    between atoms: C6_10  and  C7_11 
REMARK    5  A    between atoms: C6_10  and  C8_13 
REMARK       I    between atoms: C7_11  and  N3_14 
REMARK    6  A    between atoms: N3_14  and  C9_15 
REMARK    7  A    between atoms: C9_15  and  C10_16 
REMARK    8  A    between atoms: C9_15  and  C11_18 
REMARK       I    between atoms: C10_16  and  N4_21 
REMARK    9  A    between atoms: C11_18  and  C12_19 
REMARK   10  A    between atoms: C11_18  and  C13_20 
REMARK   11  A    between atoms: N4_21  and  C14_22 
REMARK   12  A    between atoms: C14_22  and  C15_23 
REMARK   13  A    between atoms: C14_22  and  C16_25 
REMARK       I    between atoms: C15_23  and  N6_40 
REMARK   14  A    between atoms: C16_25  and  C17_26 
REMARK   15  A    between atoms: C17_26  and  C18_27 
REMARK   16  A    between atoms: C17_26  and  C19_28 
REMARK   17  A    between atoms: C20_29  and  C21_30 
REMARK   18  A    between atoms: C20_29  and  C24_33 
REMARK   19  A    between atoms: C20_29  and  N6_40 
REMARK   20  A    between atoms: C21_30  and  C22_31 
REMARK   21  A    between atoms: C22_31  and  C23_32 
REMARK   22  A    between atoms: C23_32  and  O8_43 
REMARK   23  A    between atoms: C24_33  and  C25_34 
REMARK   24  A    between atoms: C28_38  and  O6_39 
REMARK   25  A    between atoms: C29_42  and  O8_43 
REMARK   26  A    between atoms: C29_42  and  C35_49 
ROOT
ATOM      1  C14 non d ame      -9.395   5.476  66.076  0.00  0.00     0.089 C 
ATOM      2  H20 non d ame      -9.991   5.637  65.177  0.00  0.00     0.087 H 
ENDROOT
BRANCH   1   3
ATOM      3  N4  non d ame      -8.068   6.017  65.825  0.00  0.00    -0.346 N 
ATOM      4  C10 non d ame      -7.455   5.925  64.451  0.00  0.00     0.241 C 
ATOM      5  O4  non d ame      -8.049   5.408  63.562  0.00  0.00    -0.271 OA
ATOM      6  H19 non d ame      -7.579   6.452  66.595  0.00  0.00     0.163 HD
BRANCH   4   7
ATOM      7  C9  non d ame      -6.083   6.496  64.207  0.00  0.00     0.092 C 
ATOM      8  H11 non d ame      -5.723   6.162  63.234  0.00  0.00     0.088 H 
BRANCH   7   9
ATOM      9  N3  non d ame      -6.163   7.959  64.161  0.00  0.00    -0.346 N 
ATOM     10  C7  non d ame      -5.705   8.669  62.992  0.00  0.00     0.240 C 
ATOM     11  O3  non d ame      -5.268   8.079  62.080  0.00  0.00    -0.271 OA
ATOM     12  H10 non d ame      -6.536   8.482  64.940  0.00  0.00     0.163 HD
BRANCH  10  13
ATOM     13  C6  non d ame      -5.790  10.226  62.949  0.00  0.00     0.086 C 
ATOM     14  H6  non d ame      -5.870  10.617  61.935  0.00  0.00     0.086 H 
BRANCH  13  15
ATOM     15  N2  non d ame      -6.987  10.653  63.654  0.00  0.00    -0.343 N 
ATOM     16  C5  non d ame      -8.278  10.632  62.962  0.00  0.00     0.273 C 
ATOM     17  O2  non d ame      -8.342  10.273  61.838  0.00  0.00    -0.266 OA
ATOM     18  H5  non d ame      -6.923  10.960  64.614  0.00  0.00     0.163 HD
BRANCH  16  19
ATOM     19  C4  non d ame      -9.552  11.078  63.696  0.00  0.00     0.154 A 
ATOM     20  C1  non d ame      -9.653  11.556  65.041  0.00  0.00    -0.017 A 
ATOM     21  C2  non d ame     -11.026  11.830  65.227  0.00  0.00     0.077 A 
ATOM     22  H1  non d ame      -8.853  11.684  65.770  0.00  0.00     0.091 H 
ATOM     23  O1  non d ame     -11.633  11.542  64.114  0.00  0.00    -0.218 OA
ATOM     24  N1  non d ame     -10.794  11.101  63.205  0.00  0.00    -0.123 NA
BRANCH  21  25
ATOM     25  C3  non d ame     -11.675  12.365  66.497  0.00  0.00    -0.029 C 
ATOM     26  H2  non d ame     -12.045  11.532  67.096  0.00  0.00     0.036 H 
ATOM     27  H3  non d ame     -10.938  12.926  67.072  0.00  0.00     0.036 H 
ATOM     28  H4  non d ame     -12.505  13.020  66.234  0.00  0.00     0.036 H 
ENDBRANCH  21  25
ENDBRANCH  16  19
ENDBRANCH  13  15
BRANCH  13  29
ATOM     29  C8  non d ame      -4.567  10.817  63.604  0.00  0.00    -0.049 C 
ATOM     30  H7  non d ame      -3.820  10.037  63.749  0.00  0.00     0.030 H 
ATOM     31  H8  non d ame      -4.156  11.600  62.967  0.00  0.00     0.030 H 
ATOM     32  H9  non d ame      -4.841  11.240  64.570  0.00  0.00     0.030 H 
ENDBRANCH  13  29
ENDBRANCH  10  13
ENDBRANCH   7   9
BRANCH   7  33
ATOM     33  C11 non d ame      -5.131   6.068  65.362  0.00  0.00    -0.033 C 
ATOM     34  H12 non d ame      -5.700   6.113  66.291  0.00  0.00     0.042 H 
BRANCH  33  35
ATOM     35  C12 non d ame      -4.644   4.596  65.182  0.00  0.00    -0.071 C 
ATOM     36  H13 non d ame      -5.177   4.137  64.349  0.00  0.00     0.028 H 
ATOM     37  H14 non d ame      -3.574   4.591  64.975  0.00  0.00     0.028 H 
ATOM     38  H15 non d ame      -4.841   4.034  66.094  0.00  0.00     0.028 H 
ENDBRANCH  33  35
BRANCH  33  39
ATOM     39  C13 non d ame      -3.924   7.053  65.487  0.00  0.00    -0.071 C 
ATOM     40  H16 non d ame      -3.133   6.586  66.073  0.00  0.00     0.028 H 
ATOM     41  H17 non d ame      -3.546   7.291  64.492  0.00  0.00     0.028 H 
ATOM     42  H18 non d ame      -4.252   7.967  65.980  0.00  0.00     0.028 H 
ENDBRANCH  33  39
ENDBRANCH   7  33
ENDBRANCH   4   7
ENDBRANCH   1   3
BRANCH   1  43
ATOM     43  C15 non d ame      -9.998   6.197  67.316  0.00  0.00     0.240 C 
ATOM     44  O5  non d ame     -11.167   6.138  67.524  0.00  0.00    -0.271 OA
ATOM     45  N6  non d ame      -9.116   6.953  68.250  0.00  0.00    -0.355 N 
ATOM     46  H46 non d ame      -8.121   7.006  68.087  0.00  0.00     0.162 HD
BRANCH  45  47
ATOM     47  C20 non d ame      -9.704   7.632  69.425  0.00  0.00     0.013 C 
ATOM     48  H30 non d ame     -10.765   7.385  69.459  0.00  0.00     0.072 H 
BRANCH  47  49
ATOM     49  C21 non d ame      -9.525   9.126  69.281  0.00  0.00    -0.038 C 
ATOM     50  H31 non d ame      -9.115   9.467  70.231  0.00  0.00     0.036 H 
ATOM     51  H32 non d ame      -8.959   9.267  68.360  0.00  0.00     0.036 H 
BRANCH  49  52
ATOM     52  C22 non d ame     -10.863   9.874  69.090  0.00  0.00     0.018 C 
ATOM     53  H33 non d ame     -10.605  10.828  68.629  0.00  0.00     0.048 H 
ATOM     54  H34 non d ame     -11.519   9.177  68.569  0.00  0.00     0.048 H 
BRANCH  52  55
ATOM     55  C23 non d ame     -11.581  10.223  70.423  0.00  0.00     0.259 C 
ATOM     56  O7  non d ame     -11.165   9.813  71.458  0.00  0.00    -0.265 OA
BRANCH  55  57
ATOM     57  O8  non d ame     -12.752  11.030  70.393  0.00  0.00    -0.317 OA
BRANCH  57  58
ATOM     58  C29 non d ame     -13.108  11.587  71.661  0.00  0.00     0.052 C 
ATOM     59  H47 non d ame     -14.160  11.341  71.806  0.00  0.00     0.082 H 
ATOM     60  H48 non d ame     -12.361  11.221  72.365  0.00  0.00     0.082 H 
BRANCH  58  61
ATOM     61  C35 non d ame     -12.974  13.130  71.562  0.00  0.00    -0.034 A 
ATOM     62  C30 non d ame     -12.344  13.705  70.463  0.00  0.00    -0.075 A 
ATOM     63  C31 non d ame     -12.223  15.091  70.373  0.00  0.00    -0.082 A 
ATOM     64  H49 non d ame     -11.947  13.070  69.671  0.00  0.00     0.084 H 
ATOM     65  C32 non d ame     -12.732  15.903  71.391  0.00  0.00    -0.083 A 
ATOM     66  H50 non d ame     -11.732  15.539  69.509  0.00  0.00     0.083 H 
ATOM     67  C33 non d ame     -13.357  15.324  72.487  0.00  0.00    -0.082 A 
ATOM     68  H51 non d ame     -12.642  16.987  71.328  0.00  0.00     0.083 H 
ATOM     69  C34 non d ame     -13.482  13.940  72.580  0.00  0.00    -0.075 A 
ATOM     70  H52 non d ame     -13.751  15.960  73.280  0.00  0.00     0.083 H 
ATOM     71  H53 non d ame     -13.974  13.493  73.444  0.00  0.00     0.084 H 
ENDBRANCH  58  61
ENDBRANCH  57  58
ENDBRANCH  55  57
ENDBRANCH  52  55
ENDBRANCH  49  52
ENDBRANCH  47  49
BRANCH  47  72
ATOM     72  C24 non d ame      -9.008   7.155  70.699  0.00  0.00    -0.039 C 
ATOM     73  H35 non d ame      -8.230   6.468  70.365  0.00  0.00     0.036 H 
ATOM     74  H36 non d ame      -8.738   8.063  71.238  0.00  0.00     0.036 H 
BRANCH  72  75
ATOM     75  C25 non d ame     -10.001   6.323  71.641  0.00  0.00    -0.001 C 
ATOM     76  C26 non d ame     -11.480   6.206  70.931  0.00  0.00    -0.035 C 
ATOM     77  C27 non d ame     -12.423   6.600  71.820  0.00  0.00     0.085 C 
ATOM     78  H38 non d ame     -11.567   6.935  70.126  0.00  0.00     0.036 H 
ATOM     79  H39 non d ame     -11.724   5.159  70.748  0.00  0.00     0.036 H 
ATOM     80  N5  non d ame     -11.701   7.285  72.955  0.00  0.00    -0.049 N 
ATOM     81  H40 non d ame     -13.032   7.335  71.291  0.00  0.00     0.075 H 
ATOM     82  H41 non d ame     -12.876   5.682  72.190  0.00  0.00     0.075 H 
ATOM     83  C28 non d ame     -10.143   6.895  72.791  0.00  0.00     0.193 C 
ATOM     84  H42 non d ame     -11.802   8.278  72.801  0.00  0.00     0.280 HD
ATOM     85  H43 non d ame     -12.048   6.869  73.807  0.00  0.00     0.280 HD
ATOM     86  H44 non d ame      -9.688   6.148  73.441  0.00  0.00     0.129 H 
ATOM     87  H37 non d ame      -9.550   5.399  72.003  0.00  0.00     0.046 H 
BRANCH  83  88
ATOM     88  O6  non d ame      -9.327   8.060  72.918  0.00  0.00    -0.369 OA
ATOM     89  H45 non d ame      -8.836   8.197  72.104  0.00  0.00     0.212 HD
ENDBRANCH  83  88
ENDBRANCH  72  75
ENDBRANCH  47  72
ENDBRANCH  45  47
ENDBRANCH   1  43
BRANCH   1  90
ATOM     90  C16 non d ame      -9.279   3.987  66.357  0.00  0.00    -0.035 C 
ATOM     91  H21 non d ame     -10.299   3.644  66.529  0.00  0.00     0.037 H 
ATOM     92  H22 non d ame      -8.700   3.581  65.527  0.00  0.00     0.037 H 
BRANCH  90  93
ATOM     93  C17 non d ame      -8.478   3.655  67.657  0.00  0.00    -0.059 C 
ATOM     94  H23 non d ame      -8.150   4.598  68.093  0.00  0.00     0.038 H 
BRANCH  93  95
ATOM     95  C18 non d ame      -9.356   2.919  68.719  0.00  0.00    -0.073 C 
ATOM     96  H24 non d ame      -8.732   2.617  69.560  0.00  0.00     0.028 H 
ATOM     97  H25 non d ame     -10.140   3.591  69.071  0.00  0.00     0.028 H 
ATOM     98  H26 non d ame      -9.810   2.037  68.267  0.00  0.00     0.028 H 
ENDBRANCH  93  95
BRANCH  93  99
ATOM     99  C19 non d ame      -7.221   2.843  67.332  0.00  0.00    -0.073 C 
ATOM    100  H27 non d ame      -7.371   1.805  67.633  0.00  0.00     0.028 H 
ATOM    101  H28 non d ame      -7.028   2.886  66.260  0.00  0.00     0.028 H 
ATOM    102  H29 non d ame      -6.371   3.258  67.872  0.00  0.00     0.028 H 
ENDBRANCH  93  99
ENDBRANCH  90  93
ENDBRANCH   1  90
TORSDOF 26
ENDMDL
MODEL 17
REMARK VINA RESULT:      -6.5      2.939      7.837
REMARK  26 active torsions:
REMARK  status: ('A' for Active; 'I' for Inactive)
REMARK    1  A    between atoms: C2_2  and  C3_3 
REMARK    2  A    between atoms: C4_6  and  C5_7 
REMARK       I    between atoms: C5_7  and  N2_9 
REMARK    3  A    between atoms: N2_9  and  C6_10 
REMARK    4  A    between atoms: C6_10  and  C7_11 
REMARK    5  A    between atoms: C6_10  and  C8_13 
REMARK       I    between atoms: C7_11  and  N3_14 
REMARK    6  A    between atoms: N3_14  and  C9_15 
REMARK    7  A    between atoms: C9_15  and  C10_16 
REMARK    8  A    between atoms: C9_15  and  C11_18 
REMARK       I    between atoms: C10_16  and  N4_21 
REMARK    9  A    between atoms: C11_18  and  C12_19 
REMARK   10  A    between atoms: C11_18  and  C13_20 
REMARK   11  A    between atoms: N4_21  and  C14_22 
REMARK   12  A    between atoms: C14_22  and  C15_23 
REMARK   13  A    between atoms: C14_22  and  C16_25 
REMARK       I    between atoms: C15_23  and  N6_40 
REMARK   14  A    between atoms: C16_25  and  C17_26 
REMARK   15  A    between atoms: C17_26  and  C18_27 
REMARK   16  A    between atoms: C17_26  and  C19_28 
REMARK   17  A    between atoms: C20_29  and  C21_30 
REMARK   18  A    between atoms: C20_29  and  C24_33 
REMARK   19  A    between atoms: C20_29  and  N6_40 
REMARK   20  A    between atoms: C21_30  and  C22_31 
REMARK   21  A    between atoms: C22_31  and  C23_32 
REMARK   22  A    between atoms: C23_32  and  O8_43 
REMARK   23  A    between atoms: C24_33  and  C25_34 
REMARK   24  A    between atoms: C28_38  and  O6_39 
REMARK   25  A    between atoms: C29_42  and  O8_43 
REMARK   26  A    between atoms: C29_42  and  C35_49 
ROOT
ATOM      1  C14 non d ame      -7.266  12.145  67.928  0.00  0.00     0.089 C 
ATOM      2  H20 non d ame      -6.520  11.818  68.653  0.00  0.00     0.087 H 
ENDROOT
BRANCH   1   3
ATOM      3  N4  non d ame      -6.766  11.809  66.603  0.00  0.00    -0.346 N 
ATOM      4  C10 non d ame      -5.930  10.571  66.395  0.00  0.00     0.241 C 
ATOM      5  O4  non d ame      -5.671   9.861  67.311  0.00  0.00    -0.271 OA
ATOM      6  H19 non d ame      -6.996  12.427  65.838  0.00  0.00     0.163 HD
BRANCH   4   7
ATOM      7  C9  non d ame      -5.426  10.235  65.016  0.00  0.00     0.092 C 
ATOM      8  H11 non d ame      -5.314   9.155  64.929  0.00  0.00     0.088 H 
BRANCH   7   9
ATOM      9  N3  non d ame      -6.416  10.651  64.019  0.00  0.00    -0.346 N 
ATOM     10  C7  non d ame      -7.354   9.690  63.491  0.00  0.00     0.240 C 
ATOM     11  O3  non d ame      -7.324   8.579  63.856  0.00  0.00    -0.271 OA
ATOM     12  H10 non d ame      -6.453  11.606  63.693  0.00  0.00     0.163 HD
BRANCH  10  13
ATOM     13  C6  non d ame      -8.404  10.138  62.427  0.00  0.00     0.086 C 
ATOM     14  H6  non d ame      -9.235   9.439  62.335  0.00  0.00     0.086 H 
BRANCH  13  15
ATOM     15  N2  non d ame      -8.974  11.411  62.834  0.00  0.00    -0.343 N 
ATOM     16  C5  non d ame     -10.088  11.432  63.784  0.00  0.00     0.273 C 
ATOM     17  O2  non d ame     -10.521  10.419  64.212  0.00  0.00    -0.266 OA
ATOM     18  H5  non d ame      -8.600  12.272  62.461  0.00  0.00     0.163 HD
BRANCH  16  19
ATOM     19  C4  non d ame     -10.700  12.771  64.224  0.00  0.00     0.154 A 
ATOM     20  C1  non d ame     -10.064  13.804  64.983  0.00  0.00    -0.017 A 
ATOM     21  C2  non d ame     -11.044  14.813  65.118  0.00  0.00     0.077 A 
ATOM     22  H1  non d ame      -9.047  13.819  65.376  0.00  0.00     0.091 H 
ATOM     23  O1  non d ame     -12.113  14.398  64.503  0.00  0.00    -0.218 OA
ATOM     24  N1  non d ame     -11.937  13.209  63.974  0.00  0.00    -0.123 NA
BRANCH  21  25
ATOM     25  C3  non d ame     -10.878  16.140  65.846  0.00  0.00    -0.029 C 
ATOM     26  H2  non d ame     -11.686  16.261  66.569  0.00  0.00     0.036 H 
ATOM     27  H3  non d ame      -9.920  16.151  66.366  0.00  0.00     0.036 H 
ATOM     28  H4  non d ame     -10.909  16.957  65.125  0.00  0.00     0.036 H 
ENDBRANCH  21  25
ENDBRANCH  16  19
ENDBRANCH  13  15
BRANCH  13  29
ATOM     29  C8  non d ame      -7.734  10.278  61.083  0.00  0.00    -0.049 C 
ATOM     30  H7  non d ame      -7.992   9.423  60.458  0.00  0.00     0.030 H 
ATOM     31  H8  non d ame      -8.072  11.196  60.603  0.00  0.00     0.030 H 
ATOM     32  H9  non d ame      -6.653  10.314  61.219  0.00  0.00     0.030 H 
ENDBRANCH  13  29
ENDBRANCH  10  13
ENDBRANCH   7   9
BRANCH   7  33
ATOM     33  C11 non d ame      -4.087  10.986  64.757  0.00  0.00    -0.033 C 
ATOM     34  H12 non d ame      -4.185  11.988  65.175  0.00  0.00     0.042 H 
BRANCH  33  35
ATOM     35  C12 non d ame      -2.895  10.289  65.485  0.00  0.00    -0.071 C 
ATOM     36  H13 non d ame      -1.988  10.406  64.891  0.00  0.00     0.028 H 
ATOM     37  H14 non d ame      -2.749  10.747  66.463  0.00  0.00     0.028 H 
ATOM     38  H15 non d ame      -3.115   9.229  65.609  0.00  0.00     0.028 H 
ENDBRANCH  33  35
BRANCH  33  39
ATOM     39  C13 non d ame      -3.811  11.126  63.226  0.00  0.00    -0.071 C 
ATOM     40  H16 non d ame      -4.566  11.772  62.778  0.00  0.00     0.028 H 
ATOM     41  H17 non d ame      -2.823  11.561  63.072  0.00  0.00     0.028 H 
ATOM     42  H18 non d ame      -3.852  10.142  62.758  0.00  0.00     0.028 H 
ENDBRANCH  33  39
ENDBRANCH   7  33
ENDBRANCH   4   7
ENDBRANCH   1   3
BRANCH   1  43
ATOM     43  C15 non d ame      -8.635  11.436  68.135  0.00  0.00     0.240 C 
ATOM     44  O5  non d ame      -9.642  12.065  68.067  0.00  0.00    -0.271 OA
ATOM     45  N6  non d ame      -8.692   9.972  68.409  0.00  0.00    -0.355 N 
ATOM     46  H46 non d ame      -7.844   9.427  68.463  0.00  0.00     0.162 HD
BRANCH  45  47
ATOM     47  C20 non d ame     -10.002   9.313  68.602  0.00  0.00     0.013 C 
ATOM     48  H30 non d ame     -10.760  10.092  68.687  0.00  0.00     0.072 H 
BRANCH  47  49
ATOM     49  C21 non d ame      -9.964   8.488  69.868  0.00  0.00    -0.038 C 
ATOM     50  H31 non d ame     -10.685   7.684  69.718  0.00  0.00     0.036 H 
ATOM     51  H32 non d ame      -8.913   8.254  70.036  0.00  0.00     0.036 H 
BRANCH  49  52
ATOM     52  C22 non d ame     -10.440   9.274  71.109  0.00  0.00     0.018 C 
ATOM     53  H33 non d ame     -10.062   8.723  71.971  0.00  0.00     0.048 H 
ATOM     54  H34 non d ame     -10.130  10.306  70.943  0.00  0.00     0.048 H 
BRANCH  52  55
ATOM     55  C23 non d ame     -11.985   9.313  71.271  0.00  0.00     0.259 C 
ATOM     56  O7  non d ame     -12.618   8.307  71.267  0.00  0.00    -0.265 OA
BRANCH  55  57
ATOM     57  O8  non d ame     -12.639  10.568  71.413  0.00  0.00    -0.317 OA
BRANCH  57  58
ATOM     58  C29 non d ame     -12.334  11.504  70.375  0.00  0.00     0.052 C 
ATOM     59  H47 non d ame     -11.270  11.382  70.172  0.00  0.00     0.082 H 
ATOM     60  H48 non d ame     -13.064  11.320  69.588  0.00  0.00     0.082 H 
BRANCH  58  61
ATOM     61  C35 non d ame     -12.567  12.933  70.935  0.00  0.00    -0.034 A 
ATOM     62  C30 non d ame     -13.341  13.116  72.077  0.00  0.00    -0.075 A 
ATOM     63  C31 non d ame     -13.551  14.399  72.580  0.00  0.00    -0.082 A 
ATOM     64  H49 non d ame     -13.784  12.255  72.577  0.00  0.00     0.084 H 
ATOM     65  C32 non d ame     -12.984  15.502  71.935  0.00  0.00    -0.083 A 
ATOM     66  H50 non d ame     -14.156  14.539  73.475  0.00  0.00     0.083 H 
ATOM     67  C33 non d ame     -12.215  15.315  70.795  0.00  0.00    -0.082 A 
ATOM     68  H51 non d ame     -13.142  16.509  72.322  0.00  0.00     0.083 H 
ATOM     69  C34 non d ame     -12.001  14.034  70.290  0.00  0.00    -0.075 A 
ATOM     70  H52 non d ame     -11.776  16.178  70.293  0.00  0.00     0.083 H 
ATOM     71  H53 non d ame     -11.395  13.895  69.394  0.00  0.00     0.084 H 
ENDBRANCH  58  61
ENDBRANCH  57  58
ENDBRANCH  55  57
ENDBRANCH  52  55
ENDBRANCH  49  52
ENDBRANCH  47  49
BRANCH  47  72
ATOM     72  C24 non d ame     -10.304   8.406  67.411  0.00  0.00    -0.039 C 
ATOM     73  H35 non d ame     -11.384   8.254  67.428  0.00  0.00     0.036 H 
ATOM     74  H36 non d ame      -9.836   8.888  66.553  0.00  0.00     0.036 H 
BRANCH  72  75
ATOM     75  C25 non d ame      -9.622   6.966  67.575  0.00  0.00    -0.001 C 
ATOM     76  C26 non d ame      -8.169   6.943  66.806  0.00  0.00    -0.035 C 
ATOM     77  C27 non d ame      -8.126   5.866  65.985  0.00  0.00     0.085 C 
ATOM     78  H38 non d ame      -8.095   7.788  66.121  0.00  0.00     0.036 H 
ATOM     79  H39 non d ame      -7.370   6.750  67.521  0.00  0.00     0.036 H 
ATOM     80  N5  non d ame      -9.536   5.337  65.877  0.00  0.00    -0.049 N 
ATOM     81  H40 non d ame      -7.817   6.253  65.013  0.00  0.00     0.075 H 
ATOM     82  H41 non d ame      -7.510   5.131  66.501  0.00  0.00     0.075 H 
ATOM     83  C28 non d ame     -10.365   6.037  67.073  0.00  0.00     0.193 C 
ATOM     84  H42 non d ame      -9.900   5.669  64.996  0.00  0.00     0.280 HD
ATOM     85  H43 non d ame      -9.484   4.345  66.060  0.00  0.00     0.280 HD
ATOM     86  H44 non d ame     -10.618   5.476  67.973  0.00  0.00     0.129 H 
ATOM     87  H37 non d ame      -9.643   6.614  68.607  0.00  0.00     0.046 H 
BRANCH  83  88
ATOM     88  O6  non d ame     -11.606   6.546  66.580  0.00  0.00    -0.369 OA
ATOM     89  H45 non d ame     -12.316   5.947  66.820  0.00  0.00     0.212 HD
ENDBRANCH  83  88
ENDBRANCH  72  75
ENDBRANCH  47  72
ENDBRANCH  45  47
ENDBRANCH   1  43
BRANCH   1  90
ATOM     90  C16 non d ame      -7.450  13.651  68.021  0.00  0.00    -0.035 C 
ATOM     91  H21 non d ame      -7.063  14.048  67.083  0.00  0.00     0.037 H 
ATOM     92  H22 non d ame      -8.498  13.798  68.284  0.00  0.00     0.037 H 
BRANCH  90  93
ATOM     93  C17 non d ame      -6.612  14.315  69.160  0.00  0.00    -0.059 C 
ATOM     94  H23 non d ame      -7.304  14.851  69.810  0.00  0.00     0.038 H 
BRANCH  93  95
ATOM     95  C18 non d ame      -5.861  13.258  70.032  0.00  0.00    -0.073 C 
ATOM     96  H24 non d ame      -5.985  13.504  71.087  0.00  0.00     0.028 H 
ATOM     97  H25 non d ame      -6.274  12.268  69.838  0.00  0.00     0.028 H 
ATOM     98  H26 non d ame      -4.801  13.266  69.779  0.00  0.00     0.028 H 
ENDBRANCH  93  95
BRANCH  93  99
ATOM     99  C19 non d ame      -5.634  15.345  68.590  0.00  0.00    -0.073 C 
ATOM    100  H27 non d ame      -5.827  15.479  67.525  0.00  0.00     0.028 H 
ATOM    101  H28 non d ame      -5.766  16.296  69.106  0.00  0.00     0.028 H 
ATOM    102  H29 non d ame      -4.612  14.994  68.732  0.00  0.00     0.028 H 
ENDBRANCH  93  99
ENDBRANCH  90  93
ENDBRANCH   1  90
TORSDOF 26
ENDMDL
MODEL 18
REMARK VINA RESULT:      -6.5      2.634      8.538
REMARK  26 active torsions:
REMARK  status: ('A' for Active; 'I' for Inactive)
REMARK    1  A    between atoms: C2_2  and  C3_3 
REMARK    2  A    between atoms: C4_6  and  C5_7 
REMARK       I    between atoms: C5_7  and  N2_9 
REMARK    3  A    between atoms: N2_9  and  C6_10 
REMARK    4  A    between atoms: C6_10  and  C7_11 
REMARK    5  A    between atoms: C6_10  and  C8_13 
REMARK       I    between atoms: C7_11  and  N3_14 
REMARK    6  A    between atoms: N3_14  and  C9_15 
REMARK    7  A    between atoms: C9_15  and  C10_16 
REMARK    8  A    between atoms: C9_15  and  C11_18 
REMARK       I    between atoms: C10_16  and  N4_21 
REMARK    9  A    between atoms: C11_18  and  C12_19 
REMARK   10  A    between atoms: C11_18  and  C13_20 
REMARK   11  A    between atoms: N4_21  and  C14_22 
REMARK   12  A    between atoms: C14_22  and  C15_23 
REMARK   13  A    between atoms: C14_22  and  C16_25 
REMARK       I    between atoms: C15_23  and  N6_40 
REMARK   14  A    between atoms: C16_25  and  C17_26 
REMARK   15  A    between atoms: C17_26  and  C18_27 
REMARK   16  A    between atoms: C17_26  and  C19_28 
REMARK   17  A    between atoms: C20_29  and  C21_30 
REMARK   18  A    between atoms: C20_29  and  C24_33 
REMARK   19  A    between atoms: C20_29  and  N6_40 
REMARK   20  A    between atoms: C21_30  and  C22_31 
REMARK   21  A    between atoms: C22_31  and  C23_32 
REMARK   22  A    between atoms: C23_32  and  O8_43 
REMARK   23  A    between atoms: C24_33  and  C25_34 
REMARK   24  A    between atoms: C28_38  and  O6_39 
REMARK   25  A    between atoms: C29_42  and  O8_43 
REMARK   26  A    between atoms: C29_42  and  C35_49 
ROOT
ATOM      1  C14 non d ame      -8.514   6.271  64.775  0.00  0.00     0.089 C 
ATOM      2  H20 non d ame      -9.227   6.199  63.954  0.00  0.00     0.087 H 
ENDROOT
BRANCH   1   3
ATOM      3  N4  non d ame      -8.027   7.642  64.814  0.00  0.00    -0.346 N 
ATOM      4  C10 non d ame      -8.088   8.508  63.580  0.00  0.00     0.241 C 
ATOM      5  O4  non d ame      -8.531   8.077  62.567  0.00  0.00    -0.271 OA
ATOM      6  H19 non d ame      -7.652   7.989  65.686  0.00  0.00     0.163 HD
BRANCH   4   7
ATOM      7  C9  non d ame      -7.586   9.926  63.641  0.00  0.00     0.092 C 
ATOM      8  H11 non d ame      -7.468  10.308  62.627  0.00  0.00     0.088 H 
BRANCH   7   9
ATOM      9  N3  non d ame      -8.582  10.770  64.309  0.00  0.00    -0.346 N 
ATOM     10  C7  non d ame      -9.646  11.372  63.543  0.00  0.00     0.240 C 
ATOM     11  O3  non d ame      -9.715  11.188  62.389  0.00  0.00    -0.271 OA
ATOM     12  H10 non d ame      -8.534  10.938  65.303  0.00  0.00     0.163 HD
BRANCH  10  13
ATOM     13  C6  non d ame     -10.701  12.271  64.259  0.00  0.00     0.086 C 
ATOM     14  H6  non d ame     -10.960  11.907  65.253  0.00  0.00     0.086 H 
BRANCH  13  15
ATOM     15  N2  non d ame     -10.144  13.602  64.435  0.00  0.00    -0.343 N 
ATOM     16  C5  non d ame     -10.483  14.373  65.633  0.00  0.00     0.273 C 
ATOM     17  O2  non d ame     -11.207  13.915  66.447  0.00  0.00    -0.266 OA
ATOM     18  H5  non d ame      -9.528  13.987  63.732  0.00  0.00     0.163 HD
BRANCH  16  19
ATOM     19  C4  non d ame      -9.901  15.781  65.832  0.00  0.00     0.154 A 
ATOM     20  C1  non d ame      -8.679  16.125  66.493  0.00  0.00    -0.017 A 
ATOM     21  C2  non d ame      -8.602  17.533  66.405  0.00  0.00     0.077 A 
ATOM     22  H1  non d ame      -7.958  15.456  66.964  0.00  0.00     0.091 H 
ATOM     23  O1  non d ame      -9.660  17.940  65.766  0.00  0.00    -0.218 OA
ATOM     24  N1  non d ame     -10.433  16.936  65.422  0.00  0.00    -0.123 NA
BRANCH  21  25
ATOM     25  C3  non d ame      -7.487  18.412  66.956  0.00  0.00    -0.029 C 
ATOM     26  H2  non d ame      -7.727  19.460  66.776  0.00  0.00     0.036 H 
ATOM     27  H3  non d ame      -7.385  18.241  68.027  0.00  0.00     0.036 H 
ATOM     28  H4  non d ame      -6.549  18.164  66.458  0.00  0.00     0.036 H 
ENDBRANCH  21  25
ENDBRANCH  16  19
ENDBRANCH  13  15
BRANCH  13  29
ATOM     29  C8  non d ame     -11.954  12.342  63.425  0.00  0.00    -0.049 C 
ATOM     30  H7  non d ame     -12.711  12.922  63.953  0.00  0.00     0.030 H 
ATOM     31  H8  non d ame     -11.730  12.820  62.471  0.00  0.00     0.030 H 
ATOM     32  H9  non d ame     -12.329  11.334  63.247  0.00  0.00     0.030 H 
ENDBRANCH  13  29
ENDBRANCH  10  13
ENDBRANCH   7   9
BRANCH   7  33
ATOM     33  C11 non d ame      -6.252   9.970  64.442  0.00  0.00    -0.033 C 
ATOM     34  H12 non d ame      -5.959   8.941  64.649  0.00  0.00     0.042 H 
BRANCH  33  35
ATOM     35  C12 non d ame      -5.108  10.624  63.605  0.00  0.00    -0.071 C 
ATOM     36  H13 non d ame      -4.807   9.945  62.807  0.00  0.00     0.028 H 
ATOM     37  H14 non d ame      -5.464  11.558  63.171  0.00  0.00     0.028 H 
ATOM     38  H15 non d ame      -4.255  10.826  64.252  0.00  0.00     0.028 H 
ENDBRANCH  33  35
BRANCH  33  39
ATOM     39  C13 non d ame      -6.444  10.703  65.808  0.00  0.00    -0.071 C 
ATOM     40  H16 non d ame      -5.733  10.310  66.534  0.00  0.00     0.028 H 
ATOM     41  H17 non d ame      -6.274  11.772  65.675  0.00  0.00     0.028 H 
ATOM     42  H18 non d ame      -7.459  10.539  66.168  0.00  0.00     0.028 H 
ENDBRANCH  33  39
ENDBRANCH   7  33
ENDBRANCH   4   7
ENDBRANCH   1   3
BRANCH   1  43
ATOM     43  C15 non d ame      -9.162   5.936  66.148  0.00  0.00     0.240 C 
ATOM     44  O5  non d ame      -9.978   5.075  66.222  0.00  0.00    -0.271 OA
ATOM     45  N6  non d ame      -8.760   6.684  67.374  0.00  0.00    -0.355 N 
ATOM     46  H46 non d ame      -8.065   7.414  67.324  0.00  0.00     0.162 HD
BRANCH  45  47
ATOM     47  C20 non d ame      -9.386   6.352  68.672  0.00  0.00     0.013 C 
ATOM     48  H30 non d ame      -9.620   5.288  68.670  0.00  0.00     0.072 H 
BRANCH  47  49
ATOM     49  C21 non d ame     -10.653   7.160  68.837  0.00  0.00    -0.038 C 
ATOM     50  H31 non d ame     -11.139   7.147  67.861  0.00  0.00     0.036 H 
ATOM     51  H32 non d ame     -11.161   6.737  69.704  0.00  0.00     0.036 H 
BRANCH  49  52
ATOM     52  C22 non d ame     -10.380   8.643  69.170  0.00  0.00     0.018 C 
ATOM     53  H33 non d ame      -9.333   8.690  69.469  0.00  0.00     0.048 H 
ATOM     54  H34 non d ame     -10.726   9.208  68.305  0.00  0.00     0.048 H 
BRANCH  52  55
ATOM     55  C23 non d ame     -11.196   9.173  70.382  0.00  0.00     0.259 C 
ATOM     56  O7  non d ame     -11.853   8.431  71.037  0.00  0.00    -0.265 OA
BRANCH  55  57
ATOM     57  O8  non d ame     -11.160  10.560  70.693  0.00  0.00    -0.317 OA
BRANCH  57  58
ATOM     58  C29 non d ame     -11.896  11.381  69.782  0.00  0.00     0.052 C 
ATOM     59  H47 non d ame     -11.178  11.699  69.026  0.00  0.00     0.082 H 
ATOM     60  H48 non d ame     -12.767  10.793  69.493  0.00  0.00     0.082 H 
BRANCH  58  61
ATOM     61  C35 non d ame     -12.385  12.635  70.554  0.00  0.00    -0.034 A 
ATOM     62  C30 non d ame     -12.079  13.907  70.082  0.00  0.00    -0.075 A 
ATOM     63  C31 non d ame     -12.518  15.034  70.776  0.00  0.00    -0.082 A 
ATOM     64  H49 non d ame     -11.496  14.022  69.169  0.00  0.00     0.084 H 
ATOM     65  C32 non d ame     -13.263  14.885  71.949  0.00  0.00    -0.083 A 
ATOM     66  H50 non d ame     -12.278  16.029  70.402  0.00  0.00     0.083 H 
ATOM     67  C33 non d ame     -13.564  13.613  72.418  0.00  0.00    -0.082 A 
ATOM     68  H51 non d ame     -13.611  15.760  72.497  0.00  0.00     0.083 H 
ATOM     69  C34 non d ame     -13.129  12.484  71.726  0.00  0.00    -0.075 A 
ATOM     70  H52 non d ame     -14.144  13.500  73.334  0.00  0.00     0.083 H 
ATOM     71  H53 non d ame     -13.370  11.489  72.100  0.00  0.00     0.084 H 
ENDBRANCH  58  61
ENDBRANCH  57  58
ENDBRANCH  55  57
ENDBRANCH  52  55
ENDBRANCH  49  52
ENDBRANCH  47  49
BRANCH  47  72
ATOM     72  C24 non d ame      -8.420   6.681  69.809  0.00  0.00    -0.039 C 
ATOM     73  H35 non d ame      -7.482   6.952  69.324  0.00  0.00     0.036 H 
ATOM     74  H36 non d ame      -8.941   7.409  70.431  0.00  0.00     0.036 H 
BRANCH  72  75
ATOM     75  C25 non d ame      -8.126   5.401  70.726  0.00  0.00    -0.001 C 
ATOM     76  C26 non d ame      -8.787   4.059  70.042  0.00  0.00    -0.035 C 
ATOM     77  C27 non d ame      -9.540   3.422  70.971  0.00  0.00     0.085 C 
ATOM     78  H38 non d ame      -9.510   4.346  69.280  0.00  0.00     0.036 H 
ATOM     79  H39 non d ame      -8.005   3.336  69.808  0.00  0.00     0.036 H 
ATOM     80  N5  non d ame      -9.718   4.377  72.126  0.00  0.00    -0.049 N 
ATOM     81  H40 non d ame     -10.507   3.254  70.495  0.00  0.00     0.075 H 
ATOM     82  H41 non d ame      -8.940   2.574  71.300  0.00  0.00     0.075 H 
ATOM     83  C28 non d ame      -8.627   5.547  71.907  0.00  0.00     0.193 C 
ATOM     84  H42 non d ame     -10.641   4.776  72.027  0.00  0.00     0.280 HD
ATOM     85  H43 non d ame      -9.476   3.864  72.961  0.00  0.00     0.280 HD
ATOM     86  H44 non d ame      -7.717   5.574  72.507  0.00  0.00     0.129 H 
ATOM     87  H37 non d ame      -7.081   5.340  71.028  0.00  0.00     0.046 H 
BRANCH  83  88
ATOM     88  O6  non d ame      -9.236   6.828  72.080  0.00  0.00    -0.369 OA
ATOM     89  H45 non d ame      -9.472   6.948  73.002  0.00  0.00     0.212 HD
ENDBRANCH  83  88
ENDBRANCH  72  75
ENDBRANCH  47  72
ENDBRANCH  45  47
ENDBRANCH   1  43
BRANCH   1  90
ATOM     90  C16 non d ame      -7.342   5.336  64.521  0.00  0.00    -0.035 C 
ATOM     91  H21 non d ame      -7.425   4.556  65.279  0.00  0.00     0.037 H 
ATOM     92  H22 non d ame      -7.402   5.077  63.464  0.00  0.00     0.037 H 
BRANCH  90  93
ATOM     93  C17 non d ame      -5.947   6.008  64.732  0.00  0.00    -0.059 C 
ATOM     94  H23 non d ame      -6.119   7.009  65.126  0.00  0.00     0.038 H 
BRANCH  93  95
ATOM     95  C18 non d ame      -5.070   5.233  65.767  0.00  0.00    -0.073 C 
ATOM     96  H24 non d ame      -4.762   5.911  66.562  0.00  0.00     0.028 H 
ATOM     97  H25 non d ame      -5.650   4.413  66.192  0.00  0.00     0.028 H 
ATOM     98  H26 non d ame      -4.187   4.833  65.267  0.00  0.00     0.028 H 
ENDBRANCH  93  95
BRANCH  93  99
ATOM     99  C19 non d ame      -5.209   6.164  63.400  0.00  0.00    -0.073 C 
ATOM    100  H27 non d ame      -5.860   6.657  62.679  0.00  0.00     0.028 H 
ATOM    101  H28 non d ame      -4.312   6.765  63.551  0.00  0.00     0.028 H 
ATOM    102  H29 non d ame      -4.928   5.181  63.023  0.00  0.00     0.028 H 
ENDBRANCH  93  99
ENDBRANCH  90  93
ENDBRANCH   1  90
TORSDOF 26
ENDMDL
MODEL 19
REMARK VINA RESULT:      -6.4      2.661      9.769
REMARK  26 active torsions:
REMARK  status: ('A' for Active; 'I' for Inactive)
REMARK    1  A    between atoms: C2_2  and  C3_3 
REMARK    2  A    between atoms: C4_6  and  C5_7 
REMARK       I    between atoms: C5_7  and  N2_9 
REMARK    3  A    between atoms: N2_9  and  C6_10 
REMARK    4  A    between atoms: C6_10  and  C7_11 
REMARK    5  A    between atoms: C6_10  and  C8_13 
REMARK       I    between atoms: C7_11  and  N3_14 
REMARK    6  A    between atoms: N3_14  and  C9_15 
REMARK    7  A    between atoms: C9_15  and  C10_16 
REMARK    8  A    between atoms: C9_15  and  C11_18 
REMARK       I    between atoms: C10_16  and  N4_21 
REMARK    9  A    between atoms: C11_18  and  C12_19 
REMARK   10  A    between atoms: C11_18  and  C13_20 
REMARK   11  A    between atoms: N4_21  and  C14_22 
REMARK   12  A    between atoms: C14_22  and  C15_23 
REMARK   13  A    between atoms: C14_22  and  C16_25 
REMARK       I    between atoms: C15_23  and  N6_40 
REMARK   14  A    between atoms: C16_25  and  C17_26 
REMARK   15  A    between atoms: C17_26  and  C18_27 
REMARK   16  A    between atoms: C17_26  and  C19_28 
REMARK   17  A    between atoms: C20_29  and  C21_30 
REMARK   18  A    between atoms: C20_29  and  C24_33 
REMARK   19  A    between atoms: C20_29  and  N6_40 
REMARK   20  A    between atoms: C21_30  and  C22_31 
REMARK   21  A    between atoms: C22_31  and  C23_32 
REMARK   22  A    between atoms: C23_32  and  O8_43 
REMARK   23  A    between atoms: C24_33  and  C25_34 
REMARK   24  A    between atoms: C28_38  and  O6_39 
REMARK   25  A    between atoms: C29_42  and  O8_43 
REMARK   26  A    between atoms: C29_42  and  C35_49 
ROOT
ATOM      1  C14 non d ame      -8.963  10.228  65.957  0.00  0.00     0.089 C 
ATOM      2  H20 non d ame      -9.607   9.607  65.334  0.00  0.00     0.087 H 
ENDROOT
BRANCH   1   3
ATOM      3  N4  non d ame      -9.458  11.594  65.874  0.00  0.00    -0.346 N 
ATOM      4  C10 non d ame     -10.878  11.914  66.268  0.00  0.00     0.241 C 
ATOM      5  O4  non d ame     -11.604  11.055  66.647  0.00  0.00    -0.271 OA
ATOM      6  H19 non d ame      -8.825  12.310  65.547  0.00  0.00     0.163 HD
BRANCH   4   7
ATOM      7  C9  non d ame     -11.373  13.334  66.182  0.00  0.00     0.092 C 
ATOM      8  H11 non d ame     -12.434  13.360  66.429  0.00  0.00     0.088 H 
BRANCH   7   9
ATOM      9  N3  non d ame     -10.676  14.156  67.175  0.00  0.00    -0.346 N 
ATOM     10  C7  non d ame     -11.296  14.428  68.448  0.00  0.00     0.240 C 
ATOM     11  O3  non d ame     -12.357  13.994  68.689  0.00  0.00    -0.271 OA
ATOM     12  H10 non d ame      -9.762  14.539  66.981  0.00  0.00     0.163 HD
BRANCH  10  13
ATOM     13  C6  non d ame     -10.551  15.306  69.501  0.00  0.00     0.086 C 
ATOM     14  H6  non d ame      -9.671  14.813  69.914  0.00  0.00     0.086 H 
BRANCH  13  15
ATOM     15  N2  non d ame     -10.082  16.520  68.854  0.00  0.00    -0.343 N 
ATOM     16  C5  non d ame      -8.780  16.523  68.183  0.00  0.00     0.273 C 
ATOM     17  O2  non d ame      -8.116  15.545  68.172  0.00  0.00    -0.266 OA
ATOM     18  H5  non d ame     -10.654  17.353  68.870  0.00  0.00     0.163 HD
BRANCH  16  19
ATOM     19  C4  non d ame      -8.272  17.799  67.494  0.00  0.00     0.154 A 
ATOM     20  C1  non d ame      -7.597  18.903  68.106  0.00  0.00    -0.017 A 
ATOM     21  C2  non d ame      -7.347  19.807  67.050  0.00  0.00     0.077 A 
ATOM     22  H1  non d ame      -7.330  19.028  69.156  0.00  0.00     0.091 H 
ATOM     23  O1  non d ame      -7.824  19.275  65.963  0.00  0.00    -0.218 OA
ATOM     24  N1  non d ame      -8.369  18.104  66.197  0.00  0.00    -0.123 NA
BRANCH  21  25
ATOM     25  C3  non d ame      -6.646  21.155  67.164  0.00  0.00    -0.029 C 
ATOM     26  H2  non d ame      -5.941  21.129  67.994  0.00  0.00     0.036 H 
ATOM     27  H3  non d ame      -6.111  21.365  66.238  0.00  0.00     0.036 H 
ATOM     28  H4  non d ame      -7.387  21.936  67.340  0.00  0.00     0.036 H 
ENDBRANCH  21  25
ENDBRANCH  16  19
ENDBRANCH  13  15
BRANCH  13  29
ATOM     29  C8  non d ame     -11.491  15.652  70.628  0.00  0.00    -0.049 C 
ATOM     30  H7  non d ame     -10.974  16.281  71.352  0.00  0.00     0.030 H 
ATOM     31  H8  non d ame     -12.353  16.188  70.230  0.00  0.00     0.030 H 
ATOM     32  H9  non d ame     -11.825  14.736  71.115  0.00  0.00     0.030 H 
ENDBRANCH  13  29
ENDBRANCH  10  13
ENDBRANCH   7   9
BRANCH   7  33
ATOM     33  C11 non d ame     -11.090  13.896  64.757  0.00  0.00    -0.033 C 
ATOM     34  H12 non d ame     -10.051  13.672  64.516  0.00  0.00     0.042 H 
BRANCH  33  35
ATOM     35  C12 non d ame     -11.982  13.197  63.684  0.00  0.00    -0.071 C 
ATOM     36  H13 non d ame     -11.377  12.956  62.810  0.00  0.00     0.028 H 
ATOM     37  H14 non d ame     -12.400  12.281  64.099  0.00  0.00     0.028 H 
ATOM     38  H15 non d ame     -12.791  13.867  63.392  0.00  0.00     0.028 H 
ENDBRANCH  33  35
BRANCH  33  39
ATOM     39  C13 non d ame     -11.271  15.447  64.722  0.00  0.00    -0.071 C 
ATOM     40  H16 non d ame     -12.310  15.697  64.938  0.00  0.00     0.028 H 
ATOM     41  H17 non d ame     -10.624  15.906  65.470  0.00  0.00     0.028 H 
ATOM     42  H18 non d ame     -11.006  15.821  63.733  0.00  0.00     0.028 H 
ENDBRANCH  33  39
ENDBRANCH   7  33
ENDBRANCH   4   7
ENDBRANCH   1   3
BRANCH   1  43
ATOM     43  C15 non d ame      -8.981   9.784  67.447  0.00  0.00     0.240 C 
ATOM     44  O5  non d ame      -8.359  10.395  68.254  0.00  0.00    -0.271 OA
ATOM     45  N6  non d ame      -9.783   8.601  67.871  0.00  0.00    -0.355 N 
ATOM     46  H46 non d ame     -10.320   8.076  67.195  0.00  0.00     0.162 HD
BRANCH  45  47
ATOM     47  C20 non d ame      -9.792   8.192  69.292  0.00  0.00     0.013 C 
ATOM     48  H30 non d ame      -9.203   8.917  69.853  0.00  0.00     0.072 H 
BRANCH  47  49
ATOM     49  C21 non d ame      -9.176   6.817  69.420  0.00  0.00    -0.038 C 
ATOM     50  H31 non d ame      -9.248   6.559  70.477  0.00  0.00     0.036 H 
ATOM     51  H32 non d ame      -9.676   6.200  68.673  0.00  0.00     0.036 H 
BRANCH  49  52
ATOM     52  C22 non d ame      -7.673   6.798  69.067  0.00  0.00     0.018 C 
ATOM     53  H33 non d ame      -7.384   7.842  68.948  0.00  0.00     0.048 H 
ATOM     54  H34 non d ame      -7.197   6.185  69.834  0.00  0.00     0.048 H 
BRANCH  52  55
ATOM     55  C23 non d ame      -7.357   6.108  67.711  0.00  0.00     0.259 C 
ATOM     56  O7  non d ame      -6.501   5.287  67.637  0.00  0.00    -0.265 OA
BRANCH  55  57
ATOM     57  O8  non d ame      -8.094   6.479  66.552  0.00  0.00    -0.317 OA
BRANCH  57  58
ATOM     58  C29 non d ame      -7.405   6.238  65.322  0.00  0.00     0.052 C 
ATOM     59  H47 non d ame      -7.262   7.218  64.867  0.00  0.00     0.082 H 
ATOM     60  H48 non d ame      -6.541   5.627  65.582  0.00  0.00     0.082 H 
BRANCH  58  61
ATOM     61  C35 non d ame      -8.339   5.403  64.406  0.00  0.00    -0.034 A 
ATOM     62  C30 non d ame      -8.146   5.403  63.028  0.00  0.00    -0.075 A 
ATOM     63  C31 non d ame      -8.984   4.653  62.205  0.00  0.00    -0.082 A 
ATOM     64  H49 non d ame      -7.337   5.991  62.594  0.00  0.00     0.084 H 
ATOM     65  C32 non d ame     -10.021   3.902  62.765  0.00  0.00    -0.083 A 
ATOM     66  H50 non d ame      -8.829   4.654  61.126  0.00  0.00     0.083 H 
ATOM     67  C33 non d ame     -10.212   3.907  64.140  0.00  0.00    -0.082 A 
ATOM     68  H51 non d ame     -10.681   3.312  62.129  0.00  0.00     0.083 H 
ATOM     69  C34 non d ame      -9.375   4.653  64.966  0.00  0.00    -0.075 A 
ATOM     70  H52 non d ame     -11.024   3.322  64.573  0.00  0.00     0.083 H 
ATOM     71  H53 non d ame      -9.531   4.651  66.046  0.00  0.00     0.084 H 
ENDBRANCH  58  61
ENDBRANCH  57  58
ENDBRANCH  55  57
ENDBRANCH  52  55
ENDBRANCH  49  52
ENDBRANCH  47  49
BRANCH  47  72
ATOM     72  C24 non d ame     -11.228   8.158  69.811  0.00  0.00    -0.039 C 
ATOM     73  H35 non d ame     -11.841   8.534  68.992  0.00  0.00     0.036 H 
ATOM     74  H36 non d ame     -11.378   7.145  70.184  0.00  0.00     0.036 H 
BRANCH  72  75
ATOM     75  C25 non d ame     -11.433   9.153  71.050  0.00  0.00    -0.001 C 
ATOM     76  C26 non d ame     -12.353   8.427  72.204  0.00  0.00    -0.035 C 
ATOM     77  C27 non d ame     -13.371   9.256  72.536  0.00  0.00     0.085 C 
ATOM     78  H38 non d ame     -12.858   7.557  71.786  0.00  0.00     0.036 H 
ATOM     79  H39 non d ame     -11.786   8.335  73.131  0.00  0.00     0.036 H 
ATOM     80  N5  non d ame     -13.420  10.338  71.485  0.00  0.00    -0.049 N 
ATOM     81  H40 non d ame     -14.275   8.650  72.465  0.00  0.00     0.075 H 
ATOM     82  H41 non d ame     -13.086   9.700  73.489  0.00  0.00     0.075 H 
ATOM     83  C28 non d ame     -12.022  10.242  70.683  0.00  0.00     0.193 C 
ATOM     84  H42 non d ame     -14.170  10.091  70.855  0.00  0.00     0.280 HD
ATOM     85  H43 non d ame     -13.446  11.218  71.980  0.00  0.00     0.280 HD
ATOM     86  H44 non d ame     -11.229  10.967  70.864  0.00  0.00     0.129 H 
ATOM     87  H37 non d ame     -10.497   9.607  71.375  0.00  0.00     0.046 H 
BRANCH  83  88
ATOM     88  O6  non d ame     -12.258  10.278  69.274  0.00  0.00    -0.369 OA
ATOM     89  H45 non d ame     -13.011  10.845  69.091  0.00  0.00     0.212 HD
ENDBRANCH  83  88
ENDBRANCH  72  75
ENDBRANCH  47  72
ENDBRANCH  45  47
ENDBRANCH   1  43
BRANCH   1  90
ATOM     90  C16 non d ame      -7.538  10.185  65.428  0.00  0.00    -0.035 C 
ATOM     91  H21 non d ame      -7.142  11.190  65.581  0.00  0.00     0.037 H 
ATOM     92  H22 non d ame      -7.071   9.335  65.926  0.00  0.00     0.037 H 
BRANCH  90  93
ATOM     93  C17 non d ame      -7.446   9.903  63.895  0.00  0.00    -0.059 C 
ATOM     94  H23 non d ame      -7.475  10.863  63.380  0.00  0.00     0.038 H 
BRANCH  93  95
ATOM     95  C18 non d ame      -6.111   9.192  63.505  0.00  0.00    -0.073 C 
ATOM     96  H24 non d ame      -6.293   8.127  63.369  0.00  0.00     0.028 H 
ATOM     97  H25 non d ame      -5.731   9.618  62.575  0.00  0.00     0.028 H 
ATOM     98  H26 non d ame      -5.377   9.338  64.298  0.00  0.00     0.028 H 
ENDBRANCH  93  95
BRANCH  93  99
ATOM     99  C19 non d ame      -8.654   9.094  63.415  0.00  0.00    -0.073 C 
ATOM    100  H27 non d ame      -8.729   8.173  63.995  0.00  0.00     0.028 H 
ATOM    101  H28 non d ame      -9.562   9.682  63.549  0.00  0.00     0.028 H 
ATOM    102  H29 non d ame      -8.532   8.849  62.360  0.00  0.00     0.028 H 
ENDBRANCH  93  99
ENDBRANCH  90  93
ENDBRANCH   1  90
TORSDOF 26
ENDMDL
MODEL 20
REMARK VINA RESULT:      -6.4      3.524      9.748
REMARK  26 active torsions:
REMARK  status: ('A' for Active; 'I' for Inactive)
REMARK    1  A    between atoms: C2_2  and  C3_3 
REMARK    2  A    between atoms: C4_6  and  C5_7 
REMARK       I    between atoms: C5_7  and  N2_9 
REMARK    3  A    between atoms: N2_9  and  C6_10 
REMARK    4  A    between atoms: C6_10  and  C7_11 
REMARK    5  A    between atoms: C6_10  and  C8_13 
REMARK       I    between atoms: C7_11  and  N3_14 
REMARK    6  A    between atoms: N3_14  and  C9_15 
REMARK    7  A    between atoms: C9_15  and  C10_16 
REMARK    8  A    between atoms: C9_15  and  C11_18 
REMARK       I    between atoms: C10_16  and  N4_21 
REMARK    9  A    between atoms: C11_18  and  C12_19 
REMARK   10  A    between atoms: C11_18  and  C13_20 
REMARK   11  A    between atoms: N4_21  and  C14_22 
REMARK   12  A    between atoms: C14_22  and  C15_23 
REMARK   13  A    between atoms: C14_22  and  C16_25 
REMARK       I    between atoms: C15_23  and  N6_40 
REMARK   14  A    between atoms: C16_25  and  C17_26 
REMARK   15  A    between atoms: C17_26  and  C18_27 
REMARK   16  A    between atoms: C17_26  and  C19_28 
REMARK   17  A    between atoms: C20_29  and  C21_30 
REMARK   18  A    between atoms: C20_29  and  C24_33 
REMARK   19  A    between atoms: C20_29  and  N6_40 
REMARK   20  A    between atoms: C21_30  and  C22_31 
REMARK   21  A    between atoms: C22_31  and  C23_32 
REMARK   22  A    between atoms: C23_32  and  O8_43 
REMARK   23  A    between atoms: C24_33  and  C25_34 
REMARK   24  A    between atoms: C28_38  and  O6_39 
REMARK   25  A    between atoms: C29_42  and  O8_43 
REMARK   26  A    between atoms: C29_42  and  C35_49 
ROOT
ATOM      1  C14 non d ame      -7.993   8.286  63.744  0.00  0.00     0.089 C 
ATOM      2  H20 non d ame      -8.156   8.486  62.685  0.00  0.00     0.087 H 
ENDROOT
BRANCH   1   3
ATOM      3  N4  non d ame      -8.918   9.121  64.496  0.00  0.00    -0.346 N 
ATOM      4  C10 non d ame      -9.615  10.279  63.826  0.00  0.00     0.241 C 
ATOM      5  O4  non d ame      -9.413  10.520  62.682  0.00  0.00    -0.271 OA
ATOM      6  H19 non d ame      -9.074   8.900  65.469  0.00  0.00     0.163 HD
BRANCH   4   7
ATOM      7  C9  non d ame     -10.574  11.129  64.617  0.00  0.00     0.092 C 
ATOM      8  H11 non d ame     -11.481  10.558  64.815  0.00  0.00     0.088 H 
BRANCH   7   9
ATOM      9  N3  non d ame      -9.978  11.459  65.915  0.00  0.00    -0.346 N 
ATOM     10  C7  non d ame     -10.819  11.604  67.078  0.00  0.00     0.240 C 
ATOM     11  O3  non d ame     -11.977  11.461  66.987  0.00  0.00    -0.271 OA
ATOM     12  H10 non d ame      -8.980  11.588  66.009  0.00  0.00     0.163 HD
BRANCH  10  13
ATOM     13  C6  non d ame     -10.179  11.959  68.456  0.00  0.00     0.086 C 
ATOM     14  H6  non d ame     -10.682  12.788  68.954  0.00  0.00     0.086 H 
BRANCH  13  15
ATOM     15  N2  non d ame     -10.297  10.811  69.340  0.00  0.00    -0.343 N 
ATOM     16  C5  non d ame     -11.415  10.738  70.283  0.00  0.00     0.273 C 
ATOM     17  O2  non d ame     -12.212  11.610  70.326  0.00  0.00    -0.266 OA
ATOM     18  H5  non d ame      -9.610  10.072  69.299  0.00  0.00     0.163 HD
BRANCH  16  19
ATOM     19  C4  non d ame     -11.553   9.530  71.222  0.00  0.00     0.154 A 
ATOM     20  C1  non d ame     -10.495   8.777  71.824  0.00  0.00    -0.017 A 
ATOM     21  C2  non d ame     -11.146   7.783  72.589  0.00  0.00     0.077 A 
ATOM     22  H1  non d ame      -9.420   8.929  71.722  0.00  0.00     0.091 H 
ATOM     23  O1  non d ame     -12.426   7.955  72.438  0.00  0.00    -0.218 OA
ATOM     24  N1  non d ame     -12.689   8.968  71.645  0.00  0.00    -0.123 NA
BRANCH  21  25
ATOM     25  C3  non d ame     -10.471   6.710  73.434  0.00  0.00    -0.029 C 
ATOM     26  H2  non d ame     -11.194   5.931  73.676  0.00  0.00     0.036 H 
ATOM     27  H3  non d ame      -9.642   6.276  72.875  0.00  0.00     0.036 H 
ATOM     28  H4  non d ame     -10.095   7.156  74.355  0.00  0.00     0.036 H 
ENDBRANCH  21  25
ENDBRANCH  16  19
ENDBRANCH  13  15
BRANCH  13  29
ATOM     29  C8  non d ame      -8.727  12.315  68.263  0.00  0.00    -0.049 C 
ATOM     30  H7  non d ame      -8.213  12.279  69.224  0.00  0.00     0.030 H 
ATOM     31  H8  non d ame      -8.266  11.603  67.578  0.00  0.00     0.030 H 
ATOM     32  H9  non d ame      -8.652  13.320  67.849  0.00  0.00     0.030 H 
ENDBRANCH  13  29
ENDBRANCH  10  13
ENDBRANCH   7   9
BRANCH   7  33
ATOM     33  C11 non d ame     -10.868  12.443  63.836  0.00  0.00    -0.033 C 
ATOM     34  H12 non d ame     -10.247  12.439  62.940  0.00  0.00     0.042 H 
BRANCH  33  35
ATOM     35  C12 non d ame     -12.357  12.509  63.374  0.00  0.00    -0.071 C 
ATOM     36  H13 non d ame     -12.731  13.525  63.496  0.00  0.00     0.028 H 
ATOM     37  H14 non d ame     -12.424  12.222  62.324  0.00  0.00     0.028 H 
ATOM     38  H15 non d ame     -12.954  11.826  63.977  0.00  0.00     0.028 H 
ENDBRANCH  33  35
BRANCH  33  39
ATOM     39  C13 non d ame     -10.482  13.697  64.684  0.00  0.00    -0.071 C 
ATOM     40  H16 non d ame     -10.621  13.477  65.742  0.00  0.00     0.028 H 
ATOM     41  H17 non d ame      -9.438  13.954  64.501  0.00  0.00     0.028 H 
ATOM     42  H18 non d ame     -11.118  14.536  64.401  0.00  0.00     0.028 H 
ENDBRANCH  33  39
ENDBRANCH   7  33
ENDBRANCH   4   7
ENDBRANCH   1   3
BRANCH   1  43
ATOM     43  C15 non d ame      -8.261   6.798  64.109  0.00  0.00     0.240 C 
ATOM     44  O5  non d ame      -8.226   5.966  63.262  0.00  0.00    -0.271 OA
ATOM     45  N6  non d ame      -8.553   6.409  65.519  0.00  0.00    -0.355 N 
ATOM     46  H46 non d ame      -8.581   7.106  66.248  0.00  0.00     0.162 HD
BRANCH  45  47
ATOM     47  C20 non d ame      -8.804   4.989  65.850  0.00  0.00     0.013 C 
ATOM     48  H30 non d ame      -8.770   4.417  64.923  0.00  0.00     0.072 H 
BRANCH  47  49
ATOM     49  C21 non d ame     -10.170   4.859  66.487  0.00  0.00    -0.038 C 
ATOM     50  H31 non d ame     -10.649   5.829  66.356  0.00  0.00     0.036 H 
ATOM     51  H32 non d ame     -10.615   3.966  66.046  0.00  0.00     0.036 H 
BRANCH  49  52
ATOM     52  C22 non d ame     -10.099   4.607  68.008  0.00  0.00     0.018 C 
ATOM     53  H33 non d ame     -10.913   3.916  68.231  0.00  0.00     0.048 H 
ATOM     54  H34 non d ame      -9.068   4.318  68.213  0.00  0.00     0.048 H 
BRANCH  52  55
ATOM     55  C23 non d ame     -10.367   5.875  68.866  0.00  0.00     0.259 C 
ATOM     56  O7  non d ame     -11.471   6.151  69.206  0.00  0.00    -0.265 OA
BRANCH  55  57
ATOM     57  O8  non d ame      -9.276   6.712  69.231  0.00  0.00    -0.317 OA
BRANCH  57  58
ATOM     58  C29 non d ame      -9.173   7.907  68.451  0.00  0.00     0.052 C 
ATOM     59  H47 non d ame      -9.248   7.588  67.411  0.00  0.00     0.082 H 
ATOM     60  H48 non d ame      -9.911   8.594  68.865  0.00  0.00     0.082 H 
BRANCH  58  61
ATOM     61  C35 non d ame      -7.761   8.508  68.680  0.00  0.00    -0.034 A 
ATOM     62  C30 non d ame      -7.193   8.489  69.950  0.00  0.00    -0.075 A 
ATOM     63  C31 non d ame      -5.924   9.028  70.156  0.00  0.00    -0.082 A 
ATOM     64  H49 non d ame      -7.742   8.050  70.784  0.00  0.00     0.084 H 
ATOM     65  C32 non d ame      -5.223   9.592  69.086  0.00  0.00    -0.083 A 
ATOM     66  H50 non d ame      -5.481   9.010  71.152  0.00  0.00     0.083 H 
ATOM     67  C33 non d ame      -5.795   9.611  67.821  0.00  0.00    -0.082 A 
ATOM     68  H51 non d ame      -4.231  10.015  69.238  0.00  0.00     0.083 H 
ATOM     69  C34 non d ame      -7.062   9.071  67.610  0.00  0.00    -0.075 A 
ATOM     70  H52 non d ame      -5.247  10.054  66.989  0.00  0.00     0.083 H 
ATOM     71  H53 non d ame      -7.504   9.089  66.614  0.00  0.00     0.084 H 
ENDBRANCH  58  61
ENDBRANCH  57  58
ENDBRANCH  55  57
ENDBRANCH  52  55
ENDBRANCH  49  52
ENDBRANCH  47  49
BRANCH  47  72
ATOM     72  C24 non d ame      -7.738   4.489  66.822  0.00  0.00    -0.039 C 
ATOM     73  H35 non d ame      -8.152   4.657  67.817  0.00  0.00     0.036 H 
ATOM     74  H36 non d ame      -7.499   3.477  66.495  0.00  0.00     0.036 H 
BRANCH  72  75
ATOM     75  C25 non d ame      -6.391   5.350  66.719  0.00  0.00    -0.001 C 
ATOM     76  C26 non d ame      -5.271   4.534  65.834  0.00  0.00    -0.035 C 
ATOM     77  C27 non d ame      -4.113   4.485  66.535  0.00  0.00     0.085 C 
ATOM     78  H38 non d ame      -5.558   3.487  65.742  0.00  0.00     0.036 H 
ATOM     79  H39 non d ame      -5.007   5.107  64.945  0.00  0.00     0.036 H 
ATOM     80  N5  non d ame      -4.434   4.905  67.949  0.00  0.00    -0.049 N 
ATOM     81  H40 non d ame      -3.816   3.435  66.535  0.00  0.00     0.075 H 
ATOM     82  H41 non d ame      -3.466   5.234  66.080  0.00  0.00     0.075 H 
ATOM     83  C28 non d ame      -5.896   5.586  67.888  0.00  0.00     0.193 C 
ATOM     84  H42 non d ame      -4.497   4.056  68.492  0.00  0.00     0.280 HD
ATOM     85  H43 non d ame      -3.759   5.615  68.197  0.00  0.00     0.280 HD
ATOM     86  H44 non d ame      -6.005   6.670  67.935  0.00  0.00     0.129 H 
ATOM     87  H37 non d ame      -6.584   6.387  66.441  0.00  0.00     0.046 H 
BRANCH  83  88
ATOM     88  O6  non d ame      -6.722   5.075  68.936  0.00  0.00    -0.369 OA
ATOM     89  H45 non d ame      -7.096   5.805  69.434  0.00  0.00     0.212 HD
ENDBRANCH  83  88
ENDBRANCH  72  75
ENDBRANCH  47  72
ENDBRANCH  45  47
ENDBRANCH   1  43
BRANCH   1  90
ATOM     90  C16 non d ame      -6.569   8.657  64.125  0.00  0.00    -0.035 C 
ATOM     91  H21 non d ame      -6.580   9.738  64.265  0.00  0.00     0.037 H 
ATOM     92  H22 non d ame      -6.312   8.002  64.958  0.00  0.00     0.037 H 
BRANCH  90  93
ATOM     93  C17 non d ame      -5.524   8.369  62.999  0.00  0.00    -0.059 C 
ATOM     94  H23 non d ame      -6.062   8.327  62.052  0.00  0.00     0.038 H 
BRANCH  93  95
ATOM     95  C18 non d ame      -4.451   9.499  62.888  0.00  0.00    -0.073 C 
ATOM     96  H24 non d ame      -4.111   9.576  61.856  0.00  0.00     0.028 H 
ATOM     97  H25 non d ame      -4.889  10.447  63.199  0.00  0.00     0.028 H 
ATOM     98  H26 non d ame      -3.605   9.260  63.533  0.00  0.00     0.028 H 
ENDBRANCH  93  95
BRANCH  93  99
ATOM     99  C19 non d ame      -4.860   7.005  63.206  0.00  0.00    -0.073 C 
ATOM    100  H27 non d ame      -4.904   6.435  62.277  0.00  0.00     0.028 H 
ATOM    101  H28 non d ame      -3.819   7.149  63.496  0.00  0.00     0.028 H 
ATOM    102  H29 non d ame      -5.384   6.461  63.991  0.00  0.00     0.028 H 
ENDBRANCH  93  99
ENDBRANCH  90  93
ENDBRANCH   1  90
TORSDOF 26
ENDMDL
