MODEL 1
REMARK VINA RESULT:      -7.3      0.000      0.000
REMARK  26 active torsions:
REMARK  status: ('A' for Active; 'I' for Inactive)
REMARK    1  A    between atoms: C2_2  and  C3_3 
REMARK    2  A    between atoms: C4_6  and  C5_7 
REMARK       I    between atoms: C5_7  and  N2_9 
REMARK    3  A    between atoms: N2_9  and  C6_10 
REMARK    4  A    between atoms: C6_10  and  C7_11 
REMARK    5  A    between atoms: C6_10  and  C8_13 
REMARK       I    between atoms: C7_11  and  N3_14 
REMARK    6  A    between atoms: N3_14  and  C9_15 
REMARK    7  A    between atoms: C9_15  and  C10_16 
REMARK    8  A    between atoms: C9_15  and  C11_18 
REMARK       I    between atoms: C10_16  and  N4_21 
REMARK    9  A    between atoms: C11_18  and  C12_19 
REMARK   10  A    between atoms: C11_18  and  C13_20 
REMARK   11  A    between atoms: N4_21  and  C14_22 
REMARK   12  A    between atoms: C14_22  and  C15_23 
REMARK   13  A    between atoms: C14_22  and  C16_25 
REMARK       I    between atoms: C15_23  and  N6_40 
REMARK   14  A    between atoms: C16_25  and  C17_26 
REMARK   15  A    between atoms: C17_26  and  C18_27 
REMARK   16  A    between atoms: C17_26  and  C19_28 
REMARK   17  A    between atoms: C20_29  and  C21_30 
REMARK   18  A    between atoms: C20_29  and  C24_33 
REMARK   19  A    between atoms: C20_29  and  N6_40 
REMARK   20  A    between atoms: C21_30  and  C22_31 
REMARK   21  A    between atoms: C22_31  and  C23_32 
REMARK   22  A    between atoms: C23_32  and  O8_43 
REMARK   23  A    between atoms: C24_33  and  C25_34 
REMARK   24  A    between atoms: C28_38  and  O6_39 
REMARK   25  A    between atoms: C29_42  and  O8_43 
REMARK   26  A    between atoms: C29_42  and  C35_49 
ROOT
ATOM      1  C14 non d ame     -12.288  14.425  70.543  0.00  0.00     0.089 C 
ATOM      2  H20 non d ame     -13.372  14.459  70.655  0.00  0.00     0.087 H 
ENDROOT
BRANCH   1   3
ATOM      3  N4  non d ame     -11.921  13.050  70.237  0.00  0.00    -0.346 N 
ATOM      4  C10 non d ame     -12.559  11.907  70.985  0.00  0.00     0.241 C 
ATOM      5  O4  non d ame     -13.363  12.119  71.833  0.00  0.00    -0.271 OA
ATOM      6  H19 non d ame     -11.234  12.892  69.514  0.00  0.00     0.163 HD
BRANCH   4   7
ATOM      7  C9  non d ame     -12.172  10.490  70.651  0.00  0.00     0.092 C 
ATOM      8  H11 non d ame     -12.741  10.159  69.782  0.00  0.00     0.088 H 
BRANCH   7   9
ATOM      9  N3  non d ame     -10.754  10.445  70.283  0.00  0.00    -0.346 N 
ATOM     10  C7  non d ame     -10.369  10.483  68.893  0.00  0.00     0.240 C 
ATOM     11  O3  non d ame     -11.187  10.550  68.059  0.00  0.00    -0.271 OA
ATOM     12  H10 non d ame     -10.037  10.385  70.991  0.00  0.00     0.163 HD
BRANCH  10  13
ATOM     13  C6  non d ame      -8.858  10.431  68.508  0.00  0.00     0.086 C 
ATOM     14  H6  non d ame      -8.700  10.266  67.442  0.00  0.00     0.086 H 
BRANCH  13  15
ATOM     15  N2  non d ame      -8.246  11.711  68.825  0.00  0.00    -0.343 N 
ATOM     16  C5  non d ame      -7.275  12.296  67.898  0.00  0.00     0.273 C 
ATOM     17  O2  non d ame      -6.991  11.728  66.901  0.00  0.00    -0.266 OA
ATOM     18  H5  non d ame      -8.492  12.188  69.681  0.00  0.00     0.163 HD
BRANCH  16  19
ATOM     19  C4  non d ame      -6.621  13.648  68.220  0.00  0.00     0.154 A 
ATOM     20  C1  non d ame      -6.571  14.304  69.491  0.00  0.00    -0.017 A 
ATOM     21  C2  non d ame      -5.865  15.504  69.253  0.00  0.00     0.077 A 
ATOM     22  H1  non d ame      -6.984  13.961  70.440  0.00  0.00     0.091 H 
ATOM     23  O1  non d ame      -5.550  15.525  67.991  0.00  0.00    -0.218 OA
ATOM     24  N1  non d ame      -5.980  14.453  67.367  0.00  0.00    -0.123 NA
BRANCH  21  25
ATOM     25  C3  non d ame      -5.534  16.575  70.285  0.00  0.00    -0.029 C 
ATOM     26  H2  non d ame      -6.293  17.357  70.253  0.00  0.00     0.036 H 
ATOM     27  H3  non d ame      -5.514  16.127  71.279  0.00  0.00     0.036 H 
ATOM     28  H4  non d ame      -4.558  17.006  70.061  0.00  0.00     0.036 H 
ENDBRANCH  21  25
ENDBRANCH  16  19
ENDBRANCH  13  15
BRANCH  13  29
ATOM     29  C8  non d ame      -8.178   9.328  69.278  0.00  0.00    -0.049 C 
ATOM     30  H7  non d ame      -7.178   9.166  68.875  0.00  0.00     0.030 H 
ATOM     31  H8  non d ame      -8.105   9.609  70.328  0.00  0.00     0.030 H 
ATOM     32  H9  non d ame      -8.758   8.410  69.186  0.00  0.00     0.030 H 
ENDBRANCH  13  29
ENDBRANCH  10  13
ENDBRANCH   7   9
BRANCH   7  33
ATOM     33  C11 non d ame     -12.413   9.581  71.891  0.00  0.00    -0.033 C 
ATOM     34  H12 non d ame     -12.464  10.227  72.768  0.00  0.00     0.042 H 
BRANCH  33  35
ATOM     35  C12 non d ame     -13.775   8.825  71.786  0.00  0.00    -0.071 C 
ATOM     36  H13 non d ame     -14.591   9.519  71.985  0.00  0.00     0.028 H 
ATOM     37  H14 non d ame     -13.885   8.414  70.783  0.00  0.00     0.028 H 
ATOM     38  H15 non d ame     -13.798   8.017  72.516  0.00  0.00     0.028 H 
ENDBRANCH  33  35
BRANCH  33  39
ATOM     39  C13 non d ame     -11.226   8.584  72.093  0.00  0.00    -0.071 C 
ATOM     40  H16 non d ame     -10.469   9.045  72.726  0.00  0.00     0.028 H 
ATOM     41  H17 non d ame     -11.593   7.674  72.569  0.00  0.00     0.028 H 
ATOM     42  H18 non d ame     -10.791   8.338  71.124  0.00  0.00     0.028 H 
ENDBRANCH  33  39
ENDBRANCH   7  33
ENDBRANCH   4   7
ENDBRANCH   1   3
BRANCH   1  43
ATOM     43  C15 non d ame     -11.787  15.340  69.389  0.00  0.00     0.240 C 
ATOM     44  O5  non d ame     -11.981  16.512  69.438  0.00  0.00    -0.271 OA
ATOM     45  N6  non d ame     -11.059  14.757  68.227  0.00  0.00    -0.355 N 
ATOM     46  H46 non d ame     -10.884  13.763  68.177  0.00  0.00     0.162 HD
BRANCH  45  47
ATOM     47  C20 non d ame     -10.588  15.640  67.138  0.00  0.00     0.013 C 
ATOM     48  H30 non d ame     -11.272  16.487  67.074  0.00  0.00     0.072 H 
BRANCH  47  49
ATOM     49  C21 non d ame     -10.592  14.873  65.835  0.00  0.00    -0.038 C 
ATOM     50  H31 non d ame     -11.585  15.019  65.410  0.00  0.00     0.036 H 
ATOM     51  H32 non d ame      -9.710  15.214  65.291  0.00  0.00     0.036 H 
BRANCH  49  52
ATOM     52  C22 non d ame     -10.421  13.352  66.035  0.00  0.00     0.018 C 
ATOM     53  H33 non d ame      -9.420  13.116  65.672  0.00  0.00     0.048 H 
ATOM     54  H34 non d ame     -10.682  13.160  67.076  0.00  0.00     0.048 H 
BRANCH  52  55
ATOM     55  C23 non d ame     -11.399  12.495  65.184  0.00  0.00     0.259 C 
ATOM     56  O7  non d ame     -12.559  12.471  65.440  0.00  0.00    -0.265 OA
BRANCH  55  57
ATOM     57  O8  non d ame     -10.889  11.727  64.100  0.00  0.00    -0.317 OA
BRANCH  57  58
ATOM     58  C29 non d ame     -10.256  10.507  64.498  0.00  0.00     0.052 C 
ATOM     59  H47 non d ame      -9.721  10.740  65.419  0.00  0.00     0.082 H 
ATOM     60  H48 non d ame     -11.042   9.753  64.500  0.00  0.00     0.082 H 
BRANCH  58  61
ATOM     61  C35 non d ame      -9.217  10.130  63.409  0.00  0.00    -0.034 A 
ATOM     62  C30 non d ame      -8.648   8.861  63.398  0.00  0.00    -0.075 A 
ATOM     63  C31 non d ame      -7.714   8.522  62.420  0.00  0.00    -0.082 A 
ATOM     64  H49 non d ame      -8.934   8.131  64.156  0.00  0.00     0.084 H 
ATOM     65  C32 non d ame      -7.348   9.459  61.451  0.00  0.00    -0.083 A 
ATOM     66  H50 non d ame      -7.272   7.525  62.413  0.00  0.00     0.083 H 
ATOM     67  C33 non d ame      -7.915  10.726  61.467  0.00  0.00    -0.082 A 
ATOM     68  H51 non d ame      -6.619   9.203  60.682  0.00  0.00     0.083 H 
ATOM     69  C34 non d ame      -8.851  11.068  62.442  0.00  0.00    -0.075 A 
ATOM     70  H52 non d ame      -7.625  11.456  60.711  0.00  0.00     0.083 H 
ATOM     71  H53 non d ame      -9.293  12.065  62.447  0.00  0.00     0.084 H 
ENDBRANCH  58  61
ENDBRANCH  57  58
ENDBRANCH  55  57
ENDBRANCH  52  55
ENDBRANCH  49  52
ENDBRANCH  47  49
BRANCH  47  72
ATOM     72  C24 non d ame      -9.172  16.124  67.442  0.00  0.00    -0.039 C 
ATOM     73  H35 non d ame      -8.893  15.637  68.376  0.00  0.00     0.036 H 
ATOM     74  H36 non d ame      -8.599  15.931  66.535  0.00  0.00     0.036 H 
BRANCH  72  75
ATOM     75  C25 non d ame      -9.128  17.704  67.701  0.00  0.00    -0.001 C 
ATOM     76  C26 non d ame     -10.462  18.415  67.055  0.00  0.00    -0.035 C 
ATOM     77  C27 non d ame     -10.070  19.447  66.270  0.00  0.00     0.085 C 
ATOM     78  H38 non d ame     -10.947  17.734  66.356  0.00  0.00     0.036 H 
ATOM     79  H39 non d ame     -11.046  18.898  67.839  0.00  0.00     0.036 H 
ATOM     80  N5  non d ame      -8.582  19.303  66.062  0.00  0.00    -0.049 N 
ATOM     81  H40 non d ame     -10.579  19.299  65.317  0.00  0.00     0.075 H 
ATOM     82  H41 non d ame     -10.261  20.346  66.855  0.00  0.00     0.075 H 
ATOM     83  C28 non d ame      -8.081  18.237  67.165  0.00  0.00     0.193 C 
ATOM     84  H42 non d ame      -8.459  18.899  65.145  0.00  0.00     0.280 HD
ATOM     85  H43 non d ame      -8.175  20.203  66.276  0.00  0.00     0.280 HD
ATOM     86  H44 non d ame      -7.550  18.571  68.057  0.00  0.00     0.129 H 
ATOM     87  H37 non d ame      -8.890  17.946  68.737  0.00  0.00     0.046 H 
BRANCH  83  88
ATOM     88  O6  non d ame      -7.231  17.262  66.558  0.00  0.00    -0.369 OA
ATOM     89  H45 non d ame      -6.695  17.682  65.882  0.00  0.00     0.212 HD
ENDBRANCH  83  88
ENDBRANCH  72  75
ENDBRANCH  47  72
ENDBRANCH  45  47
ENDBRANCH   1  43
BRANCH   1  90
ATOM     90  C16 non d ame     -11.622  14.837  71.847  0.00  0.00    -0.035 C 
ATOM     91  H21 non d ame     -11.416  13.904  72.373  0.00  0.00     0.037 H 
ATOM     92  H22 non d ame     -10.801  15.492  71.558  0.00  0.00     0.037 H 
BRANCH  90  93
ATOM     93  C17 non d ame     -12.548  15.676  72.785  0.00  0.00    -0.059 C 
ATOM     94  H23 non d ame     -12.238  16.718  72.709  0.00  0.00     0.038 H 
BRANCH  93  95
ATOM     95  C18 non d ame     -14.049  15.593  72.360  0.00  0.00    -0.073 C 
ATOM     96  H24 non d ame     -14.677  15.562  73.250  0.00  0.00     0.028 H 
ATOM     97  H25 non d ame     -14.306  16.468  71.763  0.00  0.00     0.028 H 
ATOM     98  H26 non d ame     -14.210  14.691  71.769  0.00  0.00     0.028 H 
ENDBRANCH  93  95
BRANCH  93  99
ATOM     99  C19 non d ame     -12.371  15.255  74.246  0.00  0.00    -0.073 C 
ATOM    100  H27 non d ame     -12.334  16.142  74.878  0.00  0.00     0.028 H 
ATOM    101  H28 non d ame     -13.212  14.629  74.548  0.00  0.00     0.028 H 
ATOM    102  H29 non d ame     -11.444  14.692  74.353  0.00  0.00     0.028 H 
ENDBRANCH  93  99
ENDBRANCH  90  93
ENDBRANCH   1  90
TORSDOF 26
ENDMDL
MODEL 2
REMARK VINA RESULT:      -7.0      2.085      5.885
REMARK  26 active torsions:
REMARK  status: ('A' for Active; 'I' for Inactive)
REMARK    1  A    between atoms: C2_2  and  C3_3 
REMARK    2  A    between atoms: C4_6  and  C5_7 
REMARK       I    between atoms: C5_7  and  N2_9 
REMARK    3  A    between atoms: N2_9  and  C6_10 
REMARK    4  A    between atoms: C6_10  and  C7_11 
REMARK    5  A    between atoms: C6_10  and  C8_13 
REMARK       I    between atoms: C7_11  and  N3_14 
REMARK    6  A    between atoms: N3_14  and  C9_15 
REMARK    7  A    between atoms: C9_15  and  C10_16 
REMARK    8  A    between atoms: C9_15  and  C11_18 
REMARK       I    between atoms: C10_16  and  N4_21 
REMARK    9  A    between atoms: C11_18  and  C12_19 
REMARK   10  A    between atoms: C11_18  and  C13_20 
REMARK   11  A    between atoms: N4_21  and  C14_22 
REMARK   12  A    between atoms: C14_22  and  C15_23 
REMARK   13  A    between atoms: C14_22  and  C16_25 
REMARK       I    between atoms: C15_23  and  N6_40 
REMARK   14  A    between atoms: C16_25  and  C17_26 
REMARK   15  A    between atoms: C17_26  and  C18_27 
REMARK   16  A    between atoms: C17_26  and  C19_28 
REMARK   17  A    between atoms: C20_29  and  C21_30 
REMARK   18  A    between atoms: C20_29  and  C24_33 
REMARK   19  A    between atoms: C20_29  and  N6_40 
REMARK   20  A    between atoms: C21_30  and  C22_31 
REMARK   21  A    between atoms: C22_31  and  C23_32 
REMARK   22  A    between atoms: C23_32  and  O8_43 
REMARK   23  A    between atoms: C24_33  and  C25_34 
REMARK   24  A    between atoms: C28_38  and  O6_39 
REMARK   25  A    between atoms: C29_42  and  O8_43 
REMARK   26  A    between atoms: C29_42  and  C35_49 
ROOT
ATOM      1  C14 non d ame     -12.085  14.041  69.570  0.00  0.00     0.089 C 
ATOM      2  H20 non d ame     -13.064  13.881  69.118  0.00  0.00     0.087 H 
ENDROOT
BRANCH   1   3
ATOM      3  N4  non d ame     -11.615  12.756  70.065  0.00  0.00    -0.346 N 
ATOM      4  C10 non d ame     -11.714  11.524  69.201  0.00  0.00     0.241 C 
ATOM      5  O4  non d ame     -12.178  11.592  68.111  0.00  0.00    -0.271 OA
ATOM      6  H19 non d ame     -11.225  12.719  70.997  0.00  0.00     0.163 HD
BRANCH   4   7
ATOM      7  C9  non d ame     -11.217  10.203  69.728  0.00  0.00     0.092 C 
ATOM      8  H11 non d ame     -11.584   9.401  69.087  0.00  0.00     0.088 H 
BRANCH   7   9
ATOM      9  N3  non d ame      -9.753  10.171  69.666  0.00  0.00    -0.346 N 
ATOM     10  C7  non d ame      -9.092   9.426  68.624  0.00  0.00     0.240 C 
ATOM     11  O3  non d ame      -9.723   8.845  67.827  0.00  0.00    -0.271 OA
ATOM     12  H10 non d ame      -9.195  10.666  70.348  0.00  0.00     0.163 HD
BRANCH  10  13
ATOM     13  C6  non d ame      -7.533   9.393  68.565  0.00  0.00     0.086 C 
ATOM     14  H6  non d ame      -7.155   8.974  67.633  0.00  0.00     0.086 H 
BRANCH  13  15
ATOM     15  N2  non d ame      -7.030  10.754  68.644  0.00  0.00    -0.343 N 
ATOM     16  C5  non d ame      -6.632  11.448  67.417  0.00  0.00     0.273 C 
ATOM     17  O2  non d ame      -6.718  10.901  66.372  0.00  0.00    -0.266 OA
ATOM     18  H5  non d ame      -6.957  11.212  69.541  0.00  0.00     0.163 HD
BRANCH  16  19
ATOM     19  C4  non d ame      -6.099  12.888  67.485  0.00  0.00     0.154 A 
ATOM     20  C1  non d ame      -6.861  14.083  67.685  0.00  0.00    -0.017 A 
ATOM     21  C2  non d ame      -5.909  15.127  67.667  0.00  0.00     0.077 A 
ATOM     22  H1  non d ame      -7.938  14.177  67.823  0.00  0.00     0.091 H 
ATOM     23  O1  non d ame      -4.742  14.584  67.480  0.00  0.00    -0.218 OA
ATOM     24  N1  non d ame      -4.827  13.279  67.370  0.00  0.00    -0.123 NA
BRANCH  21  25
ATOM     25  C3  non d ame      -6.198  16.612  67.838  0.00  0.00    -0.029 C 
ATOM     26  H2  non d ame      -5.277  17.134  68.100  0.00  0.00     0.036 H 
ATOM     27  H3  non d ame      -6.591  17.015  66.905  0.00  0.00     0.036 H 
ATOM     28  H4  non d ame      -6.933  16.752  68.631  0.00  0.00     0.036 H 
ENDBRANCH  21  25
ENDBRANCH  16  19
ENDBRANCH  13  15
BRANCH  13  29
ATOM     29  C8  non d ame      -7.001   8.578  69.717  0.00  0.00    -0.049 C 
ATOM     30  H7  non d ame      -6.189   7.941  69.367  0.00  0.00     0.030 H 
ATOM     31  H8  non d ame      -6.631   9.246  70.494  0.00  0.00     0.030 H 
ATOM     32  H9  non d ame      -7.800   7.957  70.121  0.00  0.00     0.030 H 
ENDBRANCH  13  29
ENDBRANCH  10  13
ENDBRANCH   7   9
BRANCH   7  33
ATOM     33  C11 non d ame     -11.676  10.029  71.206  0.00  0.00    -0.033 C 
ATOM     34  H12 non d ame     -11.386  10.929  71.748  0.00  0.00     0.042 H 
BRANCH  33  35
ATOM     35  C12 non d ame     -13.227   9.899  71.308  0.00  0.00    -0.071 C 
ATOM     36  H13 non d ame     -13.695  10.788  70.885  0.00  0.00     0.028 H 
ATOM     37  H14 non d ame     -13.555   9.019  70.755  0.00  0.00     0.028 H 
ATOM     38  H15 non d ame     -13.515   9.799  72.354  0.00  0.00     0.028 H 
ENDBRANCH  33  35
BRANCH  33  39
ATOM     39  C13 non d ame     -10.960   8.811  71.873  0.00  0.00    -0.071 C 
ATOM     40  H16 non d ame     -10.663   9.076  72.888  0.00  0.00     0.028 H 
ATOM     41  H17 non d ame     -11.642   7.961  71.905  0.00  0.00     0.028 H 
ATOM     42  H18 non d ame     -10.076   8.547  71.293  0.00  0.00     0.028 H 
ENDBRANCH  33  39
ENDBRANCH   7  33
ENDBRANCH   4   7
ENDBRANCH   1   3
BRANCH   1  43
ATOM     43  C15 non d ame     -11.048  14.587  68.547  0.00  0.00     0.240 C 
ATOM     44  O5  non d ame     -10.028  15.060  68.933  0.00  0.00    -0.271 OA
ATOM     45  N6  non d ame     -11.322  14.510  67.083  0.00  0.00    -0.355 N 
ATOM     46  H46 non d ame     -12.182  14.106  66.743  0.00  0.00     0.162 HD
BRANCH  45  47
ATOM     47  C20 non d ame     -10.325  15.032  66.123  0.00  0.00     0.013 C 
ATOM     48  H30 non d ame      -9.336  14.899  66.561  0.00  0.00     0.072 H 
BRANCH  47  49
ATOM     49  C21 non d ame     -10.588  16.501  65.878  0.00  0.00    -0.038 C 
ATOM     50  H31 non d ame     -10.626  16.617  64.795  0.00  0.00     0.036 H 
ATOM     51  H32 non d ame     -11.460  16.748  66.484  0.00  0.00     0.036 H 
BRANCH  49  52
ATOM     52  C22 non d ame      -9.440  17.406  66.375  0.00  0.00     0.018 C 
ATOM     53  H33 non d ame      -8.700  16.733  66.811  0.00  0.00     0.048 H 
ATOM     54  H34 non d ame      -9.171  18.034  65.525  0.00  0.00     0.048 H 
BRANCH  52  55
ATOM     55  C23 non d ame      -9.856  18.379  67.512  0.00  0.00     0.259 C 
ATOM     56  O7  non d ame     -10.990  18.449  67.861  0.00  0.00    -0.265 OA
BRANCH  55  57
ATOM     57  O8  non d ame      -8.868  19.198  68.125  0.00  0.00    -0.317 OA
BRANCH  57  58
ATOM     58  C29 non d ame      -8.322  20.198  67.260  0.00  0.00     0.052 C 
ATOM     59  H47 non d ame      -8.334  19.762  66.261  0.00  0.00     0.082 H 
ATOM     60  H48 non d ame      -8.888  21.107  67.465  0.00  0.00     0.082 H 
BRANCH  58  61
ATOM     61  C35 non d ame      -6.846  20.435  67.675  0.00  0.00    -0.034 A 
ATOM     62  C30 non d ame      -6.427  20.132  68.967  0.00  0.00    -0.075 A 
ATOM     63  C31 non d ame      -5.101  20.346  69.340  0.00  0.00    -0.082 A 
ATOM     64  H49 non d ame      -7.139  19.727  69.687  0.00  0.00     0.084 H 
ATOM     65  C32 non d ame      -4.192  20.867  68.416  0.00  0.00    -0.083 A 
ATOM     66  H50 non d ame      -4.776  20.105  70.352  0.00  0.00     0.083 H 
ATOM     67  C33 non d ame      -4.614  21.171  67.129  0.00  0.00    -0.082 A 
ATOM     68  H51 non d ame      -3.153  21.036  68.699  0.00  0.00     0.083 H 
ATOM     69  C34 non d ame      -5.938  20.957  66.751  0.00  0.00    -0.075 A 
ATOM     70  H52 non d ame      -3.903  21.580  66.411  0.00  0.00     0.083 H 
ATOM     71  H53 non d ame      -6.262  21.198  65.738  0.00  0.00     0.084 H 
ENDBRANCH  58  61
ENDBRANCH  57  58
ENDBRANCH  55  57
ENDBRANCH  52  55
ENDBRANCH  49  52
ENDBRANCH  47  49
BRANCH  47  72
ATOM     72  C24 non d ame     -10.429  14.268  64.805  0.00  0.00    -0.039 C 
ATOM     73  H35 non d ame     -11.096  14.862  64.178  0.00  0.00     0.036 H 
ATOM     74  H36 non d ame      -9.401  14.091  64.490  0.00  0.00     0.036 H 
BRANCH  72  75
ATOM     75  C25 non d ame     -11.117  12.835  65.002  0.00  0.00    -0.001 C 
ATOM     76  C26 non d ame      -9.970  11.657  64.989  0.00  0.00    -0.035 C 
ATOM     77  C27 non d ame     -10.336  10.702  64.101  0.00  0.00     0.085 C 
ATOM     78  H38 non d ame      -9.040  12.046  64.576  0.00  0.00     0.036 H 
ATOM     79  H39 non d ame      -9.965  11.129  65.943  0.00  0.00     0.036 H 
ATOM     80  N5  non d ame     -11.458  11.277  63.271  0.00  0.00    -0.049 N 
ATOM     81  H40 non d ame      -9.465  10.547  63.463  0.00  0.00     0.075 H 
ATOM     82  H41 non d ame     -10.725   9.880  64.702  0.00  0.00     0.075 H 
ATOM     83  C28 non d ame     -11.966  12.591  64.061  0.00  0.00     0.193 C 
ATOM     84  H42 non d ame     -11.047  11.567  62.396  0.00  0.00     0.280 HD
ATOM     85  H43 non d ame     -12.200  10.591  63.278  0.00  0.00     0.280 HD
ATOM     86  H44 non d ame     -12.895  12.569  64.632  0.00  0.00     0.129 H 
ATOM     87  H37 non d ame     -11.826  12.828  65.830  0.00  0.00     0.046 H 
BRANCH  83  88
ATOM     88  O6  non d ame     -12.099  13.688  63.156  0.00  0.00    -0.369 OA
ATOM     89  H45 non d ame     -12.277  13.356  62.273  0.00  0.00     0.212 HD
ENDBRANCH  83  88
ENDBRANCH  72  75
ENDBRANCH  47  72
ENDBRANCH  45  47
ENDBRANCH   1  43
BRANCH   1  90
ATOM     90  C16 non d ame     -12.208  15.008  70.737  0.00  0.00    -0.035 C 
ATOM     91  H21 non d ame     -11.184  15.263  71.010  0.00  0.00     0.037 H 
ATOM     92  H22 non d ame     -12.891  15.786  70.396  0.00  0.00     0.037 H 
BRANCH  90  93
ATOM     93  C17 non d ame     -12.859  14.375  72.008  0.00  0.00    -0.059 C 
ATOM     94  H23 non d ame     -12.545  13.332  72.056  0.00  0.00     0.038 H 
BRANCH  93  95
ATOM     95  C18 non d ame     -12.386  15.076  73.323  0.00  0.00    -0.073 C 
ATOM     96  H24 non d ame     -13.075  14.832  74.131  0.00  0.00     0.028 H 
ATOM     97  H25 non d ame     -11.385  14.728  73.580  0.00  0.00     0.028 H 
ATOM     98  H26 non d ame     -12.369  16.155  73.172  0.00  0.00     0.028 H 
ENDBRANCH  93  95
BRANCH  93  99
ATOM     99  C19 non d ame     -14.386  14.386  71.904  0.00  0.00    -0.073 C 
ATOM    100  H27 non d ame     -14.787  15.187  72.525  0.00  0.00     0.028 H 
ATOM    101  H28 non d ame     -14.678  14.550  70.866  0.00  0.00     0.028 H 
ATOM    102  H29 non d ame     -14.780  13.429  72.245  0.00  0.00     0.028 H 
ENDBRANCH  93  99
ENDBRANCH  90  93
ENDBRANCH   1  90
TORSDOF 26
ENDMDL
MODEL 3
REMARK VINA RESULT:      -6.8      2.977      7.922
REMARK  26 active torsions:
REMARK  status: ('A' for Active; 'I' for Inactive)
REMARK    1  A    between atoms: C2_2  and  C3_3 
REMARK    2  A    between atoms: C4_6  and  C5_7 
REMARK       I    between atoms: C5_7  and  N2_9 
REMARK    3  A    between atoms: N2_9  and  C6_10 
REMARK    4  A    between atoms: C6_10  and  C7_11 
REMARK    5  A    between atoms: C6_10  and  C8_13 
REMARK       I    between atoms: C7_11  and  N3_14 
REMARK    6  A    between atoms: N3_14  and  C9_15 
REMARK    7  A    between atoms: C9_15  and  C10_16 
REMARK    8  A    between atoms: C9_15  and  C11_18 
REMARK       I    between atoms: C10_16  and  N4_21 
REMARK    9  A    between atoms: C11_18  and  C12_19 
REMARK   10  A    between atoms: C11_18  and  C13_20 
REMARK   11  A    between atoms: N4_21  and  C14_22 
REMARK   12  A    between atoms: C14_22  and  C15_23 
REMARK   13  A    between atoms: C14_22  and  C16_25 
REMARK       I    between atoms: C15_23  and  N6_40 
REMARK   14  A    between atoms: C16_25  and  C17_26 
REMARK   15  A    between atoms: C17_26  and  C18_27 
REMARK   16  A    between atoms: C17_26  and  C19_28 
REMARK   17  A    between atoms: C20_29  and  C21_30 
REMARK   18  A    between atoms: C20_29  and  C24_33 
REMARK   19  A    between atoms: C20_29  and  N6_40 
REMARK   20  A    between atoms: C21_30  and  C22_31 
REMARK   21  A    between atoms: C22_31  and  C23_32 
REMARK   22  A    between atoms: C23_32  and  O8_43 
REMARK   23  A    between atoms: C24_33  and  C25_34 
REMARK   24  A    between atoms: C28_38  and  O6_39 
REMARK   25  A    between atoms: C29_42  and  O8_43 
REMARK   26  A    between atoms: C29_42  and  C35_49 
ROOT
ATOM      1  C14 non d ame      -9.149   9.623  65.388  0.00  0.00     0.089 C 
ATOM      2  H20 non d ame      -8.139   9.943  65.647  0.00  0.00     0.087 H 
ENDROOT
BRANCH   1   3
ATOM      3  N4  non d ame      -9.243   8.198  65.668  0.00  0.00    -0.346 N 
ATOM      4  C10 non d ame      -8.012   7.413  66.047  0.00  0.00     0.241 C 
ATOM      5  O4  non d ame      -6.956   7.950  66.118  0.00  0.00    -0.271 OA
ATOM      6  H19 non d ame     -10.150   7.760  65.599  0.00  0.00     0.163 HD
BRANCH   4   7
ATOM      7  C9  non d ame      -8.129   5.940  66.339  0.00  0.00     0.092 C 
ATOM      8  H11 non d ame      -7.150   5.474  66.229  0.00  0.00     0.088 H 
BRANCH   7   9
ATOM      9  N3  non d ame      -8.547   5.749  67.731  0.00  0.00    -0.346 N 
ATOM     10  C7  non d ame      -7.561   5.472  68.747  0.00  0.00     0.240 C 
ATOM     11  O3  non d ame      -6.428   5.399  68.461  0.00  0.00    -0.271 OA
ATOM     12  H10 non d ame      -9.520   5.808  67.992  0.00  0.00     0.163 HD
BRANCH  10  13
ATOM     13  C6  non d ame      -8.011   5.266  70.227  0.00  0.00     0.086 C 
ATOM     14  H6  non d ame      -7.287   5.650  70.945  0.00  0.00     0.086 H 
BRANCH  13  15
ATOM     15  N2  non d ame      -9.246   5.999  70.450  0.00  0.00    -0.343 N 
ATOM     16  C5  non d ame      -9.195   7.329  71.061  0.00  0.00     0.273 C 
ATOM     17  O2  non d ame      -8.156   7.799  71.373  0.00  0.00    -0.266 OA
ATOM     18  H5  non d ame     -10.130   5.589  70.183  0.00  0.00     0.163 HD
BRANCH  16  19
ATOM     19  C4  non d ame     -10.493   8.116  71.301  0.00  0.00     0.154 A 
ATOM     20  C1  non d ame     -11.782   7.582  71.622  0.00  0.00    -0.017 A 
ATOM     21  C2  non d ame     -12.624   8.710  71.740  0.00  0.00     0.077 A 
ATOM     22  H1  non d ame     -12.062   6.536  71.750  0.00  0.00     0.091 H 
ATOM     23  O1  non d ame     -11.895   9.763  71.513  0.00  0.00    -0.218 OA
ATOM     24  N1  non d ame     -10.648   9.442  71.255  0.00  0.00    -0.123 NA
BRANCH  21  25
ATOM     25  C3  non d ame     -14.110   8.695  72.072  0.00  0.00    -0.029 C 
ATOM     26  H2  non d ame     -14.326   7.858  72.737  0.00  0.00     0.036 H 
ATOM     27  H3  non d ame     -14.382   9.629  72.564  0.00  0.00     0.036 H 
ATOM     28  H4  non d ame     -14.687   8.586  71.153  0.00  0.00     0.036 H 
ENDBRANCH  21  25
ENDBRANCH  16  19
ENDBRANCH  13  15
BRANCH  13  29
ATOM     29  C8  non d ame      -8.227   3.798  70.489  0.00  0.00    -0.049 C 
ATOM     30  H7  non d ame      -7.531   3.460  71.257  0.00  0.00     0.030 H 
ATOM     31  H8  non d ame      -9.250   3.636  70.829  0.00  0.00     0.030 H 
ATOM     32  H9  non d ame      -8.055   3.236  69.572  0.00  0.00     0.030 H 
ENDBRANCH  13  29
ENDBRANCH  10  13
ENDBRANCH   7   9
BRANCH   7  33
ATOM     33  C11 non d ame      -9.190   5.307  65.391  0.00  0.00    -0.033 C 
ATOM     34  H12 non d ame     -10.026   6.002  65.322  0.00  0.00     0.042 H 
BRANCH  33  35
ATOM     35  C12 non d ame      -8.621   5.113  63.951  0.00  0.00    -0.071 C 
ATOM     36  H13 non d ame      -8.760   4.077  63.641  0.00  0.00     0.028 H 
ATOM     37  H14 non d ame      -9.148   5.771  63.261  0.00  0.00     0.028 H 
ATOM     38  H15 non d ame      -7.559   5.356  63.944  0.00  0.00     0.028 H 
ENDBRANCH  33  35
BRANCH  33  39
ATOM     39  C13 non d ame      -9.727   3.960  65.973  0.00  0.00    -0.071 C 
ATOM     40  H16 non d ame     -10.080   3.327  65.160  0.00  0.00     0.028 H 
ATOM     41  H17 non d ame      -8.925   3.450  66.509  0.00  0.00     0.028 H 
ATOM     42  H18 non d ame     -10.550   4.164  66.659  0.00  0.00     0.028 H 
ENDBRANCH  33  39
ENDBRANCH   7  33
ENDBRANCH   4   7
ENDBRANCH   1   3
BRANCH   1  43
ATOM     43  C15 non d ame     -10.231  10.365  66.224  0.00  0.00     0.240 C 
ATOM     44  O5  non d ame     -10.779   9.800  67.114  0.00  0.00    -0.271 OA
ATOM     45  N6  non d ame     -10.577  11.782  65.919  0.00  0.00    -0.355 N 
ATOM     46  H46 non d ame     -10.115  12.274  65.169  0.00  0.00     0.162 HD
BRANCH  45  47
ATOM     47  C20 non d ame     -11.608  12.474  66.724  0.00  0.00     0.013 C 
ATOM     48  H30 non d ame     -12.302  11.722  67.098  0.00  0.00     0.072 H 
BRANCH  47  49
ATOM     49  C21 non d ame     -12.341  13.466  65.851  0.00  0.00    -0.038 C 
ATOM     50  H31 non d ame     -13.121  12.895  65.347  0.00  0.00     0.036 H 
ATOM     51  H32 non d ame     -12.609  14.294  66.507  0.00  0.00     0.036 H 
BRANCH  49  52
ATOM     52  C22 non d ame     -11.449  14.061  64.740  0.00  0.00     0.018 C 
ATOM     53  H33 non d ame     -10.435  14.052  65.139  0.00  0.00     0.048 H 
ATOM     54  H34 non d ame     -11.685  13.496  63.838  0.00  0.00     0.048 H 
BRANCH  52  55
ATOM     55  C23 non d ame     -11.766  15.546  64.409  0.00  0.00     0.259 C 
ATOM     56  O7  non d ame     -12.786  15.840  63.875  0.00  0.00    -0.265 OA
BRANCH  55  57
ATOM     57  O8  non d ame     -10.817  16.552  64.741  0.00  0.00    -0.317 OA
BRANCH  57  58
ATOM     58  C29 non d ame      -9.852  16.143  65.714  0.00  0.00     0.052 C 
ATOM     59  H47 non d ame     -10.318  15.327  66.268  0.00  0.00     0.082 H 
ATOM     60  H48 non d ame      -8.930  15.968  65.160  0.00  0.00     0.082 H 
BRANCH  58  61
ATOM     61  C35 non d ame      -9.621  17.329  66.688  0.00  0.00    -0.034 A 
ATOM     62  C30 non d ame     -10.405  18.474  66.590  0.00  0.00    -0.075 A 
ATOM     63  C31 non d ame     -10.198  19.539  67.464  0.00  0.00    -0.082 A 
ATOM     64  H49 non d ame     -11.182  18.536  65.828  0.00  0.00     0.084 H 
ATOM     65  C32 non d ame      -9.200  19.458  68.439  0.00  0.00    -0.083 A 
ATOM     66  H50 non d ame     -10.816  20.434  67.386  0.00  0.00     0.083 H 
ATOM     67  C33 non d ame      -8.418  18.315  68.532  0.00  0.00    -0.082 A 
ATOM     68  H51 non d ame      -9.032  20.286  69.128  0.00  0.00     0.083 H 
ATOM     69  C34 non d ame      -8.623  17.247  67.661  0.00  0.00    -0.075 A 
ATOM     70  H52 non d ame      -7.639  18.255  69.292  0.00  0.00     0.083 H 
ATOM     71  H53 non d ame      -8.005  16.352  67.741  0.00  0.00     0.084 H 
ENDBRANCH  58  61
ENDBRANCH  57  58
ENDBRANCH  55  57
ENDBRANCH  52  55
ENDBRANCH  49  52
ENDBRANCH  47  49
BRANCH  47  72
ATOM     72  C24 non d ame     -10.946  13.210  67.888  0.00  0.00    -0.039 C 
ATOM     73  H35 non d ame     -10.458  12.436  68.480  0.00  0.00     0.036 H 
ATOM     74  H36 non d ame     -10.353  14.002  67.430  0.00  0.00     0.036 H 
BRANCH  72  75
ATOM     75  C25 non d ame     -12.029  13.917  68.834  0.00  0.00    -0.001 C 
ATOM     76  C26 non d ame     -11.630  15.497  69.058  0.00  0.00    -0.035 C 
ATOM     77  C27 non d ame     -11.630  15.763  70.386  0.00  0.00     0.085 C 
ATOM     78  H38 non d ame     -10.594  15.666  68.764  0.00  0.00     0.036 H 
ATOM     79  H39 non d ame     -12.419  16.140  68.668  0.00  0.00     0.036 H 
ATOM     80  N5  non d ame     -11.672  14.434  71.102  0.00  0.00    -0.049 N 
ATOM     81  H40 non d ame     -10.673  16.245  70.587  0.00  0.00     0.075 H 
ATOM     82  H41 non d ame     -12.561  16.297  70.575  0.00  0.00     0.075 H 
ATOM     83  C28 non d ame     -12.087  13.342  69.988  0.00  0.00     0.193 C 
ATOM     84  H42 non d ame     -10.727  14.243  71.404  0.00  0.00     0.280 HD
ATOM     85  H43 non d ame     -12.416  14.499  71.782  0.00  0.00     0.280 HD
ATOM     86  H44 non d ame     -13.099  12.939  69.958  0.00  0.00     0.129 H 
ATOM     87  H37 non d ame     -13.051  13.703  68.523  0.00  0.00     0.046 H 
BRANCH  83  88
ATOM     88  O6  non d ame     -11.225  12.205  70.068  0.00  0.00    -0.369 OA
ATOM     89  H45 non d ame     -10.333  12.463  69.829  0.00  0.00     0.212 HD
ENDBRANCH  83  88
ENDBRANCH  72  75
ENDBRANCH  47  72
ENDBRANCH  45  47
ENDBRANCH   1  43
BRANCH   1  90
ATOM     90  C16 non d ame      -9.399   9.856  63.907  0.00  0.00    -0.035 C 
ATOM     91  H21 non d ame     -10.009   9.013  63.581  0.00  0.00     0.037 H 
ATOM     92  H22 non d ame      -9.789  10.871  63.836  0.00  0.00     0.037 H 
BRANCH  90  93
ATOM     93  C17 non d ame      -8.100   9.821  63.039  0.00  0.00    -0.059 C 
ATOM     94  H23 non d ame      -7.256  10.017  63.699  0.00  0.00     0.038 H 
BRANCH  93  95
ATOM     95  C18 non d ame      -7.872   8.425  62.375  0.00  0.00    -0.073 C 
ATOM     96  H24 non d ame      -8.545   8.313  61.525  0.00  0.00     0.028 H 
ATOM     97  H25 non d ame      -6.840   8.349  62.034  0.00  0.00     0.028 H 
ATOM     98  H26 non d ame      -8.073   7.639  63.104  0.00  0.00     0.028 H 
ENDBRANCH  93  95
BRANCH  93  99
ATOM     99  C19 non d ame      -8.118  10.929  61.983  0.00  0.00    -0.073 C 
ATOM    100  H27 non d ame      -8.220  10.486  60.992  0.00  0.00     0.028 H 
ATOM    101  H28 non d ame      -8.961  11.596  62.171  0.00  0.00     0.028 H 
ATOM    102  H29 non d ame      -7.189  11.496  62.035  0.00  0.00     0.028 H 
ENDBRANCH  93  99
ENDBRANCH  90  93
ENDBRANCH   1  90
TORSDOF 26
ENDMDL
MODEL 4
REMARK VINA RESULT:      -6.8      3.366      6.638
REMARK  26 active torsions:
REMARK  status: ('A' for Active; 'I' for Inactive)
REMARK    1  A    between atoms: C2_2  and  C3_3 
REMARK    2  A    between atoms: C4_6  and  C5_7 
REMARK       I    between atoms: C5_7  and  N2_9 
REMARK    3  A    between atoms: N2_9  and  C6_10 
REMARK    4  A    between atoms: C6_10  and  C7_11 
REMARK    5  A    between atoms: C6_10  and  C8_13 
REMARK       I    between atoms: C7_11  and  N3_14 
REMARK    6  A    between atoms: N3_14  and  C9_15 
REMARK    7  A    between atoms: C9_15  and  C10_16 
REMARK    8  A    between atoms: C9_15  and  C11_18 
REMARK       I    between atoms: C10_16  and  N4_21 
REMARK    9  A    between atoms: C11_18  and  C12_19 
REMARK   10  A    between atoms: C11_18  and  C13_20 
REMARK   11  A    between atoms: N4_21  and  C14_22 
REMARK   12  A    between atoms: C14_22  and  C15_23 
REMARK   13  A    between atoms: C14_22  and  C16_25 
REMARK       I    between atoms: C15_23  and  N6_40 
REMARK   14  A    between atoms: C16_25  and  C17_26 
REMARK   15  A    between atoms: C17_26  and  C18_27 
REMARK   16  A    between atoms: C17_26  and  C19_28 
REMARK   17  A    between atoms: C20_29  and  C21_30 
REMARK   18  A    between atoms: C20_29  and  C24_33 
REMARK   19  A    between atoms: C20_29  and  N6_40 
REMARK   20  A    between atoms: C21_30  and  C22_31 
REMARK   21  A    between atoms: C22_31  and  C23_32 
REMARK   22  A    between atoms: C23_32  and  O8_43 
REMARK   23  A    between atoms: C24_33  and  C25_34 
REMARK   24  A    between atoms: C28_38  and  O6_39 
REMARK   25  A    between atoms: C29_42  and  O8_43 
REMARK   26  A    between atoms: C29_42  and  C35_49 
ROOT
ATOM      1  C14 non d ame     -10.207  10.543  68.395  0.00  0.00     0.089 C 
ATOM      2  H20 non d ame      -9.300  10.551  69.001  0.00  0.00     0.087 H 
ENDROOT
BRANCH   1   3
ATOM      3  N4  non d ame     -10.795   9.217  68.504  0.00  0.00    -0.346 N 
ATOM      4  C10 non d ame     -10.098   8.136  69.292  0.00  0.00     0.241 C 
ATOM      5  O4  non d ame      -9.061   8.358  69.827  0.00  0.00    -0.271 OA
ATOM      6  H19 non d ame     -11.676   9.048  68.040  0.00  0.00     0.163 HD
BRANCH   4   7
ATOM      7  C9  non d ame     -10.724   6.771  69.399  0.00  0.00     0.092 C 
ATOM      8  H11 non d ame     -11.771   6.832  69.102  0.00  0.00     0.088 H 
BRANCH   7   9
ATOM      9  N3  non d ame     -10.062   5.854  68.466  0.00  0.00    -0.346 N 
ATOM     10  C7  non d ame     -10.395   5.890  67.063  0.00  0.00     0.240 C 
ATOM     11  O3  non d ame     -11.194   6.648  66.668  0.00  0.00    -0.271 OA
ATOM     12  H10 non d ame      -9.372   5.193  68.792  0.00  0.00     0.163 HD
BRANCH  10  13
ATOM     13  C6  non d ame      -9.689   4.910  66.076  0.00  0.00     0.086 C 
ATOM     14  H6  non d ame     -10.288   4.700  65.190  0.00  0.00     0.086 H 
BRANCH  13  15
ATOM     15  N2  non d ame      -8.455   5.519  65.608  0.00  0.00    -0.343 N 
ATOM     16  C5  non d ame      -8.135   5.496  64.179  0.00  0.00     0.273 C 
ATOM     17  O2  non d ame      -8.875   4.982  63.414  0.00  0.00    -0.266 OA
ATOM     18  H5  non d ame      -7.826   5.953  66.270  0.00  0.00     0.163 HD
BRANCH  16  19
ATOM     19  C4  non d ame      -6.834   6.137  63.671  0.00  0.00     0.154 A 
ATOM     20  C1  non d ame      -6.518   7.532  63.626  0.00  0.00    -0.017 A 
ATOM     21  C2  non d ame      -5.216   7.592  63.081  0.00  0.00     0.077 A 
ATOM     22  H1  non d ame      -7.138   8.372  63.941  0.00  0.00     0.091 H 
ATOM     23  O1  non d ame      -4.838   6.370  62.846  0.00  0.00    -0.218 OA
ATOM     24  N1  non d ame      -5.765   5.503  63.182  0.00  0.00    -0.123 NA
BRANCH  21  25
ATOM     25  C3  non d ame      -4.406   8.855  62.820  0.00  0.00    -0.029 C 
ATOM     26  H2  non d ame      -4.072   9.276  63.768  0.00  0.00     0.036 H 
ATOM     27  H3  non d ame      -3.540   8.610  62.205  0.00  0.00     0.036 H 
ATOM     28  H4  non d ame      -5.027   9.584  62.297  0.00  0.00     0.036 H 
ENDBRANCH  21  25
ENDBRANCH  16  19
ENDBRANCH  13  15
BRANCH  13  29
ATOM     29  C8  non d ame      -9.390   3.611  66.780  0.00  0.00    -0.049 C 
ATOM     30  H7  non d ame      -8.363   3.624  67.147  0.00  0.00     0.030 H 
ATOM     31  H8  non d ame     -10.074   3.486  67.619  0.00  0.00     0.030 H 
ATOM     32  H9  non d ame      -9.515   2.783  66.083  0.00  0.00     0.030 H 
ENDBRANCH  13  29
ENDBRANCH  10  13
ENDBRANCH   7   9
BRANCH   7  33
ATOM     33  C11 non d ame     -10.558   6.237  70.852  0.00  0.00    -0.033 C 
ATOM     34  H12 non d ame      -9.801   6.849  71.343  0.00  0.00     0.042 H 
BRANCH  33  35
ATOM     35  C12 non d ame     -11.881   6.385  71.667  0.00  0.00    -0.071 C 
ATOM     36  H13 non d ame     -11.655   6.360  72.733  0.00  0.00     0.028 H 
ATOM     37  H14 non d ame     -12.355   7.334  71.419  0.00  0.00     0.028 H 
ATOM     38  H15 non d ame     -12.554   5.565  71.418  0.00  0.00     0.028 H 
ENDBRANCH  33  35
BRANCH  33  39
ATOM     39  C13 non d ame     -10.056   4.757  70.851  0.00  0.00    -0.071 C 
ATOM     40  H16 non d ame      -9.131   4.687  71.422  0.00  0.00     0.028 H 
ATOM     41  H17 non d ame     -10.813   4.116  71.304  0.00  0.00     0.028 H 
ATOM     42  H18 non d ame      -9.875   4.437  69.825  0.00  0.00     0.028 H 
ENDBRANCH  33  39
ENDBRANCH   7  33
ENDBRANCH   4   7
ENDBRANCH   1   3
BRANCH   1  43
ATOM     43  C15 non d ame     -11.249  11.590  68.883  0.00  0.00     0.240 C 
ATOM     44  O5  non d ame     -12.394  11.284  68.977  0.00  0.00    -0.271 OA
ATOM     45  N6  non d ame     -10.818  12.971  69.242  0.00  0.00    -0.355 N 
ATOM     46  H46 non d ame      -9.848  13.241  69.171  0.00  0.00     0.162 HD
BRANCH  45  47
ATOM     47  C20 non d ame     -11.821  13.954  69.706  0.00  0.00     0.013 C 
ATOM     48  H30 non d ame     -12.767  13.430  69.840  0.00  0.00     0.072 H 
BRANCH  47  49
ATOM     49  C21 non d ame     -11.975  15.040  68.665  0.00  0.00    -0.038 C 
ATOM     50  H31 non d ame     -11.857  14.544  67.702  0.00  0.00     0.036 H 
ATOM     51  H32 non d ame     -12.909  15.548  68.906  0.00  0.00     0.036 H 
BRANCH  49  52
ATOM     52  C22 non d ame     -10.864  16.109  68.746  0.00  0.00     0.018 C 
ATOM     53  H33 non d ame     -11.239  16.967  68.187  0.00  0.00     0.048 H 
ATOM     54  H34 non d ame     -10.627  16.209  69.805  0.00  0.00     0.048 H 
BRANCH  52  55
ATOM     55  C23 non d ame      -9.540  15.689  68.049  0.00  0.00     0.259 C 
ATOM     56  O7  non d ame      -8.505  16.170  68.380  0.00  0.00    -0.265 OA
BRANCH  55  57
ATOM     57  O8  non d ame      -9.579  14.730  66.999  0.00  0.00    -0.317 OA
BRANCH  57  58
ATOM     58  C29 non d ame     -10.216  15.197  65.807  0.00  0.00     0.052 C 
ATOM     59  H47 non d ame     -11.016  15.858  66.140  0.00  0.00     0.082 H 
ATOM     60  H48 non d ame      -9.415  15.585  65.177  0.00  0.00     0.082 H 
BRANCH  58  61
ATOM     61  C35 non d ame     -10.853  13.975  65.094  0.00  0.00    -0.034 A 
ATOM     62  C30 non d ame     -10.085  13.184  64.246  0.00  0.00    -0.075 A 
ATOM     63  C31 non d ame     -10.657  12.086  63.606  0.00  0.00    -0.082 A 
ATOM     64  H49 non d ame      -9.034  13.424  64.084  0.00  0.00     0.084 H 
ATOM     65  C32 non d ame     -12.005  11.782  63.813  0.00  0.00    -0.083 A 
ATOM     66  H50 non d ame     -10.052  11.466  62.944  0.00  0.00     0.083 H 
ATOM     67  C33 non d ame     -12.769  12.576  64.658  0.00  0.00    -0.082 A 
ATOM     68  H51 non d ame     -12.461  10.925  63.317  0.00  0.00     0.083 H 
ATOM     69  C34 non d ame     -12.201  13.673  65.302  0.00  0.00    -0.075 A 
ATOM     70  H52 non d ame     -13.821  12.337  64.816  0.00  0.00     0.083 H 
ATOM     71  H53 non d ame     -12.807  14.291  65.964  0.00  0.00     0.084 H 
ENDBRANCH  58  61
ENDBRANCH  57  58
ENDBRANCH  55  57
ENDBRANCH  52  55
ENDBRANCH  49  52
ENDBRANCH  47  49
BRANCH  47  72
ATOM     72  C24 non d ame     -11.366  14.573  71.026  0.00  0.00    -0.039 C 
ATOM     73  H35 non d ame     -10.516  13.972  71.350  0.00  0.00     0.036 H 
ATOM     74  H36 non d ame     -11.234  15.635  70.818  0.00  0.00     0.036 H 
BRANCH  72  75
ATOM     75  C25 non d ame     -12.492  14.449  72.158  0.00  0.00    -0.001 C 
ATOM     76  C26 non d ame     -13.897  13.913  71.494  0.00  0.00    -0.035 C 
ATOM     77  C27 non d ame     -14.900  14.745  71.865  0.00  0.00     0.085 C 
ATOM     78  H38 non d ame     -13.864  14.021  70.411  0.00  0.00     0.036 H 
ATOM     79  H39 non d ame     -14.181  12.959  71.939  0.00  0.00     0.036 H 
ATOM     80  N5  non d ame     -14.256  15.980  72.448  0.00  0.00    -0.049 N 
ATOM     81  H40 non d ame     -15.412  15.015  70.940  0.00  0.00     0.075 H 
ATOM     82  H41 non d ame     -15.439  14.220  72.653  0.00  0.00     0.075 H 
ATOM     83  C28 non d ame     -12.714  15.589  72.723  0.00  0.00     0.193 C 
ATOM     84  H42 non d ame     -14.285  16.686  71.727  0.00  0.00     0.280 HD
ATOM     85  H43 non d ame     -14.708  16.146  73.336  0.00  0.00     0.280 HD
ATOM     86  H44 non d ame     -12.368  15.379  73.735  0.00  0.00     0.129 H 
ATOM     87  H37 non d ame     -12.131  13.926  73.044  0.00  0.00     0.046 H 
BRANCH  83  88
ATOM     88  O6  non d ame     -11.850  16.613  72.228  0.00  0.00    -0.369 OA
ATOM     89  H45 non d ame     -12.228  16.993  71.432  0.00  0.00     0.212 HD
ENDBRANCH  83  88
ENDBRANCH  72  75
ENDBRANCH  47  72
ENDBRANCH  45  47
ENDBRANCH   1  43
BRANCH   1  90
ATOM     90  C16 non d ame      -9.856  10.812  66.940  0.00  0.00    -0.035 C 
ATOM     91  H21 non d ame     -10.773  10.624  66.382  0.00  0.00     0.037 H 
ATOM     92  H22 non d ame      -9.406  11.805  66.930  0.00  0.00     0.037 H 
BRANCH  90  93
ATOM     93  C17 non d ame      -8.781   9.835  66.364  0.00  0.00    -0.059 C 
ATOM     94  H23 non d ame      -8.556   9.099  67.135  0.00  0.00     0.038 H 
BRANCH  93  95
ATOM     95  C18 non d ame      -9.298   9.065  65.107  0.00  0.00    -0.073 C 
ATOM     96  H24 non d ame     -10.365   8.871  65.213  0.00  0.00     0.028 H 
ATOM     97  H25 non d ame      -9.126   9.669  64.215  0.00  0.00     0.028 H 
ATOM     98  H26 non d ame      -8.764   8.120  65.014  0.00  0.00     0.028 H 
ENDBRANCH  93  95
BRANCH  93  99
ATOM     99  C19 non d ame      -7.480  10.578  66.051  0.00  0.00    -0.073 C 
ATOM    100  H27 non d ame      -6.760  10.404  66.852  0.00  0.00     0.028 H 
ATOM    101  H28 non d ame      -7.070  10.211  65.109  0.00  0.00     0.028 H 
ATOM    102  H29 non d ame      -7.681  11.645  65.968  0.00  0.00     0.028 H 
ENDBRANCH  93  99
ENDBRANCH  90  93
ENDBRANCH   1  90
TORSDOF 26
ENDMDL
MODEL 5
REMARK VINA RESULT:      -6.7      2.733      7.395
REMARK  26 active torsions:
REMARK  status: ('A' for Active; 'I' for Inactive)
REMARK    1  A    between atoms: C2_2  and  C3_3 
REMARK    2  A    between atoms: C4_6  and  C5_7 
REMARK       I    between atoms: C5_7  and  N2_9 
REMARK    3  A    between atoms: N2_9  and  C6_10 
REMARK    4  A    between atoms: C6_10  and  C7_11 
REMARK    5  A    between atoms: C6_10  and  C8_13 
REMARK       I    between atoms: C7_11  and  N3_14 
REMARK    6  A    between atoms: N3_14  and  C9_15 
REMARK    7  A    between atoms: C9_15  and  C10_16 
REMARK    8  A    between atoms: C9_15  and  C11_18 
REMARK       I    between atoms: C10_16  and  N4_21 
REMARK    9  A    between atoms: C11_18  and  C12_19 
REMARK   10  A    between atoms: C11_18  and  C13_20 
REMARK   11  A    between atoms: N4_21  and  C14_22 
REMARK   12  A    between atoms: C14_22  and  C15_23 
REMARK   13  A    between atoms: C14_22  and  C16_25 
REMARK       I    between atoms: C15_23  and  N6_40 
REMARK   14  A    between atoms: C16_25  and  C17_26 
REMARK   15  A    between atoms: C17_26  and  C18_27 
REMARK   16  A    between atoms: C17_26  and  C19_28 
REMARK   17  A    between atoms: C20_29  and  C21_30 
REMARK   18  A    between atoms: C20_29  and  C24_33 
REMARK   19  A    between atoms: C20_29  and  N6_40 
REMARK   20  A    between atoms: C21_30  and  C22_31 
REMARK   21  A    between atoms: C22_31  and  C23_32 
REMARK   22  A    between atoms: C23_32  and  O8_43 
REMARK   23  A    between atoms: C24_33  and  C25_34 
REMARK   24  A    between atoms: C28_38  and  O6_39 
REMARK   25  A    between atoms: C29_42  and  O8_43 
REMARK   26  A    between atoms: C29_42  and  C35_49 
ROOT
ATOM      1  C14 non d ame      -6.521  11.452  67.407  0.00  0.00     0.089 C 
ATOM      2  H20 non d ame      -5.536  11.034  67.195  0.00  0.00     0.087 H 
ENDROOT
BRANCH   1   3
ATOM      3  N4  non d ame      -7.325  11.311  66.202  0.00  0.00    -0.346 N 
ATOM      4  C10 non d ame      -7.049  10.194  65.229  0.00  0.00     0.241 C 
ATOM      5  O4  non d ame      -6.173   9.421  65.435  0.00  0.00    -0.271 OA
ATOM      6  H19 non d ame      -8.065  11.981  66.044  0.00  0.00     0.163 HD
BRANCH   4   7
ATOM      7  C9  non d ame      -7.895  10.060  63.989  0.00  0.00     0.092 C 
ATOM      8  H11 non d ame      -8.376   9.082  63.988  0.00  0.00     0.088 H 
BRANCH   7   9
ATOM      9  N3  non d ame      -8.960  11.067  64.014  0.00  0.00    -0.346 N 
ATOM     10  C7  non d ame     -10.118  10.871  64.851  0.00  0.00     0.240 C 
ATOM     11  O3  non d ame     -10.209   9.909  65.511  0.00  0.00    -0.271 OA
ATOM     12  H10 non d ame      -8.897  11.902  63.449  0.00  0.00     0.163 HD
BRANCH  10  13
ATOM     13  C6  non d ame     -11.250  11.945  64.871  0.00  0.00     0.086 C 
ATOM     14  H6  non d ame     -11.977  11.778  65.665  0.00  0.00     0.086 H 
BRANCH  13  15
ATOM     15  N2  non d ame     -10.658  13.250  65.117  0.00  0.00    -0.343 N 
ATOM     16  C5  non d ame     -11.433  14.272  65.823  0.00  0.00     0.273 C 
ATOM     17  O2  non d ame     -12.533  14.036  66.187  0.00  0.00    -0.266 OA
ATOM     18  H5  non d ame      -9.719  13.444  64.800  0.00  0.00     0.163 HD
BRANCH  16  19
ATOM     19  C4  non d ame     -10.819  15.655  66.091  0.00  0.00     0.154 A 
ATOM     20  C1  non d ame     -10.790  16.361  67.336  0.00  0.00    -0.017 A 
ATOM     21  C2  non d ame     -10.119  17.571  67.051  0.00  0.00     0.077 A 
ATOM     22  H1  non d ame     -11.193  16.044  68.298  0.00  0.00     0.091 H 
ATOM     23  O1  non d ame      -9.803  17.551  65.789  0.00  0.00    -0.218 OA
ATOM     24  N1  non d ame     -10.202  16.444  65.208  0.00  0.00    -0.123 NA
BRANCH  21  25
ATOM     25  C3  non d ame      -9.820  18.690  68.039  0.00  0.00    -0.029 C 
ATOM     26  H2  non d ame      -9.336  18.275  68.924  0.00  0.00     0.036 H 
ATOM     27  H3  non d ame      -9.159  19.420  67.572  0.00  0.00     0.036 H 
ATOM     28  H4  non d ame     -10.751  19.178  68.330  0.00  0.00     0.036 H 
ENDBRANCH  21  25
ENDBRANCH  16  19
ENDBRANCH  13  15
BRANCH  13  29
ATOM     29  C8  non d ame     -11.969  11.946  63.545  0.00  0.00    -0.049 C 
ATOM     30  H7  non d ame     -11.845  10.975  63.064  0.00  0.00     0.030 H 
ATOM     31  H8  non d ame     -13.029  12.139  63.707  0.00  0.00     0.030 H 
ATOM     32  H9  non d ame     -11.550  12.723  62.906  0.00  0.00     0.030 H 
ENDBRANCH  13  29
ENDBRANCH  10  13
ENDBRANCH   7   9
BRANCH   7  33
ATOM     33  C11 non d ame      -7.007  10.278  62.729  0.00  0.00    -0.033 C 
ATOM     34  H12 non d ame      -6.171  10.913  63.023  0.00  0.00     0.042 H 
BRANCH  33  35
ATOM     35  C12 non d ame      -6.415   8.931  62.211  0.00  0.00    -0.071 C 
ATOM     36  H13 non d ame      -6.019   8.361  63.052  0.00  0.00     0.028 H 
ATOM     37  H14 non d ame      -7.199   8.355  61.720  0.00  0.00     0.028 H 
ATOM     38  H15 non d ame      -5.614   9.136  61.501  0.00  0.00     0.028 H 
ENDBRANCH  33  35
BRANCH  33  39
ATOM     39  C13 non d ame      -7.803  11.017  61.606  0.00  0.00    -0.071 C 
ATOM     40  H16 non d ame      -7.147  11.727  61.103  0.00  0.00     0.028 H 
ATOM     41  H17 non d ame      -8.172  10.289  60.883  0.00  0.00     0.028 H 
ATOM     42  H18 non d ame      -8.645  11.549  62.047  0.00  0.00     0.028 H 
ENDBRANCH  33  39
ENDBRANCH   7  33
ENDBRANCH   4   7
ENDBRANCH   1   3
BRANCH   1  43
ATOM     43  C15 non d ame      -7.237  10.706  68.570  0.00  0.00     0.240 C 
ATOM     44  O5  non d ame      -6.863  10.859  69.688  0.00  0.00    -0.271 OA
ATOM     45  N6  non d ame      -8.394   9.809  68.290  0.00  0.00    -0.355 N 
ATOM     46  H46 non d ame      -8.723   9.675  67.345  0.00  0.00     0.162 HD
BRANCH  45  47
ATOM     47  C20 non d ame      -9.064   9.108  69.407  0.00  0.00     0.013 C 
ATOM     48  H30 non d ame      -8.662   9.503  70.340  0.00  0.00     0.072 H 
BRANCH  47  49
ATOM     49  C21 non d ame      -8.782   7.626  69.309  0.00  0.00    -0.038 C 
ATOM     50  H31 non d ame      -8.035   7.520  68.522  0.00  0.00     0.036 H 
ATOM     51  H32 non d ame      -8.555   7.302  70.325  0.00  0.00     0.036 H 
BRANCH  49  52
ATOM     52  C22 non d ame     -10.012   6.811  68.855  0.00  0.00     0.018 C 
ATOM     53  H33 non d ame      -9.819   5.785  69.171  0.00  0.00     0.048 H 
ATOM     54  H34 non d ame     -10.880   7.346  69.242  0.00  0.00     0.048 H 
BRANCH  52  55
ATOM     55  C23 non d ame     -10.195   6.757  67.313  0.00  0.00     0.259 C 
ATOM     56  O7  non d ame     -11.282   6.744  66.834  0.00  0.00    -0.265 OA
BRANCH  55  57
ATOM     57  O8  non d ame      -9.045   6.712  66.477  0.00  0.00    -0.317 OA
BRANCH  57  58
ATOM     58  C29 non d ame      -8.520   5.395  66.280  0.00  0.00     0.052 C 
ATOM     59  H47 non d ame      -7.439   5.516  66.208  0.00  0.00     0.082 H 
ATOM     60  H48 non d ame      -8.949   4.785  67.074  0.00  0.00     0.082 H 
BRANCH  58  61
ATOM     61  C35 non d ame      -9.047   4.869  64.918  0.00  0.00    -0.034 A 
ATOM     62  C30 non d ame     -10.142   4.011  64.879  0.00  0.00    -0.075 A 
ATOM     63  C31 non d ame     -10.615   3.538  63.656  0.00  0.00    -0.082 A 
ATOM     64  H49 non d ame     -10.629   3.710  65.807  0.00  0.00     0.084 H 
ATOM     65  C32 non d ame      -9.987   3.924  62.469  0.00  0.00    -0.083 A 
ATOM     66  H50 non d ame     -11.475   2.868  63.629  0.00  0.00     0.083 H 
ATOM     67  C33 non d ame      -8.893   4.777  62.513  0.00  0.00    -0.082 A 
ATOM     68  H51 non d ame     -10.351   3.559  61.508  0.00  0.00     0.083 H 
ATOM     69  C34 non d ame      -8.418   5.254  63.733  0.00  0.00    -0.075 A 
ATOM     70  H52 non d ame      -8.405   5.074  61.585  0.00  0.00     0.083 H 
ATOM     71  H53 non d ame      -7.559   5.925  63.759  0.00  0.00     0.084 H 
ENDBRANCH  58  61
ENDBRANCH  57  58
ENDBRANCH  55  57
ENDBRANCH  52  55
ENDBRANCH  49  52
ENDBRANCH  47  49
BRANCH  47  72
ATOM     72  C24 non d ame     -10.571   9.346  69.335  0.00  0.00    -0.039 C 
ATOM     73  H35 non d ame     -10.709  10.103  68.562  0.00  0.00     0.036 H 
ATOM     74  H36 non d ame     -11.016   8.358  69.216  0.00  0.00     0.036 H 
BRANCH  72  75
ATOM     75  C25 non d ame     -11.140   9.959  70.702  0.00  0.00    -0.001 C 
ATOM     76  C26 non d ame     -11.359   8.759  71.805  0.00  0.00    -0.035 C 
ATOM     77  C27 non d ame     -12.617   8.846  72.300  0.00  0.00     0.085 C 
ATOM     78  H38 non d ame     -11.346   7.789  71.309  0.00  0.00     0.036 H 
ATOM     79  H39 non d ame     -10.729   8.934  72.678  0.00  0.00     0.036 H 
ATOM     80  N5  non d ame     -13.381   9.787  71.402  0.00  0.00    -0.049 N 
ATOM     81  H40 non d ame     -13.037   7.844  72.205  0.00  0.00     0.075 H 
ATOM     82  H41 non d ame     -12.511   9.301  73.284  0.00  0.00     0.075 H 
ATOM     83  C28 non d ame     -12.271  10.552  70.513  0.00  0.00     0.193 C 
ATOM     84  H42 non d ame     -13.940   9.209  70.790  0.00  0.00     0.280 HD
ATOM     85  H43 non d ame     -13.828  10.461  72.007  0.00  0.00     0.280 HD
ATOM     86  H44 non d ame     -11.995  11.582  70.739  0.00  0.00     0.129 H 
ATOM     87  H37 non d ame     -10.579  10.835  71.027  0.00  0.00     0.046 H 
BRANCH  83  88
ATOM     88  O6  non d ame     -12.656  10.553  69.137  0.00  0.00    -0.369 OA
ATOM     89  H45 non d ame     -12.251  11.300  68.692  0.00  0.00     0.212 HD
ENDBRANCH  83  88
ENDBRANCH  72  75
ENDBRANCH  47  72
ENDBRANCH  45  47
ENDBRANCH   1  43
BRANCH   1  90
ATOM     90  C16 non d ame      -6.392  12.927  67.749  0.00  0.00    -0.035 C 
ATOM     91  H21 non d ame      -6.312  12.967  68.835  0.00  0.00     0.037 H 
ATOM     92  H22 non d ame      -5.575  13.297  67.129  0.00  0.00     0.037 H 
BRANCH  90  93
ATOM     93  C17 non d ame      -7.650  13.771  67.369  0.00  0.00    -0.059 C 
ATOM     94  H23 non d ame      -8.023  13.397  66.415  0.00  0.00     0.038 H 
BRANCH  93  95
ATOM     95  C18 non d ame      -8.798  13.624  68.419  0.00  0.00    -0.073 C 
ATOM     96  H24 non d ame      -9.474  14.475  68.339  0.00  0.00     0.028 H 
ATOM     97  H25 non d ame      -9.349  12.702  68.228  0.00  0.00     0.028 H 
ATOM     98  H26 non d ame      -8.370  13.591  69.421  0.00  0.00     0.028 H 
ENDBRANCH  93  95
BRANCH  93  99
ATOM     99  C19 non d ame      -7.282  15.243  67.168  0.00  0.00    -0.073 C 
ATOM    100  H27 non d ame      -7.159  15.723  68.139  0.00  0.00     0.028 H 
ATOM    101  H28 non d ame      -6.348  15.310  66.608  0.00  0.00     0.028 H 
ATOM    102  H29 non d ame      -8.074  15.744  66.612  0.00  0.00     0.028 H 
ENDBRANCH  93  99
ENDBRANCH  90  93
ENDBRANCH   1  90
TORSDOF 26
ENDMDL
MODEL 6
REMARK VINA RESULT:      -6.5      2.146      8.093
REMARK  26 active torsions:
REMARK  status: ('A' for Active; 'I' for Inactive)
REMARK    1  A    between atoms: C2_2  and  C3_3 
REMARK    2  A    between atoms: C4_6  and  C5_7 
REMARK       I    between atoms: C5_7  and  N2_9 
REMARK    3  A    between atoms: N2_9  and  C6_10 
REMARK    4  A    between atoms: C6_10  and  C7_11 
REMARK    5  A    between atoms: C6_10  and  C8_13 
REMARK       I    between atoms: C7_11  and  N3_14 
REMARK    6  A    between atoms: N3_14  and  C9_15 
REMARK    7  A    between atoms: C9_15  and  C10_16 
REMARK    8  A    between atoms: C9_15  and  C11_18 
REMARK       I    between atoms: C10_16  and  N4_21 
REMARK    9  A    between atoms: C11_18  and  C12_19 
REMARK   10  A    between atoms: C11_18  and  C13_20 
REMARK   11  A    between atoms: N4_21  and  C14_22 
REMARK   12  A    between atoms: C14_22  and  C15_23 
REMARK   13  A    between atoms: C14_22  and  C16_25 
REMARK       I    between atoms: C15_23  and  N6_40 
REMARK   14  A    between atoms: C16_25  and  C17_26 
REMARK   15  A    between atoms: C17_26  and  C18_27 
REMARK   16  A    between atoms: C17_26  and  C19_28 
REMARK   17  A    between atoms: C20_29  and  C21_30 
REMARK   18  A    between atoms: C20_29  and  C24_33 
REMARK   19  A    between atoms: C20_29  and  N6_40 
REMARK   20  A    between atoms: C21_30  and  C22_31 
REMARK   21  A    between atoms: C22_31  and  C23_32 
REMARK   22  A    between atoms: C23_32  and  O8_43 
REMARK   23  A    between atoms: C24_33  and  C25_34 
REMARK   24  A    between atoms: C28_38  and  O6_39 
REMARK   25  A    between atoms: C29_42  and  O8_43 
REMARK   26  A    between atoms: C29_42  and  C35_49 
ROOT
ATOM      1  C14 non d ame      -6.537  13.815  68.111  0.00  0.00     0.089 C 
ATOM      2  H20 non d ame      -5.840  13.765  67.274  0.00  0.00     0.087 H 
ENDROOT
BRANCH   1   3
ATOM      3  N4  non d ame      -6.847  15.218  68.340  0.00  0.00    -0.346 N 
ATOM      4  C10 non d ame      -6.067  16.296  67.631  0.00  0.00     0.241 C 
ATOM      5  O4  non d ame      -5.191  16.010  66.882  0.00  0.00    -0.271 OA
ATOM      6  H19 non d ame      -7.594  15.441  68.983  0.00  0.00     0.163 HD
BRANCH   4   7
ATOM      7  C9  non d ame      -6.405  17.743  67.876  0.00  0.00     0.092 C 
ATOM      8  H11 non d ame      -6.015  18.346  67.056  0.00  0.00     0.088 H 
BRANCH   7   9
ATOM      9  N3  non d ame      -7.861  17.911  67.882  0.00  0.00    -0.346 N 
ATOM     10  C7  non d ame      -8.585  17.973  66.636  0.00  0.00     0.240 C 
ATOM     11  O3  non d ame      -8.011  17.892  65.619  0.00  0.00    -0.271 OA
ATOM     12  H10 non d ame      -8.370  17.984  68.751  0.00  0.00     0.163 HD
BRANCH  10  13
ATOM     13  C6  non d ame     -10.134  18.155  66.649  0.00  0.00     0.086 C 
ATOM     14  H6  non d ame     -10.634  17.568  65.879  0.00  0.00     0.086 H 
BRANCH  13  15
ATOM     15  N2  non d ame     -10.652  17.692  67.926  0.00  0.00    -0.343 N 
ATOM     16  C5  non d ame     -11.075  16.297  68.070  0.00  0.00     0.273 C 
ATOM     17  O2  non d ame     -10.998  15.557  67.152  0.00  0.00    -0.266 OA
ATOM     18  H5  non d ame     -10.718  18.333  68.704  0.00  0.00     0.163 HD
BRANCH  16  19
ATOM     19  C4  non d ame     -11.623  15.794  69.414  0.00  0.00     0.154 A 
ATOM     20  C1  non d ame     -12.227  14.524  69.681  0.00  0.00    -0.017 A 
ATOM     21  C2  non d ame     -12.554  14.559  71.055  0.00  0.00     0.077 A 
ATOM     22  H1  non d ame     -12.402  13.704  68.985  0.00  0.00     0.091 H 
ATOM     23  O1  non d ame     -12.177  15.716  71.514  0.00  0.00    -0.218 OA
ATOM     24  N1  non d ame     -11.631  16.455  70.575  0.00  0.00    -0.123 NA
BRANCH  21  25
ATOM     25  C3  non d ame     -13.224  13.446  71.851  0.00  0.00    -0.029 C 
ATOM     26  H2  non d ame     -13.242  12.533  71.255  0.00  0.00     0.036 H 
ATOM     27  H3  non d ame     -12.665  13.270  72.770  0.00  0.00     0.036 H 
ATOM     28  H4  non d ame     -14.245  13.739  72.098  0.00  0.00     0.036 H 
ENDBRANCH  21  25
ENDBRANCH  16  19
ENDBRANCH  13  15
BRANCH  13  29
ATOM     29  C8  non d ame     -10.475  19.610  66.450  0.00  0.00    -0.049 C 
ATOM     30  H7  non d ame     -10.108  20.188  67.299  0.00  0.00     0.030 H 
ATOM     31  H8  non d ame     -10.006  19.971  65.535  0.00  0.00     0.030 H 
ATOM     32  H9  non d ame     -11.556  19.723  66.375  0.00  0.00     0.030 H 
ENDBRANCH  13  29
ENDBRANCH  10  13
ENDBRANCH   7   9
BRANCH   7  33
ATOM     33  C11 non d ame      -5.829  18.185  69.253  0.00  0.00    -0.033 C 
ATOM     34  H12 non d ame      -6.144  17.449  69.992  0.00  0.00     0.042 H 
BRANCH  33  35
ATOM     35  C12 non d ame      -4.268  18.196  69.239  0.00  0.00    -0.071 C 
ATOM     36  H13 non d ame      -3.897  17.172  69.279  0.00  0.00     0.028 H 
ATOM     37  H14 non d ame      -3.917  18.673  68.324  0.00  0.00     0.028 H 
ATOM     38  H15 non d ame      -3.902  18.750  70.102  0.00  0.00     0.028 H 
ENDBRANCH  33  35
BRANCH  33  39
ATOM     39  C13 non d ame      -6.402  19.574  69.679  0.00  0.00    -0.071 C 
ATOM     40  H16 non d ame      -5.603  20.182  70.104  0.00  0.00     0.028 H 
ATOM     41  H17 non d ame      -6.818  20.079  68.807  0.00  0.00     0.028 H 
ATOM     42  H18 non d ame      -7.185  19.431  70.424  0.00  0.00     0.028 H 
ENDBRANCH  33  39
ENDBRANCH   7  33
ENDBRANCH   4   7
ENDBRANCH   1   3
BRANCH   1  43
ATOM     43  C15 non d ame      -7.862  13.056  67.817  0.00  0.00     0.240 C 
ATOM     44  O5  non d ame      -8.850  13.338  68.415  0.00  0.00    -0.271 OA
ATOM     45  N6  non d ame      -7.903  11.982  66.784  0.00  0.00    -0.355 N 
ATOM     46  H46 non d ame      -7.072  11.737  66.266  0.00  0.00     0.162 HD
BRANCH  45  47
ATOM     47  C20 non d ame      -9.171  11.271  66.515  0.00  0.00     0.013 C 
ATOM     48  H30 non d ame      -9.990  11.907  66.852  0.00  0.00     0.072 H 
BRANCH  47  49
ATOM     49  C21 non d ame      -9.183   9.965  67.277  0.00  0.00    -0.038 C 
ATOM     50  H31 non d ame      -8.812   9.214  66.579  0.00  0.00     0.036 H 
ATOM     51  H32 non d ame      -8.645  10.161  68.205  0.00  0.00     0.036 H 
BRANCH  49  52
ATOM     52  C22 non d ame     -10.605   9.520  67.682  0.00  0.00     0.018 C 
ATOM     53  H33 non d ame     -11.178   9.481  66.755  0.00  0.00     0.048 H 
ATOM     54  H34 non d ame     -10.473   8.618  68.279  0.00  0.00     0.048 H 
BRANCH  52  55
ATOM     55  C23 non d ame     -11.342  10.537  68.598  0.00  0.00     0.259 C 
ATOM     56  O7  non d ame     -12.239  11.190  68.175  0.00  0.00    -0.265 OA
BRANCH  55  57
ATOM     57  O8  non d ame     -10.923  10.688  69.949  0.00  0.00    -0.317 OA
BRANCH  57  58
ATOM     58  C29 non d ame     -11.869  10.208  70.909  0.00  0.00     0.052 C 
ATOM     59  H47 non d ame     -11.848  10.927  71.728  0.00  0.00     0.082 H 
ATOM     60  H48 non d ame     -12.792  10.040  70.355  0.00  0.00     0.082 H 
BRANCH  58  61
ATOM     61  C35 non d ame     -11.361   8.842  71.441  0.00  0.00    -0.034 A 
ATOM     62  C30 non d ame     -10.034   8.697  71.835  0.00  0.00    -0.075 A 
ATOM     63  C31 non d ame      -9.577   7.470  72.312  0.00  0.00    -0.082 A 
ATOM     64  H49 non d ame      -9.353   9.546  71.769  0.00  0.00     0.084 H 
ATOM     65  C32 non d ame     -10.452   6.383  72.394  0.00  0.00    -0.083 A 
ATOM     66  H50 non d ame      -8.538   7.360  72.622  0.00  0.00     0.083 H 
ATOM     67  C33 non d ame     -11.774   6.531  71.997  0.00  0.00    -0.082 A 
ATOM     68  H51 non d ame     -10.104   5.420  72.767  0.00  0.00     0.083 H 
ATOM     69  C34 non d ame     -12.236   7.757  71.521  0.00  0.00    -0.075 A 
ATOM     70  H52 non d ame     -12.454   5.681  72.059  0.00  0.00     0.083 H 
ATOM     71  H53 non d ame     -13.276   7.866  71.212  0.00  0.00     0.084 H 
ENDBRANCH  58  61
ENDBRANCH  57  58
ENDBRANCH  55  57
ENDBRANCH  52  55
ENDBRANCH  49  52
ENDBRANCH  47  49
BRANCH  47  72
ATOM     72  C24 non d ame      -9.299  10.990  65.019  0.00  0.00    -0.039 C 
ATOM     73  H35 non d ame      -8.286  11.057  64.624  0.00  0.00     0.036 H 
ATOM     74  H36 non d ame      -9.852  10.053  64.946  0.00  0.00     0.036 H 
BRANCH  72  75
ATOM     75  C25 non d ame     -10.171  12.112  64.278  0.00  0.00    -0.001 C 
ATOM     76  C26 non d ame     -11.474  12.508  65.199  0.00  0.00    -0.035 C 
ATOM     77  C27 non d ame     -12.590  12.425  64.435  0.00  0.00     0.085 C 
ATOM     78  H38 non d ame     -11.634  11.751  65.966  0.00  0.00     0.036 H 
ATOM     79  H39 non d ame     -11.431  13.562  65.474  0.00  0.00     0.036 H 
ATOM     80  N5  non d ame     -12.206  11.695  63.171  0.00  0.00    -0.049 N 
ATOM     81  H40 non d ame     -13.287  11.810  65.004  0.00  0.00     0.075 H 
ATOM     82  H41 non d ame     -12.849  13.454  64.186  0.00  0.00     0.075 H 
ATOM     83  C28 non d ame     -10.592  11.694  63.131  0.00  0.00     0.193 C 
ATOM     84  H42 non d ame     -12.525  10.743  63.282  0.00  0.00     0.280 HD
ATOM     85  H43 non d ame     -12.546  12.255  62.403  0.00  0.00     0.280 HD
ATOM     86  H44 non d ame     -10.055  12.369  62.465  0.00  0.00     0.129 H 
ATOM     87  H37 non d ame      -9.557  12.933  63.907  0.00  0.00     0.046 H 
BRANCH  83  88
ATOM     88  O6  non d ame     -10.107  10.386  62.822  0.00  0.00    -0.369 OA
ATOM     89  H45 non d ame     -10.811   9.746  62.949  0.00  0.00     0.212 HD
ENDBRANCH  83  88
ENDBRANCH  72  75
ENDBRANCH  47  72
ENDBRANCH  45  47
ENDBRANCH   1  43
BRANCH   1  90
ATOM     90  C16 non d ame      -5.885  13.240  69.359  0.00  0.00    -0.035 C 
ATOM     91  H21 non d ame      -5.750  14.089  70.030  0.00  0.00     0.037 H 
ATOM     92  H22 non d ame      -6.518  12.405  69.657  0.00  0.00     0.037 H 
BRANCH  90  93
ATOM     93  C17 non d ame      -4.462  12.648  69.106  0.00  0.00    -0.059 C 
ATOM     94  H23 non d ame      -3.742  13.283  69.622  0.00  0.00     0.038 H 
BRANCH  93  95
ATOM     95  C18 non d ame      -4.316  11.201  69.678  0.00  0.00    -0.073 C 
ATOM     96  H24 non d ame      -5.292  10.838  70.000  0.00  0.00     0.028 H 
ATOM     97  H25 non d ame      -3.921  10.543  68.903  0.00  0.00     0.028 H 
ATOM     98  H26 non d ame      -3.634  11.213  70.527  0.00  0.00     0.028 H 
ENDBRANCH  93  95
BRANCH  93  99
ATOM     99  C19 non d ame      -4.112  12.682  67.616  0.00  0.00    -0.073 C 
ATOM    100  H27 non d ame      -3.144  12.205  67.459  0.00  0.00     0.028 H 
ATOM    101  H28 non d ame      -4.877  12.149  67.051  0.00  0.00     0.028 H 
ATOM    102  H29 non d ame      -4.066  13.717  67.277  0.00  0.00     0.028 H 
ENDBRANCH  93  99
ENDBRANCH  90  93
ENDBRANCH   1  90
TORSDOF 26
ENDMDL
MODEL 7
REMARK VINA RESULT:      -6.5      2.783      7.636
REMARK  26 active torsions:
REMARK  status: ('A' for Active; 'I' for Inactive)
REMARK    1  A    between atoms: C2_2  and  C3_3 
REMARK    2  A    between atoms: C4_6  and  C5_7 
REMARK       I    between atoms: C5_7  and  N2_9 
REMARK    3  A    between atoms: N2_9  and  C6_10 
REMARK    4  A    between atoms: C6_10  and  C7_11 
REMARK    5  A    between atoms: C6_10  and  C8_13 
REMARK       I    between atoms: C7_11  and  N3_14 
REMARK    6  A    between atoms: N3_14  and  C9_15 
REMARK    7  A    between atoms: C9_15  and  C10_16 
REMARK    8  A    between atoms: C9_15  and  C11_18 
REMARK       I    between atoms: C10_16  and  N4_21 
REMARK    9  A    between atoms: C11_18  and  C12_19 
REMARK   10  A    between atoms: C11_18  and  C13_20 
REMARK   11  A    between atoms: N4_21  and  C14_22 
REMARK   12  A    between atoms: C14_22  and  C15_23 
REMARK   13  A    between atoms: C14_22  and  C16_25 
REMARK       I    between atoms: C15_23  and  N6_40 
REMARK   14  A    between atoms: C16_25  and  C17_26 
REMARK   15  A    between atoms: C17_26  and  C18_27 
REMARK   16  A    between atoms: C17_26  and  C19_28 
REMARK   17  A    between atoms: C20_29  and  C21_30 
REMARK   18  A    between atoms: C20_29  and  C24_33 
REMARK   19  A    between atoms: C20_29  and  N6_40 
REMARK   20  A    between atoms: C21_30  and  C22_31 
REMARK   21  A    between atoms: C22_31  and  C23_32 
REMARK   22  A    between atoms: C23_32  and  O8_43 
REMARK   23  A    between atoms: C24_33  and  C25_34 
REMARK   24  A    between atoms: C28_38  and  O6_39 
REMARK   25  A    between atoms: C29_42  and  O8_43 
REMARK   26  A    between atoms: C29_42  and  C35_49 
ROOT
ATOM      1  C14 non d ame      -9.914   9.373  66.733  0.00  0.00     0.089 C 
ATOM      2  H20 non d ame     -10.906   8.920  66.757  0.00  0.00     0.087 H 
ENDROOT
BRANCH   1   3
ATOM      3  N4  non d ame     -10.084  10.782  66.410  0.00  0.00    -0.346 N 
ATOM      4  C10 non d ame     -11.217  11.571  67.014  0.00  0.00     0.241 C 
ATOM      5  O4  non d ame     -11.982  11.050  67.757  0.00  0.00    -0.271 OA
ATOM      6  H19 non d ame      -9.423  11.205  65.773  0.00  0.00     0.163 HD
BRANCH   4   7
ATOM      7  C9  non d ame     -11.374  13.030  66.672  0.00  0.00     0.092 C 
ATOM      8  H11 non d ame     -12.422  13.312  66.776  0.00  0.00     0.088 H 
BRANCH   7   9
ATOM      9  N3  non d ame     -10.611  13.841  67.626  0.00  0.00    -0.346 N 
ATOM     10  C7  non d ame     -11.254  14.359  68.808  0.00  0.00     0.240 C 
ATOM     11  O3  non d ame     -12.386  14.134  69.007  0.00  0.00    -0.271 OA
ATOM     12  H10 non d ame      -9.634  14.044  67.467  0.00  0.00     0.163 HD
BRANCH  10  13
ATOM     13  C6  non d ame     -10.438  15.223  69.818  0.00  0.00     0.086 C 
ATOM     14  H6  non d ame      -9.508  14.746  70.126  0.00  0.00     0.086 H 
BRANCH  13  15
ATOM     15  N2  non d ame     -10.071  16.475  69.177  0.00  0.00    -0.343 N 
ATOM     16  C5  non d ame      -8.671  16.720  68.822  0.00  0.00     0.273 C 
ATOM     17  O2  non d ame      -7.848  15.905  69.058  0.00  0.00    -0.266 OA
ATOM     18  H5  non d ame     -10.780  17.167  68.982  0.00  0.00     0.163 HD
BRANCH  16  19
ATOM     19  C4  non d ame      -8.269  18.039  68.142  0.00  0.00     0.154 A 
ATOM     20  C1  non d ame      -7.172  18.890  68.489  0.00  0.00    -0.017 A 
ATOM     21  C2  non d ame      -7.238  19.960  67.568  0.00  0.00     0.077 A 
ATOM     22  H1  non d ame      -6.441  18.753  69.286  0.00  0.00     0.091 H 
ATOM     23  O1  non d ame      -8.256  19.738  66.789  0.00  0.00    -0.218 OA
ATOM     24  N1  non d ame      -8.873  18.623  67.104  0.00  0.00    -0.123 NA
BRANCH  21  25
ATOM     25  C3  non d ame      -6.292  21.152  67.502  0.00  0.00    -0.029 C 
ATOM     26  H2  non d ame      -6.133  21.432  66.460  0.00  0.00     0.036 H 
ATOM     27  H3  non d ame      -6.728  21.992  68.042  0.00  0.00     0.036 H 
ATOM     28  H4  non d ame      -5.338  20.884  67.956  0.00  0.00     0.036 H 
ENDBRANCH  21  25
ENDBRANCH  16  19
ENDBRANCH  13  15
BRANCH  13  29
ATOM     29  C8  non d ame     -11.274  15.496  71.042  0.00  0.00    -0.049 C 
ATOM     30  H7  non d ame     -11.273  16.565  71.253  0.00  0.00     0.030 H 
ATOM     31  H8  non d ame     -12.296  15.161  70.866  0.00  0.00     0.030 H 
ATOM     32  H9  non d ame     -10.857  14.958  71.894  0.00  0.00     0.030 H 
ENDBRANCH  13  29
ENDBRANCH  10  13
ENDBRANCH   7   9
BRANCH   7  33
ATOM     33  C11 non d ame     -10.838  13.285  65.233  0.00  0.00    -0.033 C 
ATOM     34  H12 non d ame      -9.985  12.625  65.078  0.00  0.00     0.042 H 
BRANCH  33  35
ATOM     35  C12 non d ame     -11.909  12.928  64.156  0.00  0.00    -0.071 C 
ATOM     36  H13 non d ame     -12.128  11.861  64.201  0.00  0.00     0.028 H 
ATOM     37  H14 non d ame     -12.821  13.494  64.349  0.00  0.00     0.028 H 
ATOM     38  H15 non d ame     -11.528  13.180  63.167  0.00  0.00     0.028 H 
ENDBRANCH  33  35
BRANCH  33  39
ATOM     39  C13 non d ame     -10.344  14.759  65.074  0.00  0.00    -0.071 C 
ATOM     40  H16 non d ame      -9.256  14.787  65.135  0.00  0.00     0.028 H 
ATOM     41  H17 non d ame     -10.664  15.147  64.106  0.00  0.00     0.028 H 
ATOM     42  H18 non d ame     -10.768  15.372  65.869  0.00  0.00     0.028 H 
ENDBRANCH  33  39
ENDBRANCH   7  33
ENDBRANCH   4   7
ENDBRANCH   1   3
BRANCH   1  43
ATOM     43  C15 non d ame      -9.186   9.264  68.104  0.00  0.00     0.240 C 
ATOM     44  O5  non d ame      -8.124   9.776  68.251  0.00  0.00    -0.271 OA
ATOM     45  N6  non d ame      -9.818   8.527  69.236  0.00  0.00    -0.355 N 
ATOM     46  H46 non d ame     -10.722   8.092  69.124  0.00  0.00     0.162 HD
BRANCH  45  47
ATOM     47  C20 non d ame      -9.113   8.434  70.533  0.00  0.00     0.013 C 
ATOM     48  H30 non d ame      -8.308   9.168  70.531  0.00  0.00     0.072 H 
BRANCH  47  49
ATOM     49  C21 non d ame      -8.543   7.043  70.692  0.00  0.00    -0.038 C 
ATOM     50  H31 non d ame      -7.626   7.031  70.103  0.00  0.00     0.036 H 
ATOM     51  H32 non d ame      -8.503   6.863  71.767  0.00  0.00     0.036 H 
BRANCH  49  52
ATOM     52  C22 non d ame      -9.457   5.948  70.100  0.00  0.00     0.018 C 
ATOM     53  H33 non d ame      -9.598   5.218  70.897  0.00  0.00     0.048 H 
ATOM     54  H34 non d ame     -10.317   6.475  69.685  0.00  0.00     0.048 H 
BRANCH  52  55
ATOM     55  C23 non d ame      -8.818   5.172  68.916  0.00  0.00     0.259 C 
ATOM     56  O7  non d ame      -8.397   4.072  69.073  0.00  0.00    -0.265 OA
BRANCH  55  57
ATOM     57  O8  non d ame      -8.729   5.795  67.640  0.00  0.00    -0.317 OA
BRANCH  57  58
ATOM     58  C29 non d ame      -8.980   4.913  66.542  0.00  0.00     0.052 C 
ATOM     59  H47 non d ame      -8.647   3.929  66.872  0.00  0.00     0.082 H 
ATOM     60  H48 non d ame     -10.023   5.072  66.269  0.00  0.00     0.082 H 
BRANCH  58  61
ATOM     61  C35 non d ame      -8.087   5.362  65.355  0.00  0.00    -0.034 A 
ATOM     62  C30 non d ame      -6.774   5.759  65.582  0.00  0.00    -0.075 A 
ATOM     63  C31 non d ame      -5.972   6.162  64.515  0.00  0.00    -0.082 A 
ATOM     64  H49 non d ame      -6.372   5.755  66.595  0.00  0.00     0.084 H 
ATOM     65  C32 non d ame      -6.489   6.169  63.217  0.00  0.00    -0.083 A 
ATOM     66  H50 non d ame      -4.942   6.471  64.696  0.00  0.00     0.083 H 
ATOM     67  C33 non d ame      -7.801   5.774  62.995  0.00  0.00    -0.082 A 
ATOM     68  H51 non d ame      -5.868   6.482  62.377  0.00  0.00     0.083 H 
ATOM     69  C34 non d ame      -8.606   5.369  64.058  0.00  0.00    -0.075 A 
ATOM     70  H52 non d ame      -8.202   5.783  61.982  0.00  0.00     0.083 H 
ATOM     71  H53 non d ame      -9.635   5.060  63.876  0.00  0.00     0.084 H 
ENDBRANCH  58  61
ENDBRANCH  57  58
ENDBRANCH  55  57
ENDBRANCH  52  55
ENDBRANCH  49  52
ENDBRANCH  47  49
BRANCH  47  72
ATOM     72  C24 non d ame     -10.089   8.718  71.672  0.00  0.00    -0.039 C 
ATOM     73  H35 non d ame      -9.971   7.889  72.370  0.00  0.00     0.036 H 
ATOM     74  H36 non d ame      -9.870   9.736  71.995  0.00  0.00     0.036 H 
BRANCH  72  75
ATOM     75  C25 non d ame     -11.610   8.700  71.169  0.00  0.00    -0.001 C 
ATOM     76  C26 non d ame     -12.214  10.229  71.155  0.00  0.00    -0.035 C 
ATOM     77  C27 non d ame     -13.388  10.240  71.830  0.00  0.00     0.085 C 
ATOM     78  H38 non d ame     -11.576  10.888  71.742  0.00  0.00     0.036 H 
ATOM     79  H39 non d ame     -12.501  10.508  70.141  0.00  0.00     0.036 H 
ATOM     80  N5  non d ame     -13.479   8.934  72.581  0.00  0.00    -0.049 N 
ATOM     81  H40 non d ame     -13.304  11.058  72.547  0.00  0.00     0.075 H 
ATOM     82  H41 non d ame     -14.164  10.264  71.065  0.00  0.00     0.075 H 
ATOM     83  C28 non d ame     -12.349   7.975  71.941  0.00  0.00     0.193 C 
ATOM     84  H42 non d ame     -13.225   9.136  73.538  0.00  0.00     0.280 HD
ATOM     85  H43 non d ame     -14.387   8.545  72.371  0.00  0.00     0.280 HD
ATOM     86  H44 non d ame     -12.627   7.174  71.255  0.00  0.00     0.129 H 
ATOM     87  H37 non d ame     -11.738   8.107  70.262  0.00  0.00     0.046 H 
BRANCH  83  88
ATOM     88  O6  non d ame     -11.592   7.345  72.976  0.00  0.00    -0.369 OA
ATOM     89  H45 non d ame     -10.810   7.869  73.164  0.00  0.00     0.212 HD
ENDBRANCH  83  88
ENDBRANCH  72  75
ENDBRANCH  47  72
ENDBRANCH  45  47
ENDBRANCH   1  43
BRANCH   1  90
ATOM     90  C16 non d ame      -9.072   8.713  65.653  0.00  0.00    -0.035 C 
ATOM     91  H21 non d ame      -8.283   8.182  66.186  0.00  0.00     0.037 H 
ATOM     92  H22 non d ame      -9.779   8.160  65.034  0.00  0.00     0.037 H 
BRANCH  90  93
ATOM     93  C17 non d ame      -8.358   9.730  64.707  0.00  0.00    -0.059 C 
ATOM     94  H23 non d ame      -8.779  10.716  64.903  0.00  0.00     0.038 H 
BRANCH  93  95
ATOM     95  C18 non d ame      -6.821   9.806  64.975  0.00  0.00    -0.073 C 
ATOM     96  H24 non d ame      -6.573   9.191  65.840  0.00  0.00     0.028 H 
ATOM     97  H25 non d ame      -6.281   9.440  64.102  0.00  0.00     0.028 H 
ATOM     98  H26 non d ame      -6.537  10.841  65.170  0.00  0.00     0.028 H 
ENDBRANCH  93  95
BRANCH  93  99
ATOM     99  C19 non d ame      -8.639   9.400  63.238  0.00  0.00    -0.073 C 
ATOM    100  H27 non d ame      -9.529   8.774  63.170  0.00  0.00     0.028 H 
ATOM    101  H28 non d ame      -8.801  10.324  62.683  0.00  0.00     0.028 H 
ATOM    102  H29 non d ame      -7.787   8.868  62.816  0.00  0.00     0.028 H 
ENDBRANCH  93  99
ENDBRANCH  90  93
ENDBRANCH   1  90
TORSDOF 26
ENDMDL
MODEL 8
REMARK VINA RESULT:      -6.4      3.384      7.472
REMARK  26 active torsions:
REMARK  status: ('A' for Active; 'I' for Inactive)
REMARK    1  A    between atoms: C2_2  and  C3_3 
REMARK    2  A    between atoms: C4_6  and  C5_7 
REMARK       I    between atoms: C5_7  and  N2_9 
REMARK    3  A    between atoms: N2_9  and  C6_10 
REMARK    4  A    between atoms: C6_10  and  C7_11 
REMARK    5  A    between atoms: C6_10  and  C8_13 
REMARK       I    between atoms: C7_11  and  N3_14 
REMARK    6  A    between atoms: N3_14  and  C9_15 
REMARK    7  A    between atoms: C9_15  and  C10_16 
REMARK    8  A    between atoms: C9_15  and  C11_18 
REMARK       I    between atoms: C10_16  and  N4_21 
REMARK    9  A    between atoms: C11_18  and  C12_19 
REMARK   10  A    between atoms: C11_18  and  C13_20 
REMARK   11  A    between atoms: N4_21  and  C14_22 
REMARK   12  A    between atoms: C14_22  and  C15_23 
REMARK   13  A    between atoms: C14_22  and  C16_25 
REMARK       I    between atoms: C15_23  and  N6_40 
REMARK   14  A    between atoms: C16_25  and  C17_26 
REMARK   15  A    between atoms: C17_26  and  C18_27 
REMARK   16  A    between atoms: C17_26  and  C19_28 
REMARK   17  A    between atoms: C20_29  and  C21_30 
REMARK   18  A    between atoms: C20_29  and  C24_33 
REMARK   19  A    between atoms: C20_29  and  N6_40 
REMARK   20  A    between atoms: C21_30  and  C22_31 
REMARK   21  A    between atoms: C22_31  and  C23_32 
REMARK   22  A    between atoms: C23_32  and  O8_43 
REMARK   23  A    between atoms: C24_33  and  C25_34 
REMARK   24  A    between atoms: C28_38  and  O6_39 
REMARK   25  A    between atoms: C29_42  and  O8_43 
REMARK   26  A    between atoms: C29_42  and  C35_49 
ROOT
ATOM      1  C14 non d ame     -10.284  10.179  67.244  0.00  0.00     0.089 C 
ATOM      2  H20 non d ame      -9.275  10.284  67.644  0.00  0.00     0.087 H 
ENDROOT
BRANCH   1   3
ATOM      3  N4  non d ame     -10.736   8.828  67.545  0.00  0.00    -0.346 N 
ATOM      4  C10 non d ame     -10.189   8.091  68.741  0.00  0.00     0.241 C 
ATOM      5  O4  non d ame      -9.383   8.603  69.445  0.00  0.00    -0.271 OA
ATOM      6  H19 non d ame     -11.421   8.409  66.932  0.00  0.00     0.163 HD
BRANCH   4   7
ATOM      7  C9  non d ame     -10.672   6.696  69.040  0.00  0.00     0.092 C 
ATOM      8  H11 non d ame     -11.682   6.575  68.648  0.00  0.00     0.088 H 
BRANCH   7   9
ATOM      9  N3  non d ame      -9.820   5.724  68.350  0.00  0.00    -0.346 N 
ATOM     10  C7  non d ame     -10.107   5.354  66.986  0.00  0.00     0.240 C 
ATOM     11  O3  non d ame     -11.022   5.828  66.429  0.00  0.00    -0.271 OA
ATOM     12  H10 non d ame      -9.028   5.305  68.817  0.00  0.00     0.163 HD
BRANCH  10  13
ATOM     13  C6  non d ame      -9.198   4.317  66.257  0.00  0.00     0.086 C 
ATOM     14  H6  non d ame      -9.691   3.848  65.405  0.00  0.00     0.086 H 
BRANCH  13  15
ATOM     15  N2  non d ame      -8.027   5.001  65.735  0.00  0.00    -0.343 N 
ATOM     16  C5  non d ame      -7.987   5.388  64.323  0.00  0.00     0.273 C 
ATOM     17  O2  non d ame      -8.901   5.141  63.615  0.00  0.00    -0.266 OA
ATOM     18  H5  non d ame      -7.249   5.205  66.346  0.00  0.00     0.163 HD
BRANCH  16  19
ATOM     19  C4  non d ame      -6.756   6.113  63.758  0.00  0.00     0.154 A 
ATOM     20  C1  non d ame      -6.459   7.510  63.847  0.00  0.00    -0.017 A 
ATOM     21  C2  non d ame      -5.225   7.663  63.175  0.00  0.00     0.077 A 
ATOM     22  H1  non d ame      -7.048   8.293  64.325  0.00  0.00     0.091 H 
ATOM     23  O1  non d ame      -4.865   6.486  62.755  0.00  0.00    -0.218 OA
ATOM     24  N1  non d ame      -5.742   5.565  63.082  0.00  0.00    -0.123 NA
BRANCH  21  25
ATOM     25  C3  non d ame      -4.460   8.965  62.981  0.00  0.00    -0.029 C 
ATOM     26  H2  non d ame      -3.996   8.971  61.995  0.00  0.00     0.036 H 
ATOM     27  H3  non d ame      -5.148   9.807  63.063  0.00  0.00     0.036 H 
ATOM     28  H4  non d ame      -3.688   9.051  63.746  0.00  0.00     0.036 H 
ENDBRANCH  21  25
ENDBRANCH  16  19
ENDBRANCH  13  15
BRANCH  13  29
ATOM     29  C8  non d ame      -8.778   3.242  67.228  0.00  0.00    -0.049 C 
ATOM     30  H7  non d ame      -7.709   3.056  67.124  0.00  0.00     0.030 H 
ATOM     31  H8  non d ame      -8.993   3.568  68.246  0.00  0.00     0.030 H 
ATOM     32  H9  non d ame      -9.329   2.326  67.015  0.00  0.00     0.030 H 
ENDBRANCH  13  29
ENDBRANCH  10  13
ENDBRANCH   7   9
BRANCH   7  33
ATOM     33  C11 non d ame     -10.606   6.442  70.575  0.00  0.00    -0.033 C 
ATOM     34  H12 non d ame      -9.812   7.072  70.978  0.00  0.00     0.042 H 
BRANCH  33  35
ATOM     35  C12 non d ame     -11.936   6.857  71.278  0.00  0.00    -0.071 C 
ATOM     36  H13 non d ame     -12.678   7.120  70.524  0.00  0.00     0.028 H 
ATOM     37  H14 non d ame     -12.305   6.024  71.875  0.00  0.00     0.028 H 
ATOM     38  H15 non d ame     -11.753   7.715  71.924  0.00  0.00     0.028 H 
ENDBRANCH  33  35
BRANCH  33  39
ATOM     39  C13 non d ame     -10.243   4.954  70.881  0.00  0.00    -0.071 C 
ATOM     40  H16 non d ame     -10.293   4.371  69.961  0.00  0.00     0.028 H 
ATOM     41  H17 non d ame      -9.234   4.902  71.289  0.00  0.00     0.028 H 
ATOM     42  H18 non d ame     -10.950   4.550  71.606  0.00  0.00     0.028 H 
ENDBRANCH  33  39
ENDBRANCH   7  33
ENDBRANCH   4   7
ENDBRANCH   1   3
BRANCH   1  43
ATOM     43  C15 non d ame     -11.278  11.188  67.886  0.00  0.00     0.240 C 
ATOM     44  O5  non d ame     -12.344  10.815  68.255  0.00  0.00    -0.271 OA
ATOM     45  N6  non d ame     -10.897  12.620  68.049  0.00  0.00    -0.355 N 
ATOM     46  H46 non d ame      -9.992  12.949  67.744  0.00  0.00     0.162 HD
BRANCH  45  47
ATOM     47  C20 non d ame     -11.853  13.568  68.662  0.00  0.00     0.013 C 
ATOM     48  H30 non d ame     -12.853  13.305  68.318  0.00  0.00     0.072 H 
BRANCH  47  49
ATOM     49  C21 non d ame     -11.510  14.975  68.228  0.00  0.00    -0.038 C 
ATOM     50  H31 non d ame     -12.124  15.631  68.845  0.00  0.00     0.036 H 
ATOM     51  H32 non d ame     -10.423  15.041  68.276  0.00  0.00     0.036 H 
BRANCH  49  52
ATOM     52  C22 non d ame     -11.901  15.262  66.762  0.00  0.00     0.018 C 
ATOM     53  H33 non d ame     -12.740  14.600  66.545  0.00  0.00     0.048 H 
ATOM     54  H34 non d ame     -12.028  16.343  66.696  0.00  0.00     0.048 H 
BRANCH  52  55
ATOM     55  C23 non d ame     -10.792  14.897  65.736  0.00  0.00     0.259 C 
ATOM     56  O7  non d ame     -10.679  13.783  65.340  0.00  0.00    -0.265 OA
BRANCH  55  57
ATOM     57  O8  non d ame      -9.903  15.911  65.281  0.00  0.00    -0.317 OA
BRANCH  57  58
ATOM     58  C29 non d ame      -8.908  16.284  66.239  0.00  0.00     0.052 C 
ATOM     59  H47 non d ame      -8.938  15.515  67.010  0.00  0.00     0.082 H 
ATOM     60  H48 non d ame      -7.995  16.448  65.667  0.00  0.00     0.082 H 
BRANCH  58  61
ATOM     61  C35 non d ame      -9.338  17.633  66.874  0.00  0.00    -0.034 A 
ATOM     62  C30 non d ame     -10.154  18.509  66.165  0.00  0.00    -0.075 A 
ATOM     63  C31 non d ame     -10.540  19.721  66.735  0.00  0.00    -0.082 A 
ATOM     64  H49 non d ame     -10.492  18.245  65.162  0.00  0.00     0.084 H 
ATOM     65  C32 non d ame     -10.104  20.058  68.020  0.00  0.00    -0.083 A 
ATOM     66  H50 non d ame     -11.181  20.404  66.178  0.00  0.00     0.083 H 
ATOM     67  C33 non d ame      -9.288  19.182  68.722  0.00  0.00    -0.082 A 
ATOM     68  H51 non d ame     -10.402  21.003  68.473  0.00  0.00     0.083 H 
ATOM     69  C34 non d ame      -8.901  17.969  68.157  0.00  0.00    -0.075 A 
ATOM     70  H52 non d ame      -8.948  19.449  69.724  0.00  0.00     0.083 H 
ATOM     71  H53 non d ame      -8.260  17.286  68.716  0.00  0.00     0.084 H 
ENDBRANCH  58  61
ENDBRANCH  57  58
ENDBRANCH  55  57
ENDBRANCH  52  55
ENDBRANCH  49  52
ENDBRANCH  47  49
BRANCH  47  72
ATOM     72  C24 non d ame     -11.772  13.470  70.184  0.00  0.00    -0.039 C 
ATOM     73  H35 non d ame     -12.137  12.472  70.430  0.00  0.00     0.036 H 
ATOM     74  H36 non d ame     -10.752  13.755  70.440  0.00  0.00     0.036 H 
BRANCH  72  75
ATOM     75  C25 non d ame     -12.749  14.520  70.898  0.00  0.00    -0.001 C 
ATOM     76  C26 non d ame     -11.867  15.711  71.609  0.00  0.00    -0.035 C 
ATOM     77  C27 non d ame     -12.266  15.841  72.897  0.00  0.00     0.085 C 
ATOM     78  H38 non d ame     -10.825  15.404  71.695  0.00  0.00     0.036 H 
ATOM     79  H39 non d ame     -12.116  16.676  71.167  0.00  0.00     0.036 H 
ATOM     80  N5  non d ame     -13.108  14.630  73.222  0.00  0.00    -0.049 N 
ATOM     81  H40 non d ame     -11.351  15.807  73.491  0.00  0.00     0.075 H 
ATOM     82  H41 non d ame     -12.897  16.728  72.918  0.00  0.00     0.075 H 
ATOM     83  C28 non d ame     -13.469  13.947  71.805  0.00  0.00     0.193 C 
ATOM     84  H42 non d ame     -12.514  14.000  73.741  0.00  0.00     0.280 HD
ATOM     85  H43 non d ame     -13.960  14.978  73.637  0.00  0.00     0.280 HD
ATOM     86  H44 non d ame     -14.462  14.063  71.371  0.00  0.00     0.129 H 
ATOM     87  H37 non d ame     -13.568  14.829  70.249  0.00  0.00     0.046 H 
BRANCH  83  88
ATOM     88  O6  non d ame     -13.240  12.538  71.864  0.00  0.00    -0.369 OA
ATOM     89  H45 non d ame     -12.318  12.373  72.073  0.00  0.00     0.212 HD
ENDBRANCH  83  88
ENDBRANCH  72  75
ENDBRANCH  47  72
ENDBRANCH  45  47
ENDBRANCH   1  43
BRANCH   1  90
ATOM     90  C16 non d ame     -10.263  10.370  65.736  0.00  0.00    -0.035 C 
ATOM     91  H21 non d ame     -10.483   9.388  65.317  0.00  0.00     0.037 H 
ATOM     92  H22 non d ame     -10.934  11.207  65.542  0.00  0.00     0.037 H 
BRANCH  90  93
ATOM     93  C17 non d ame      -8.866  10.786  65.176  0.00  0.00    -0.059 C 
ATOM     94  H23 non d ame      -8.853  11.873  65.092  0.00  0.00     0.038 H 
BRANCH  93  95
ATOM     95  C18 non d ame      -7.701  10.369  66.131  0.00  0.00    -0.073 C 
ATOM     96  H24 non d ame      -8.100   9.774  66.952  0.00  0.00     0.028 H 
ATOM     97  H25 non d ame      -6.971   9.779  65.576  0.00  0.00     0.028 H 
ATOM     98  H26 non d ame      -7.220  11.263  66.529  0.00  0.00     0.028 H 
ENDBRANCH  93  95
BRANCH  93  99
ATOM     99  C19 non d ame      -8.648  10.219  63.771  0.00  0.00    -0.073 C 
ATOM    100  H27 non d ame      -9.178  10.835  63.044  0.00  0.00     0.028 H 
ATOM    101  H28 non d ame      -7.583  10.219  63.540  0.00  0.00     0.028 H 
ATOM    102  H29 non d ame      -9.029   9.199  63.729  0.00  0.00     0.028 H 
ENDBRANCH  93  99
ENDBRANCH  90  93
ENDBRANCH   1  90
TORSDOF 26
ENDMDL
MODEL 9
REMARK VINA RESULT:      -6.4      1.832      5.496
REMARK  26 active torsions:
REMARK  status: ('A' for Active; 'I' for Inactive)
REMARK    1  A    between atoms: C2_2  and  C3_3 
REMARK    2  A    between atoms: C4_6  and  C5_7 
REMARK       I    between atoms: C5_7  and  N2_9 
REMARK    3  A    between atoms: N2_9  and  C6_10 
REMARK    4  A    between atoms: C6_10  and  C7_11 
REMARK    5  A    between atoms: C6_10  and  C8_13 
REMARK       I    between atoms: C7_11  and  N3_14 
REMARK    6  A    between atoms: N3_14  and  C9_15 
REMARK    7  A    between atoms: C9_15  and  C10_16 
REMARK    8  A    between atoms: C9_15  and  C11_18 
REMARK       I    between atoms: C10_16  and  N4_21 
REMARK    9  A    between atoms: C11_18  and  C12_19 
REMARK   10  A    between atoms: C11_18  and  C13_20 
REMARK   11  A    between atoms: N4_21  and  C14_22 
REMARK   12  A    between atoms: C14_22  and  C15_23 
REMARK   13  A    between atoms: C14_22  and  C16_25 
REMARK       I    between atoms: C15_23  and  N6_40 
REMARK   14  A    between atoms: C16_25  and  C17_26 
REMARK   15  A    between atoms: C17_26  and  C18_27 
REMARK   16  A    between atoms: C17_26  and  C19_28 
REMARK   17  A    between atoms: C20_29  and  C21_30 
REMARK   18  A    between atoms: C20_29  and  C24_33 
REMARK   19  A    between atoms: C20_29  and  N6_40 
REMARK   20  A    between atoms: C21_30  and  C22_31 
REMARK   21  A    between atoms: C22_31  and  C23_32 
REMARK   22  A    between atoms: C23_32  and  O8_43 
REMARK   23  A    between atoms: C24_33  and  C25_34 
REMARK   24  A    between atoms: C28_38  and  O6_39 
REMARK   25  A    between atoms: C29_42  and  O8_43 
REMARK   26  A    between atoms: C29_42  and  C35_49 
ROOT
ATOM      1  C14 non d ame     -10.154  10.688  68.681  0.00  0.00     0.089 C 
ATOM      2  H20 non d ame      -9.919  10.453  67.643  0.00  0.00     0.087 H 
ENDROOT
BRANCH   1   3
ATOM      3  N4  non d ame      -8.904  11.020  69.349  0.00  0.00    -0.346 N 
ATOM      4  C10 non d ame      -7.614  11.068  68.569  0.00  0.00     0.241 C 
ATOM      5  O4  non d ame      -7.606  10.833  67.406  0.00  0.00    -0.271 OA
ATOM      6  H19 non d ame      -8.932  11.215  70.339  0.00  0.00     0.163 HD
BRANCH   4   7
ATOM      7  C9  non d ame      -6.330  11.419  69.275  0.00  0.00     0.092 C 
ATOM      8  H11 non d ame      -5.499  11.321  68.577  0.00  0.00     0.088 H 
BRANCH   7   9
ATOM      9  N3  non d ame      -6.374  12.821  69.702  0.00  0.00    -0.346 N 
ATOM     10  C7  non d ame      -5.640  13.821  68.967  0.00  0.00     0.240 C 
ATOM     11  O3  non d ame      -5.008  13.516  68.031  0.00  0.00    -0.271 OA
ATOM     12  H10 non d ame      -6.914  13.100  70.509  0.00  0.00     0.163 HD
BRANCH  10  13
ATOM     13  C6  non d ame      -5.688  15.311  69.428  0.00  0.00     0.086 C 
ATOM     14  H6  non d ame      -4.902  15.917  68.979  0.00  0.00     0.086 H 
BRANCH  13  15
ATOM     15  N2  non d ame      -6.952  15.894  69.009  0.00  0.00    -0.343 N 
ATOM     16  C5  non d ame      -6.995  17.294  68.581  0.00  0.00     0.273 C 
ATOM     17  O2  non d ame      -6.007  17.943  68.581  0.00  0.00    -0.266 OA
ATOM     18  H5  non d ame      -7.792  15.332  69.015  0.00  0.00     0.163 HD
BRANCH  16  19
ATOM     19  C4  non d ame      -8.324  17.922  68.134  0.00  0.00     0.154 A 
ATOM     20  C1  non d ame      -8.642  18.443  66.840  0.00  0.00    -0.017 A 
ATOM     21  C2  non d ame      -9.975  18.899  66.949  0.00  0.00     0.077 A 
ATOM     22  H1  non d ame      -8.003  18.484  65.957  0.00  0.00     0.091 H 
ATOM     23  O1  non d ame     -10.367  18.661  68.166  0.00  0.00    -0.218 OA
ATOM     24  N1  non d ame      -9.421  18.092  68.877  0.00  0.00    -0.123 NA
BRANCH  21  25
ATOM     25  C3  non d ame     -10.799  19.546  65.844  0.00  0.00    -0.029 C 
ATOM     26  H2  non d ame     -11.421  18.791  65.363  0.00  0.00     0.036 H 
ATOM     27  H3  non d ame     -11.434  20.322  66.272  0.00  0.00     0.036 H 
ATOM     28  H4  non d ame     -10.132  19.991  65.105  0.00  0.00     0.036 H 
ENDBRANCH  21  25
ENDBRANCH  16  19
ENDBRANCH  13  15
BRANCH  13  29
ATOM     29  C8  non d ame      -5.560  15.380  70.929  0.00  0.00    -0.049 C 
ATOM     30  H7  non d ame      -5.213  16.372  71.219  0.00  0.00     0.030 H 
ATOM     31  H8  non d ame      -6.531  15.186  71.386  0.00  0.00     0.030 H 
ATOM     32  H9  non d ame      -4.843  14.632  71.266  0.00  0.00     0.030 H 
ENDBRANCH  13  29
ENDBRANCH  10  13
ENDBRANCH   7   9
BRANCH   7  33
ATOM     33  C11 non d ame      -6.158  10.505  70.524  0.00  0.00    -0.033 C 
ATOM     34  H12 non d ame      -7.057  10.607  71.132  0.00  0.00     0.042 H 
BRANCH  33  35
ATOM     35  C12 non d ame      -6.036   9.004  70.116  0.00  0.00    -0.071 C 
ATOM     36  H13 non d ame      -6.282   8.893  69.060  0.00  0.00     0.028 H 
ATOM     37  H14 non d ame      -5.015   8.663  70.288  0.00  0.00     0.028 H 
ATOM     38  H15 non d ame      -6.724   8.407  70.715  0.00  0.00     0.028 H 
ENDBRANCH  33  35
BRANCH  33  39
ATOM     39  C13 non d ame      -4.937  10.959  71.386  0.00  0.00    -0.071 C 
ATOM     40  H16 non d ame      -4.417  10.082  71.770  0.00  0.00     0.028 H 
ATOM     41  H17 non d ame      -4.255  11.546  70.769  0.00  0.00     0.028 H 
ATOM     42  H18 non d ame      -5.288  11.568  72.219  0.00  0.00     0.028 H 
ENDBRANCH  33  39
ENDBRANCH   7  33
ENDBRANCH   4   7
ENDBRANCH   1   3
BRANCH   1  43
ATOM     43  C15 non d ame     -11.119  11.902  68.804  0.00  0.00     0.240 C 
ATOM     44  O5  non d ame     -12.292  11.735  68.720  0.00  0.00    -0.271 OA
ATOM     45  N6  non d ame     -10.580  13.272  69.036  0.00  0.00    -0.355 N 
ATOM     46  H46 non d ame      -9.585  13.426  69.115  0.00  0.00     0.162 HD
BRANCH  45  47
ATOM     47  C20 non d ame     -11.510  14.416  69.153  0.00  0.00     0.013 C 
ATOM     48  H30 non d ame     -12.527  14.023  69.150  0.00  0.00     0.072 H 
BRANCH  47  49
ATOM     49  C21 non d ame     -11.312  15.343  67.975  0.00  0.00    -0.038 C 
ATOM     50  H31 non d ame     -12.299  15.469  67.530  0.00  0.00     0.036 H 
ATOM     51  H32 non d ame     -10.777  16.208  68.368  0.00  0.00     0.036 H 
BRANCH  49  52
ATOM     52  C22 non d ame     -10.412  14.735  66.878  0.00  0.00     0.018 C 
ATOM     53  H33 non d ame      -9.432  15.194  67.011  0.00  0.00     0.048 H 
ATOM     54  H34 non d ame     -10.525  13.654  66.969  0.00  0.00     0.048 H 
BRANCH  52  55
ATOM     55  C23 non d ame     -10.859  15.091  65.433  0.00  0.00     0.259 C 
ATOM     56  O7  non d ame     -10.543  16.126  64.942  0.00  0.00    -0.265 OA
BRANCH  55  57
ATOM     57  O8  non d ame     -11.662  14.170  64.705  0.00  0.00    -0.317 OA
BRANCH  57  58
ATOM     58  C29 non d ame     -11.839  12.909  65.357  0.00  0.00     0.052 C 
ATOM     59  H47 non d ame     -11.529  13.066  66.390  0.00  0.00     0.082 H 
ATOM     60  H48 non d ame     -12.861  12.603  65.135  0.00  0.00     0.082 H 
BRANCH  58  61
ATOM     61  C35 non d ame     -10.868  11.891  64.701  0.00  0.00    -0.034 A 
ATOM     62  C30 non d ame     -10.327  12.153  63.446  0.00  0.00    -0.075 A 
ATOM     63  C31 non d ame      -9.456  11.239  62.857  0.00  0.00    -0.082 A 
ATOM     64  H49 non d ame     -10.586  13.075  62.925  0.00  0.00     0.084 H 
ATOM     65  C32 non d ame      -9.127  10.057  63.527  0.00  0.00    -0.083 A 
ATOM     66  H50 non d ame      -9.031  11.448  61.875  0.00  0.00     0.083 H 
ATOM     67  C33 non d ame      -9.672   9.798  64.777  0.00  0.00    -0.082 A 
ATOM     68  H51 non d ame      -8.446   9.337  63.074  0.00  0.00     0.083 H 
ATOM     69  C34 non d ame     -10.542  10.710  65.371  0.00  0.00    -0.075 A 
ATOM     70  H52 non d ame      -9.416   8.874  65.296  0.00  0.00     0.083 H 
ATOM     71  H53 non d ame     -10.965  10.501  66.353  0.00  0.00     0.084 H 
ENDBRANCH  58  61
ENDBRANCH  57  58
ENDBRANCH  55  57
ENDBRANCH  52  55
ENDBRANCH  49  52
ENDBRANCH  47  49
BRANCH  47  72
ATOM     72  C24 non d ame     -11.238  15.174  70.450  0.00  0.00    -0.039 C 
ATOM     73  H35 non d ame     -10.203  14.946  70.707  0.00  0.00     0.036 H 
ATOM     74  H36 non d ame     -11.536  16.204  70.253  0.00  0.00     0.036 H 
BRANCH  72  75
ATOM     75  C25 non d ame     -12.151  14.639  71.652  0.00  0.00    -0.001 C 
ATOM     76  C26 non d ame     -13.606  14.138  71.070  0.00  0.00    -0.035 C 
ATOM     77  C27 non d ame     -14.590  14.730  71.788  0.00  0.00     0.085 C 
ATOM     78  H38 non d ame     -13.757  14.523  70.062  0.00  0.00     0.036 H 
ATOM     79  H39 non d ame     -13.744  13.076  71.275  0.00  0.00     0.036 H 
ATOM     80  N5  non d ame     -13.949  15.837  72.588  0.00  0.00    -0.049 N 
ATOM     81  H40 non d ame     -15.264  15.168  71.051  0.00  0.00     0.075 H 
ATOM     82  H41 non d ame     -14.954  13.963  72.471  0.00  0.00     0.075 H 
ATOM     83  C28 non d ame     -12.359  15.564  72.530  0.00  0.00     0.193 C 
ATOM     84  H42 non d ame     -14.145  16.697  72.096  0.00  0.00     0.280 HD
ATOM     85  H43 non d ame     -14.260  15.719  73.542  0.00  0.00     0.280 HD
ATOM     86  H44 non d ame     -11.837  15.142  73.389  0.00  0.00     0.129 H 
ATOM     87  H37 non d ame     -11.614  13.950  72.305  0.00  0.00     0.046 H 
BRANCH  83  88
ATOM     88  O6  non d ame     -11.662  16.771  72.215  0.00  0.00    -0.369 OA
ATOM     89  H45 non d ame     -11.915  17.457  72.836  0.00  0.00     0.212 HD
ENDBRANCH  83  88
ENDBRANCH  72  75
ENDBRANCH  47  72
ENDBRANCH  45  47
ENDBRANCH   1  43
BRANCH   1  90
ATOM     90  C16 non d ame     -10.770   9.474  69.357  0.00  0.00    -0.035 C 
ATOM     91  H21 non d ame     -11.826   9.498  69.086  0.00  0.00     0.037 H 
ATOM     92  H22 non d ame     -10.150   8.630  69.057  0.00  0.00     0.037 H 
BRANCH  90  93
ATOM     93  C17 non d ame     -10.714   9.530  70.917  0.00  0.00    -0.059 C 
ATOM     94  H23 non d ame     -10.214  10.457  71.197  0.00  0.00     0.038 H 
BRANCH  93  95
ATOM     95  C18 non d ame     -12.139   9.545  71.558  0.00  0.00    -0.073 C 
ATOM     96  H24 non d ame     -12.704   8.683  71.206  0.00  0.00     0.028 H 
ATOM     97  H25 non d ame     -12.049   9.502  72.644  0.00  0.00     0.028 H 
ATOM     98  H26 non d ame     -12.656  10.461  71.273  0.00  0.00     0.028 H 
ENDBRANCH  93  95
BRANCH  93  99
ATOM     99  C19 non d ame      -9.877   8.376  71.476  0.00  0.00    -0.073 C 
ATOM    100  H27 non d ame     -10.536   7.638  71.933  0.00  0.00     0.028 H 
ATOM    101  H28 non d ame      -9.316   7.910  70.666  0.00  0.00     0.028 H 
ATOM    102  H29 non d ame      -9.184   8.759  72.225  0.00  0.00     0.028 H 
ENDBRANCH  93  99
ENDBRANCH  90  93
ENDBRANCH   1  90
TORSDOF 26
ENDMDL
MODEL 10
REMARK VINA RESULT:      -6.4      3.335      7.417
REMARK  26 active torsions:
REMARK  status: ('A' for Active; 'I' for Inactive)
REMARK    1  A    between atoms: C2_2  and  C3_3 
REMARK    2  A    between atoms: C4_6  and  C5_7 
REMARK       I    between atoms: C5_7  and  N2_9 
REMARK    3  A    between atoms: N2_9  and  C6_10 
REMARK    4  A    between atoms: C6_10  and  C7_11 
REMARK    5  A    between atoms: C6_10  and  C8_13 
REMARK       I    between atoms: C7_11  and  N3_14 
REMARK    6  A    between atoms: N3_14  and  C9_15 
REMARK    7  A    between atoms: C9_15  and  C10_16 
REMARK    8  A    between atoms: C9_15  and  C11_18 
REMARK       I    between atoms: C10_16  and  N4_21 
REMARK    9  A    between atoms: C11_18  and  C12_19 
REMARK   10  A    between atoms: C11_18  and  C13_20 
REMARK   11  A    between atoms: N4_21  and  C14_22 
REMARK   12  A    between atoms: C14_22  and  C15_23 
REMARK   13  A    between atoms: C14_22  and  C16_25 
REMARK       I    between atoms: C15_23  and  N6_40 
REMARK   14  A    between atoms: C16_25  and  C17_26 
REMARK   15  A    between atoms: C17_26  and  C18_27 
REMARK   16  A    between atoms: C17_26  and  C19_28 
REMARK   17  A    between atoms: C20_29  and  C21_30 
REMARK   18  A    between atoms: C20_29  and  C24_33 
REMARK   19  A    between atoms: C20_29  and  N6_40 
REMARK   20  A    between atoms: C21_30  and  C22_31 
REMARK   21  A    between atoms: C22_31  and  C23_32 
REMARK   22  A    between atoms: C23_32  and  O8_43 
REMARK   23  A    between atoms: C24_33  and  C25_34 
REMARK   24  A    between atoms: C28_38  and  O6_39 
REMARK   25  A    between atoms: C29_42  and  O8_43 
REMARK   26  A    between atoms: C29_42  and  C35_49 
ROOT
ATOM      1  C14 non d ame     -10.894   8.895  69.173  0.00  0.00     0.089 C 
ATOM      2  H20 non d ame     -11.953   8.661  69.284  0.00  0.00     0.087 H 
ENDROOT
BRANCH   1   3
ATOM      3  N4  non d ame     -10.191   7.643  68.934  0.00  0.00    -0.346 N 
ATOM      4  C10 non d ame     -10.859   6.325  69.235  0.00  0.00     0.241 C 
ATOM      5  O4  non d ame     -11.962   6.297  69.672  0.00  0.00    -0.271 OA
ATOM      6  H19 non d ame      -9.252   7.688  68.565  0.00  0.00     0.163 HD
BRANCH   4   7
ATOM      7  C9  non d ame     -10.119   5.039  68.977  0.00  0.00     0.092 C 
ATOM      8  H11 non d ame     -10.791   4.329  68.495  0.00  0.00     0.088 H 
BRANCH   7   9
ATOM      9  N3  non d ame      -9.014   5.289  68.046  0.00  0.00    -0.346 N 
ATOM     10  C7  non d ame      -8.923   4.539  66.817  0.00  0.00     0.240 C 
ATOM     11  O3  non d ame      -9.730   3.730  66.562  0.00  0.00    -0.271 OA
ATOM     12  H10 non d ame      -8.310   5.983  68.253  0.00  0.00     0.163 HD
BRANCH  10  13
ATOM     13  C6  non d ame      -7.744   4.808  65.832  0.00  0.00     0.086 C 
ATOM     14  H6  non d ame      -7.828   4.237  64.908  0.00  0.00     0.086 H 
BRANCH  13  15
ATOM     15  N2  non d ame      -7.753   6.212  65.456  0.00  0.00    -0.343 N 
ATOM     16  C5  non d ame      -7.857   6.579  64.042  0.00  0.00     0.273 C 
ATOM     17  O2  non d ame      -7.928   5.738  63.215  0.00  0.00    -0.266 OA
ATOM     18  H5  non d ame      -7.689   6.924  66.170  0.00  0.00     0.163 HD
BRANCH  16  19
ATOM     19  C4  non d ame      -7.870   8.060  63.631  0.00  0.00     0.154 A 
ATOM     20  C1  non d ame      -7.845   8.588  62.301  0.00  0.00    -0.017 A 
ATOM     21  C2  non d ame      -7.872   9.991  62.466  0.00  0.00     0.077 A 
ATOM     22  H1  non d ame      -7.812   8.038  61.360  0.00  0.00     0.091 H 
ATOM     23  O1  non d ame      -7.909  10.229  63.745  0.00  0.00    -0.218 OA
ATOM     24  N1  non d ame      -7.908   9.119  64.445  0.00  0.00    -0.123 NA
BRANCH  21  25
ATOM     25  C3  non d ame      -7.860  11.030  61.353  0.00  0.00    -0.029 C 
ATOM     26  H2  non d ame      -7.725  12.023  61.784  0.00  0.00     0.036 H 
ATOM     27  H3  non d ame      -7.041  10.818  60.666  0.00  0.00     0.036 H 
ATOM     28  H4  non d ame      -8.806  10.994  60.812  0.00  0.00     0.036 H 
ENDBRANCH  21  25
ENDBRANCH  16  19
ENDBRANCH  13  15
BRANCH  13  29
ATOM     29  C8  non d ame      -6.438   4.461  66.501  0.00  0.00    -0.049 C 
ATOM     30  H7  non d ame      -6.564   3.559  67.100  0.00  0.00     0.030 H 
ATOM     31  H8  non d ame      -5.675   4.290  65.742  0.00  0.00     0.030 H 
ATOM     32  H9  non d ame      -6.131   5.284  67.146  0.00  0.00     0.030 H 
ENDBRANCH  13  29
ENDBRANCH  10  13
ENDBRANCH   7   9
BRANCH   7  33
ATOM     33  C11 non d ame      -9.550   4.490  70.317  0.00  0.00    -0.033 C 
ATOM     34  H12 non d ame     -10.290   4.684  71.093  0.00  0.00     0.042 H 
BRANCH  33  35
ATOM     35  C12 non d ame      -9.332   2.946  70.252  0.00  0.00    -0.071 C 
ATOM     36  H13 non d ame      -9.598   2.501  71.211  0.00  0.00     0.028 H 
ATOM     37  H14 non d ame      -9.960   2.523  69.469  0.00  0.00     0.028 H 
ATOM     38  H15 non d ame      -8.285   2.736  70.032  0.00  0.00     0.028 H 
ENDBRANCH  33  35
BRANCH  33  39
ATOM     39  C13 non d ame      -8.232   5.232  70.711  0.00  0.00    -0.071 C 
ATOM     40  H16 non d ame      -8.476   6.211  71.124  0.00  0.00     0.028 H 
ATOM     41  H17 non d ame      -7.695   4.646  71.458  0.00  0.00     0.028 H 
ATOM     42  H18 non d ame      -7.607   5.355  69.827  0.00  0.00     0.028 H 
ENDBRANCH  33  39
ENDBRANCH   7  33
ENDBRANCH   4   7
ENDBRANCH   1   3
BRANCH   1  43
ATOM     43  C15 non d ame     -10.626   9.850  67.974  0.00  0.00     0.240 C 
ATOM     44  O5  non d ame     -10.366   9.399  66.906  0.00  0.00    -0.271 OA
ATOM     45  N6  non d ame     -10.703  11.327  68.157  0.00  0.00    -0.355 N 
ATOM     46  H46 non d ame     -10.928  11.722  69.058  0.00  0.00     0.162 HD
BRANCH  45  47
ATOM     47  C20 non d ame     -10.447  12.222  67.007  0.00  0.00     0.013 C 
ATOM     48  H30 non d ame     -10.141  11.604  66.163  0.00  0.00     0.072 H 
BRANCH  47  49
ATOM     49  C21 non d ame      -9.343  13.191  67.364  0.00  0.00    -0.038 C 
ATOM     50  H31 non d ame      -8.454  12.580  67.523  0.00  0.00     0.036 H 
ATOM     51  H32 non d ame      -9.351  13.948  66.579  0.00  0.00     0.036 H 
BRANCH  49  52
ATOM     52  C22 non d ame      -9.604  13.935  68.691  0.00  0.00     0.018 C 
ATOM     53  H33 non d ame     -10.597  13.622  69.015  0.00  0.00     0.048 H 
ATOM     54  H34 non d ame      -8.737  13.731  69.320  0.00  0.00     0.048 H 
BRANCH  52  55
ATOM     55  C23 non d ame      -9.670  15.480  68.541  0.00  0.00     0.259 C 
ATOM     56  O7  non d ame      -8.802  16.069  67.982  0.00  0.00    -0.265 OA
BRANCH  55  57
ATOM     57  O8  non d ame     -10.775  16.187  69.090  0.00  0.00    -0.317 OA
BRANCH  57  58
ATOM     58  C29 non d ame     -11.979  15.418  69.167  0.00  0.00     0.052 C 
ATOM     59  H47 non d ame     -12.749  16.028  68.695  0.00  0.00     0.082 H 
ATOM     60  H48 non d ame     -11.730  14.440  68.756  0.00  0.00     0.082 H 
BRANCH  58  61
ATOM     61  C35 non d ame     -12.341  15.243  70.666  0.00  0.00    -0.034 A 
ATOM     62  C30 non d ame     -11.844  16.135  71.611  0.00  0.00    -0.075 A 
ATOM     63  C31 non d ame     -12.168  15.978  72.958  0.00  0.00    -0.082 A 
ATOM     64  H49 non d ame     -11.200  16.956  71.297  0.00  0.00     0.084 H 
ATOM     65  C32 non d ame     -12.992  14.922  73.358  0.00  0.00    -0.083 A 
ATOM     66  H50 non d ame     -11.779  16.679  73.696  0.00  0.00     0.083 H 
ATOM     67  C33 non d ame     -13.483  14.033  72.412  0.00  0.00    -0.082 A 
ATOM     68  H51 non d ame     -13.252  14.793  74.409  0.00  0.00     0.083 H 
ATOM     69  C34 non d ame     -13.163  14.188  71.065  0.00  0.00    -0.075 A 
ATOM     70  H52 non d ame     -14.124  13.209  72.728  0.00  0.00     0.083 H 
ATOM     71  H53 non d ame     -13.553  13.486  70.327  0.00  0.00     0.084 H 
ENDBRANCH  58  61
ENDBRANCH  57  58
ENDBRANCH  55  57
ENDBRANCH  52  55
ENDBRANCH  49  52
ENDBRANCH  47  49
BRANCH  47  72
ATOM     72  C24 non d ame     -11.716  12.998  66.664  0.00  0.00    -0.039 C 
ATOM     73  H35 non d ame     -12.435  12.738  67.442  0.00  0.00     0.036 H 
ATOM     74  H36 non d ame     -11.399  14.034  66.541  0.00  0.00     0.036 H 
BRANCH  72  75
ATOM     75  C25 non d ame     -12.341  12.526  65.267  0.00  0.00    -0.001 C 
ATOM     76  C26 non d ame     -11.334  11.449  64.539  0.00  0.00    -0.035 C 
ATOM     77  C27 non d ame     -11.108  11.854  63.266  0.00  0.00     0.085 C 
ATOM     78  H38 non d ame     -10.347  11.490  64.999  0.00  0.00     0.036 H 
ATOM     79  H39 non d ame     -11.839  10.490  64.415  0.00  0.00     0.036 H 
ATOM     80  N5  non d ame     -11.602  13.277  63.162  0.00  0.00    -0.049 N 
ATOM     81  H40 non d ame     -10.024  11.845  63.146  0.00  0.00     0.075 H 
ATOM     82  H41 non d ame     -11.731  11.215  62.642  0.00  0.00     0.075 H 
ATOM     83  C28 non d ame     -12.514  13.527  64.470  0.00  0.00     0.193 C 
ATOM     84  H42 non d ame     -10.786  13.869  63.220  0.00  0.00     0.280 HD
ATOM     85  H43 non d ame     -12.195  13.314  62.345  0.00  0.00     0.280 HD
ATOM     86  H44 non d ame     -13.602  13.534  64.394  0.00  0.00     0.129 H 
ATOM     87  H37 non d ame     -13.389  12.241  65.358  0.00  0.00     0.046 H 
BRANCH  83  88
ATOM     88  O6  non d ame     -12.166  14.770  65.082  0.00  0.00    -0.369 OA
ATOM     89  H45 non d ame     -12.765  14.946  65.812  0.00  0.00     0.212 HD
ENDBRANCH  83  88
ENDBRANCH  72  75
ENDBRANCH  47  72
ENDBRANCH  45  47
ENDBRANCH   1  43
BRANCH   1  90
ATOM     90  C16 non d ame     -10.368   9.523  70.454  0.00  0.00    -0.035 C 
ATOM     91  H21 non d ame      -9.649   8.806  70.853  0.00  0.00     0.037 H 
ATOM     92  H22 non d ame     -10.040  10.523  70.172  0.00  0.00     0.037 H 
BRANCH  90  93
ATOM     93  C17 non d ame     -11.461   9.710  71.554  0.00  0.00    -0.059 C 
ATOM     94  H23 non d ame     -11.056  10.381  72.312  0.00  0.00     0.038 H 
BRANCH  93  95
ATOM     95  C18 non d ame     -12.762  10.363  70.987  0.00  0.00    -0.073 C 
ATOM     96  H24 non d ame     -12.689  10.434  69.902  0.00  0.00     0.028 H 
ATOM     97  H25 non d ame     -13.623   9.748  71.253  0.00  0.00     0.028 H 
ATOM     98  H26 non d ame     -12.883  11.360  71.410  0.00  0.00     0.028 H 
ENDBRANCH  93  95
BRANCH  93  99
ATOM     99  C19 non d ame     -11.775   8.381  72.245  0.00  0.00    -0.073 C 
ATOM    100  H27 non d ame     -12.820   8.120  72.075  0.00  0.00     0.028 H 
ATOM    101  H28 non d ame     -11.134   7.599  71.836  0.00  0.00     0.028 H 
ATOM    102  H29 non d ame     -11.594   8.476  73.315  0.00  0.00     0.028 H 
ENDBRANCH  93  99
ENDBRANCH  90  93
ENDBRANCH   1  90
TORSDOF 26
ENDMDL
MODEL 11
REMARK VINA RESULT:      -6.4      2.764      6.405
REMARK  26 active torsions:
REMARK  status: ('A' for Active; 'I' for Inactive)
REMARK    1  A    between atoms: C2_2  and  C3_3 
REMARK    2  A    between atoms: C4_6  and  C5_7 
REMARK       I    between atoms: C5_7  and  N2_9 
REMARK    3  A    between atoms: N2_9  and  C6_10 
REMARK    4  A    between atoms: C6_10  and  C7_11 
REMARK    5  A    between atoms: C6_10  and  C8_13 
REMARK       I    between atoms: C7_11  and  N3_14 
REMARK    6  A    between atoms: N3_14  and  C9_15 
REMARK    7  A    between atoms: C9_15  and  C10_16 
REMARK    8  A    between atoms: C9_15  and  C11_18 
REMARK       I    between atoms: C10_16  and  N4_21 
REMARK    9  A    between atoms: C11_18  and  C12_19 
REMARK   10  A    between atoms: C11_18  and  C13_20 
REMARK   11  A    between atoms: N4_21  and  C14_22 
REMARK   12  A    between atoms: C14_22  and  C15_23 
REMARK   13  A    between atoms: C14_22  and  C16_25 
REMARK       I    between atoms: C15_23  and  N6_40 
REMARK   14  A    between atoms: C16_25  and  C17_26 
REMARK   15  A    between atoms: C17_26  and  C18_27 
REMARK   16  A    between atoms: C17_26  and  C19_28 
REMARK   17  A    between atoms: C20_29  and  C21_30 
REMARK   18  A    between atoms: C20_29  and  C24_33 
REMARK   19  A    between atoms: C20_29  and  N6_40 
REMARK   20  A    between atoms: C21_30  and  C22_31 
REMARK   21  A    between atoms: C22_31  and  C23_32 
REMARK   22  A    between atoms: C23_32  and  O8_43 
REMARK   23  A    between atoms: C24_33  and  C25_34 
REMARK   24  A    between atoms: C28_38  and  O6_39 
REMARK   25  A    between atoms: C29_42  and  O8_43 
REMARK   26  A    between atoms: C29_42  and  C35_49 
ROOT
ATOM      1  C14 non d ame      -9.627   9.653  69.401  0.00  0.00     0.089 C 
ATOM      2  H20 non d ame      -9.215   8.810  69.957  0.00  0.00     0.087 H 
ENDROOT
BRANCH   1   3
ATOM      3  N4  non d ame      -8.694  10.762  69.532  0.00  0.00    -0.346 N 
ATOM      4  C10 non d ame      -7.232  10.569  69.215  0.00  0.00     0.241 C 
ATOM      5  O4  non d ame      -6.830   9.511  68.859  0.00  0.00    -0.271 OA
ATOM      6  H19 non d ame      -9.056  11.654  69.839  0.00  0.00     0.163 HD
BRANCH   4   7
ATOM      7  C9  non d ame      -6.281  11.730  69.351  0.00  0.00     0.092 C 
ATOM      8  H11 non d ame      -5.680  11.808  68.445  0.00  0.00     0.088 H 
BRANCH   7   9
ATOM      9  N3  non d ame      -7.044  12.976  69.473  0.00  0.00    -0.346 N 
ATOM     10  C7  non d ame      -7.105  13.896  68.364  0.00  0.00     0.240 C 
ATOM     11  O3  non d ame      -6.544  13.650  67.367  0.00  0.00    -0.271 OA
ATOM     12  H10 non d ame      -7.532  13.202  70.329  0.00  0.00     0.163 HD
BRANCH  10  13
ATOM     13  C6  non d ame      -7.916  15.221  68.502  0.00  0.00     0.086 C 
ATOM     14  H6  non d ame      -8.344  15.554  67.557  0.00  0.00     0.086 H 
BRANCH  13  15
ATOM     15  N2  non d ame      -9.030  15.000  69.409  0.00  0.00    -0.343 N 
ATOM     16  C5  non d ame     -10.398  15.241  68.943  0.00  0.00     0.273 C 
ATOM     17  O2  non d ame     -10.590  15.615  67.838  0.00  0.00    -0.266 OA
ATOM     18  H5  non d ame      -8.856  14.683  70.352  0.00  0.00     0.163 HD
BRANCH  16  19
ATOM     19  C4  non d ame     -11.585  15.010  69.890  0.00  0.00     0.154 A 
ATOM     20  C1  non d ame     -11.925  13.798  70.571  0.00  0.00    -0.017 A 
ATOM     21  C2  non d ame     -13.090  14.109  71.308  0.00  0.00     0.077 A 
ATOM     22  H1  non d ame     -11.405  12.840  70.537  0.00  0.00     0.091 H 
ATOM     23  O1  non d ame     -13.376  15.356  71.071  0.00  0.00    -0.218 OA
ATOM     24  N1  non d ame     -12.513  15.902  70.246  0.00  0.00    -0.123 NA
BRANCH  21  25
ATOM     25  C3  non d ame     -13.865  13.160  72.212  0.00  0.00    -0.029 C 
ATOM     26  H2  non d ame     -14.419  13.735  72.954  0.00  0.00     0.036 H 
ATOM     27  H3  non d ame     -14.562  12.575  71.612  0.00  0.00     0.036 H 
ATOM     28  H4  non d ame     -13.169  12.489  72.717  0.00  0.00     0.036 H 
ENDBRANCH  21  25
ENDBRANCH  16  19
ENDBRANCH  13  15
BRANCH  13  29
ATOM     29  C8  non d ame      -7.020  16.308  69.040  0.00  0.00    -0.049 C 
ATOM     30  H7  non d ame      -6.511  16.803  68.213  0.00  0.00     0.030 H 
ATOM     31  H8  non d ame      -7.620  17.037  69.585  0.00  0.00     0.030 H 
ATOM     32  H9  non d ame      -6.281  15.870  69.711  0.00  0.00     0.030 H 
ENDBRANCH  13  29
ENDBRANCH  10  13
ENDBRANCH   7   9
BRANCH   7  33
ATOM     33  C11 non d ame      -5.403  11.535  70.621  0.00  0.00    -0.033 C 
ATOM     34  H12 non d ame      -5.940  10.865  71.293  0.00  0.00     0.042 H 
BRANCH  33  35
ATOM     35  C12 non d ame      -4.042  10.857  70.273  0.00  0.00    -0.071 C 
ATOM     36  H13 non d ame      -3.493  10.650  71.192  0.00  0.00     0.028 H 
ATOM     37  H14 non d ame      -4.226   9.923  69.743  0.00  0.00     0.028 H 
ATOM     38  H15 non d ame      -3.455  11.524  69.641  0.00  0.00     0.028 H 
ENDBRANCH  33  35
BRANCH  33  39
ATOM     39  C13 non d ame      -5.186  12.892  71.365  0.00  0.00    -0.071 C 
ATOM     40  H16 non d ame      -4.726  13.609  70.685  0.00  0.00     0.028 H 
ATOM     41  H17 non d ame      -6.148  13.279  71.704  0.00  0.00     0.028 H 
ATOM     42  H18 non d ame      -4.535  12.735  72.224  0.00  0.00     0.028 H 
ENDBRANCH  33  39
ENDBRANCH   7  33
ENDBRANCH   4   7
ENDBRANCH   1   3
BRANCH   1  43
ATOM     43  C15 non d ame      -9.804   9.331  67.890  0.00  0.00     0.240 C 
ATOM     44  O5  non d ame     -10.296   8.301  67.559  0.00  0.00    -0.271 OA
ATOM     45  N6  non d ame      -9.368  10.310  66.854  0.00  0.00    -0.355 N 
ATOM     46  H46 non d ame      -8.953  11.191  67.123  0.00  0.00     0.162 HD
BRANCH  45  47
ATOM     47  C20 non d ame      -9.544   9.989  65.421  0.00  0.00     0.013 C 
ATOM     48  H30 non d ame     -10.409   9.332  65.329  0.00  0.00     0.072 H 
BRANCH  47  49
ATOM     49  C21 non d ame      -8.306   9.287  64.910  0.00  0.00    -0.038 C 
ATOM     50  H31 non d ame      -7.526  10.048  64.883  0.00  0.00     0.036 H 
ATOM     51  H32 non d ame      -8.187   8.406  65.541  0.00  0.00     0.036 H 
BRANCH  49  52
ATOM     52  C22 non d ame      -8.464   8.772  63.464  0.00  0.00     0.018 C 
ATOM     53  H33 non d ame      -9.222   7.989  63.510  0.00  0.00     0.048 H 
ATOM     54  H34 non d ame      -8.632   9.658  62.851  0.00  0.00     0.048 H 
BRANCH  52  55
ATOM     55  C23 non d ame      -7.185   8.096  62.897  0.00  0.00     0.259 C 
ATOM     56  O7  non d ame      -6.274   8.755  62.512  0.00  0.00    -0.265 OA
BRANCH  55  57
ATOM     57  O8  non d ame      -7.117   6.677  62.831  0.00  0.00    -0.317 OA
BRANCH  57  58
ATOM     58  C29 non d ame      -7.371   6.023  64.077  0.00  0.00     0.052 C 
ATOM     59  H47 non d ame      -6.502   5.391  64.261  0.00  0.00     0.082 H 
ATOM     60  H48 non d ame      -7.626   6.816  64.780  0.00  0.00     0.082 H 
BRANCH  58  61
ATOM     61  C35 non d ame      -8.613   5.110  63.895  0.00  0.00    -0.034 A 
ATOM     62  C30 non d ame      -8.983   4.683  62.624  0.00  0.00    -0.075 A 
ATOM     63  C31 non d ame     -10.099   3.863  62.461  0.00  0.00    -0.082 A 
ATOM     64  H49 non d ame      -8.400   4.990  61.757  0.00  0.00     0.084 H 
ATOM     65  C32 non d ame     -10.847   3.472  63.575  0.00  0.00    -0.083 A 
ATOM     66  H50 non d ame     -10.385   3.528  61.464  0.00  0.00     0.083 H 
ATOM     67  C33 non d ame     -10.475   3.904  64.841  0.00  0.00    -0.082 A 
ATOM     68  H51 non d ame     -11.720   2.831  63.456  0.00  0.00     0.083 H 
ATOM     69  C34 non d ame      -9.360   4.721  65.009  0.00  0.00    -0.075 A 
ATOM     70  H52 non d ame     -11.063   3.599  65.707  0.00  0.00     0.083 H 
ATOM     71  H53 non d ame      -9.074   5.055  66.007  0.00  0.00     0.084 H 
ENDBRANCH  58  61
ENDBRANCH  57  58
ENDBRANCH  55  57
ENDBRANCH  52  55
ENDBRANCH  49  52
ENDBRANCH  47  49
BRANCH  47  72
ATOM     72  C24 non d ame      -9.767  11.275  64.627  0.00  0.00    -0.039 C 
ATOM     73  H35 non d ame      -8.907  11.906  64.852  0.00  0.00     0.036 H 
ATOM     74  H36 non d ame      -9.954  10.954  63.603  0.00  0.00     0.036 H 
BRANCH  72  75
ATOM     75  C25 non d ame     -11.072  12.060  65.124  0.00  0.00    -0.001 C 
ATOM     76  C26 non d ame     -12.006  12.464  63.832  0.00  0.00    -0.035 C 
ATOM     77  C27 non d ame     -12.293  13.786  63.899  0.00  0.00     0.085 C 
ATOM     78  H38 non d ame     -11.431  12.374  62.912  0.00  0.00     0.036 H 
ATOM     79  H39 non d ame     -12.983  11.987  63.914  0.00  0.00     0.036 H 
ATOM     80  N5  non d ame     -11.373  14.386  64.934  0.00  0.00    -0.049 N 
ATOM     81  H40 non d ame     -12.037  14.190  62.919  0.00  0.00     0.075 H 
ATOM     82  H41 non d ame     -13.319  13.844  64.260  0.00  0.00     0.075 H 
ATOM     83  C28 non d ame     -10.755  13.141  65.755  0.00  0.00     0.193 C 
ATOM     84  H42 non d ame     -10.626  14.839  64.426  0.00  0.00     0.280 HD
ATOM     85  H43 non d ame     -11.957  14.925  65.559  0.00  0.00     0.280 HD
ATOM     86  H44 non d ame     -11.120  12.901  66.754  0.00  0.00     0.129 H 
ATOM     87  H37 non d ame     -11.566  11.556  65.955  0.00  0.00     0.046 H 
BRANCH  83  88
ATOM     88  O6  non d ame      -9.341  13.292  65.890  0.00  0.00    -0.369 OA
ATOM     89  H45 non d ame      -8.918  13.102  65.050  0.00  0.00     0.212 HD
ENDBRANCH  83  88
ENDBRANCH  72  75
ENDBRANCH  47  72
ENDBRANCH  45  47
ENDBRANCH   1  43
BRANCH   1  90
ATOM     90  C16 non d ame     -10.965  10.058  69.998  0.00  0.00    -0.035 C 
ATOM     91  H21 non d ame     -10.835  11.091  70.325  0.00  0.00     0.037 H 
ATOM     92  H22 non d ame     -11.706   9.818  69.235  0.00  0.00     0.037 H 
BRANCH  90  93
ATOM     93  C17 non d ame     -11.359   9.240  71.268  0.00  0.00    -0.059 C 
ATOM     94  H23 non d ame     -10.619   9.451  72.040  0.00  0.00     0.038 H 
BRANCH  93  95
ATOM     95  C18 non d ame     -12.759   9.652  71.825  0.00  0.00    -0.073 C 
ATOM     96  H24 non d ame     -12.661  10.565  72.413  0.00  0.00     0.028 H 
ATOM     97  H25 non d ame     -13.443   9.826  70.995  0.00  0.00     0.028 H 
ATOM     98  H26 non d ame     -13.149   8.853  72.456  0.00  0.00     0.028 H 
ENDBRANCH  93  95
BRANCH  93  99
ATOM     99  C19 non d ame     -11.306   7.736  70.988  0.00  0.00    -0.073 C 
ATOM    100  H27 non d ame     -10.921   7.567  69.981  0.00  0.00     0.028 H 
ATOM    101  H28 non d ame     -10.650   7.254  71.713  0.00  0.00     0.028 H 
ATOM    102  H29 non d ame     -12.308   7.315  71.069  0.00  0.00     0.028 H 
ENDBRANCH  93  99
ENDBRANCH  90  93
ENDBRANCH   1  90
TORSDOF 26
ENDMDL
MODEL 12
REMARK VINA RESULT:      -6.3      2.322      6.745
REMARK  26 active torsions:
REMARK  status: ('A' for Active; 'I' for Inactive)
REMARK    1  A    between atoms: C2_2  and  C3_3 
REMARK    2  A    between atoms: C4_6  and  C5_7 
REMARK       I    between atoms: C5_7  and  N2_9 
REMARK    3  A    between atoms: N2_9  and  C6_10 
REMARK    4  A    between atoms: C6_10  and  C7_11 
REMARK    5  A    between atoms: C6_10  and  C8_13 
REMARK       I    between atoms: C7_11  and  N3_14 
REMARK    6  A    between atoms: N3_14  and  C9_15 
REMARK    7  A    between atoms: C9_15  and  C10_16 
REMARK    8  A    between atoms: C9_15  and  C11_18 
REMARK       I    between atoms: C10_16  and  N4_21 
REMARK    9  A    between atoms: C11_18  and  C12_19 
REMARK   10  A    between atoms: C11_18  and  C13_20 
REMARK   11  A    between atoms: N4_21  and  C14_22 
REMARK   12  A    between atoms: C14_22  and  C15_23 
REMARK   13  A    between atoms: C14_22  and  C16_25 
REMARK       I    between atoms: C15_23  and  N6_40 
REMARK   14  A    between atoms: C16_25  and  C17_26 
REMARK   15  A    between atoms: C17_26  and  C18_27 
REMARK   16  A    between atoms: C17_26  and  C19_28 
REMARK   17  A    between atoms: C20_29  and  C21_30 
REMARK   18  A    between atoms: C20_29  and  C24_33 
REMARK   19  A    between atoms: C20_29  and  N6_40 
REMARK   20  A    between atoms: C21_30  and  C22_31 
REMARK   21  A    between atoms: C22_31  and  C23_32 
REMARK   22  A    between atoms: C23_32  and  O8_43 
REMARK   23  A    between atoms: C24_33  and  C25_34 
REMARK   24  A    between atoms: C28_38  and  O6_39 
REMARK   25  A    between atoms: C29_42  and  O8_43 
REMARK   26  A    between atoms: C29_42  and  C35_49 
ROOT
ATOM      1  C14 non d ame     -10.866   9.790  69.204  0.00  0.00     0.089 C 
ATOM      2  H20 non d ame     -11.530   8.946  69.014  0.00  0.00     0.087 H 
ENDROOT
BRANCH   1   3
ATOM      3  N4  non d ame      -9.558   9.448  68.666  0.00  0.00    -0.346 N 
ATOM      4  C10 non d ame      -9.252   8.031  68.250  0.00  0.00     0.241 C 
ATOM      5  O4  non d ame     -10.074   7.182  68.360  0.00  0.00    -0.271 OA
ATOM      6  H19 non d ame      -8.871  10.184  68.583  0.00  0.00     0.163 HD
BRANCH   4   7
ATOM      7  C9  non d ame      -7.895   7.696  67.689  0.00  0.00     0.092 C 
ATOM      8  H11 non d ame      -7.957   6.762  67.132  0.00  0.00     0.088 H 
BRANCH   7   9
ATOM      9  N3  non d ame      -7.485   8.739  66.744  0.00  0.00    -0.346 N 
ATOM     10  C7  non d ame      -7.432   8.450  65.332  0.00  0.00     0.240 C 
ATOM     11  O3  non d ame      -7.714   7.384  64.939  0.00  0.00    -0.271 OA
ATOM     12  H10 non d ame      -7.237   9.663  67.067  0.00  0.00     0.163 HD
BRANCH  10  13
ATOM     13  C6  non d ame      -6.992   9.563  64.330  0.00  0.00     0.086 C 
ATOM     14  H6  non d ame      -6.987   9.221  63.295  0.00  0.00     0.086 H 
BRANCH  13  15
ATOM     15  N2  non d ame      -7.941  10.662  64.400  0.00  0.00    -0.343 N 
ATOM     16  C5  non d ame      -9.241  10.535  63.737  0.00  0.00     0.273 C 
ATOM     17  O2  non d ame      -9.512   9.547  63.148  0.00  0.00    -0.266 OA
ATOM     18  H5  non d ame      -7.700  11.503  64.904  0.00  0.00     0.163 HD
BRANCH  16  19
ATOM     19  C4  non d ame     -10.254  11.688  63.804  0.00  0.00     0.154 A 
ATOM     20  C1  non d ame     -10.116  12.921  64.519  0.00  0.00    -0.017 A 
ATOM     21  C2  non d ame     -11.311  13.628  64.258  0.00  0.00     0.077 A 
ATOM     22  H1  non d ame      -9.278  13.251  65.132  0.00  0.00     0.091 H 
ATOM     23  O1  non d ame     -12.042  12.882  63.482  0.00  0.00    -0.218 OA
ATOM     24  N1  non d ame     -11.447  11.745  63.204  0.00  0.00    -0.123 NA
BRANCH  21  25
ATOM     25  C3  non d ame     -11.674  15.010  64.786  0.00  0.00    -0.029 C 
ATOM     26  H2  non d ame     -12.200  15.569  64.011  0.00  0.00     0.036 H 
ATOM     27  H3  non d ame     -12.318  14.906  65.659  0.00  0.00     0.036 H 
ATOM     28  H4  non d ame     -10.765  15.543  65.066  0.00  0.00     0.036 H 
ENDBRANCH  21  25
ENDBRANCH  16  19
ENDBRANCH  13  15
BRANCH  13  29
ATOM     29  C8  non d ame      -5.611  10.049  64.689  0.00  0.00    -0.049 C 
ATOM     30  H7  non d ame      -5.687  10.832  65.444  0.00  0.00     0.030 H 
ATOM     31  H8  non d ame      -5.025   9.219  65.083  0.00  0.00     0.030 H 
ATOM     32  H9  non d ame      -5.124  10.449  63.800  0.00  0.00     0.030 H 
ENDBRANCH  13  29
ENDBRANCH  10  13
ENDBRANCH   7   9
BRANCH   7  33
ATOM     33  C11 non d ame      -6.860   7.617  68.850  0.00  0.00    -0.033 C 
ATOM     34  H12 non d ame      -7.417   7.515  69.781  0.00  0.00     0.042 H 
BRANCH  33  35
ATOM     35  C12 non d ame      -5.945   6.360  68.711  0.00  0.00    -0.071 C 
ATOM     36  H13 non d ame      -5.981   5.996  67.684  0.00  0.00     0.028 H 
ATOM     37  H14 non d ame      -4.920   6.628  68.965  0.00  0.00     0.028 H 
ATOM     38  H15 non d ame      -6.295   5.580  69.386  0.00  0.00     0.028 H 
ENDBRANCH  33  35
BRANCH  33  39
ATOM     39  C13 non d ame      -6.013   8.928  68.935  0.00  0.00    -0.071 C 
ATOM     40  H16 non d ame      -5.901   9.221  69.978  0.00  0.00     0.028 H 
ATOM     41  H17 non d ame      -5.029   8.753  68.498  0.00  0.00     0.028 H 
ATOM     42  H18 non d ame      -6.518   9.722  68.385  0.00  0.00     0.028 H 
ENDBRANCH  33  39
ENDBRANCH   7  33
ENDBRANCH   4   7
ENDBRANCH   1   3
BRANCH   1  43
ATOM     43  C15 non d ame     -11.360  11.093  68.514  0.00  0.00     0.240 C 
ATOM     44  O5  non d ame     -11.980  11.028  67.502  0.00  0.00    -0.271 OA
ATOM     45  N6  non d ame     -11.069  12.424  69.120  0.00  0.00    -0.355 N 
ATOM     46  H46 non d ame     -10.547  12.491  69.982  0.00  0.00     0.162 HD
BRANCH  45  47
ATOM     47  C20 non d ame     -11.547  13.654  68.453  0.00  0.00     0.013 C 
ATOM     48  H30 non d ame     -12.146  13.357  67.593  0.00  0.00     0.072 H 
BRANCH  47  49
ATOM     49  C21 non d ame     -10.358  14.469  67.997  0.00  0.00    -0.038 C 
ATOM     50  H31 non d ame     -10.364  14.417  66.908  0.00  0.00     0.036 H 
ATOM     51  H32 non d ame     -10.453  15.433  68.497  0.00  0.00     0.036 H 
BRANCH  49  52
ATOM     52  C22 non d ame      -9.010  13.871  68.455  0.00  0.00     0.018 C 
ATOM     53  H33 non d ame      -9.018  13.923  69.544  0.00  0.00     0.048 H 
ATOM     54  H34 non d ame      -8.931  12.905  67.956  0.00  0.00     0.048 H 
BRANCH  52  55
ATOM     55  C23 non d ame      -7.772  14.692  67.997  0.00  0.00     0.259 C 
ATOM     56  O7  non d ame      -6.804  14.758  68.684  0.00  0.00    -0.265 OA
BRANCH  55  57
ATOM     57  O8  non d ame      -7.813  15.378  66.752  0.00  0.00    -0.317 OA
BRANCH  57  58
ATOM     58  C29 non d ame      -7.262  16.697  66.795  0.00  0.00     0.052 C 
ATOM     59  H47 non d ame      -6.560  16.696  67.629  0.00  0.00     0.082 H 
ATOM     60  H48 non d ame      -6.908  16.902  65.785  0.00  0.00     0.082 H 
BRANCH  58  61
ATOM     61  C35 non d ame      -8.412  17.686  67.122  0.00  0.00    -0.034 A 
ATOM     62  C30 non d ame      -8.412  18.381  68.327  0.00  0.00    -0.075 A 
ATOM     63  C31 non d ame      -9.446  19.269  68.622  0.00  0.00    -0.082 A 
ATOM     64  H49 non d ame      -7.603  18.229  69.041  0.00  0.00     0.084 H 
ATOM     65  C32 non d ame     -10.484  19.460  67.705  0.00  0.00    -0.083 A 
ATOM     66  H50 non d ame      -9.441  19.814  69.566  0.00  0.00     0.083 H 
ATOM     67  C33 non d ame     -10.481  18.762  66.505  0.00  0.00    -0.082 A 
ATOM     68  H51 non d ame     -11.295  20.153  67.927  0.00  0.00     0.083 H 
ATOM     69  C34 non d ame      -9.449  17.875  66.206  0.00  0.00    -0.075 A 
ATOM     70  H52 non d ame     -11.294  18.912  65.794  0.00  0.00     0.083 H 
ATOM     71  H53 non d ame      -9.454  17.331  65.261  0.00  0.00     0.084 H 
ENDBRANCH  58  61
ENDBRANCH  57  58
ENDBRANCH  55  57
ENDBRANCH  52  55
ENDBRANCH  49  52
ENDBRANCH  47  49
BRANCH  47  72
ATOM     72  C24 non d ame     -12.386  14.477  69.427  0.00  0.00    -0.039 C 
ATOM     73  H35 non d ame     -12.207  15.518  69.157  0.00  0.00     0.036 H 
ATOM     74  H36 non d ame     -13.393  14.064  69.363  0.00  0.00     0.036 H 
BRANCH  72  75
ATOM     75  C25 non d ame     -11.894  14.289  70.940  0.00  0.00    -0.001 C 
ATOM     76  C26 non d ame     -13.111  13.665  71.852  0.00  0.00    -0.035 C 
ATOM     77  C27 non d ame     -13.270  14.435  72.955  0.00  0.00     0.085 C 
ATOM     78  H38 non d ame     -14.062  13.770  71.329  0.00  0.00     0.036 H 
ATOM     79  H39 non d ame     -12.816  12.697  72.257  0.00  0.00     0.036 H 
ATOM     80  N5  non d ame     -12.496  15.709  72.718  0.00  0.00    -0.049 N 
ATOM     81  H40 non d ame     -14.334  14.668  72.997  0.00  0.00     0.075 H 
ATOM     82  H41 non d ame     -12.801  13.881  73.767  0.00  0.00     0.075 H 
ATOM     83  C28 non d ame     -11.531  15.415  71.457  0.00  0.00     0.193 C 
ATOM     84  H42 non d ame     -13.172  16.409  72.449  0.00  0.00     0.280 HD
ATOM     85  H43 non d ame     -11.921  15.851  73.536  0.00  0.00     0.280 HD
ATOM     86  H44 non d ame     -10.467  15.232  71.605  0.00  0.00     0.129 H 
ATOM     87  H37 non d ame     -10.925  13.793  71.000  0.00  0.00     0.046 H 
BRANCH  83  88
ATOM     88  O6  non d ame     -11.608  16.489  70.517  0.00  0.00    -0.369 OA
ATOM     89  H45 non d ame     -12.518  16.602  70.234  0.00  0.00     0.212 HD
ENDBRANCH  83  88
ENDBRANCH  72  75
ENDBRANCH  47  72
ENDBRANCH  45  47
ENDBRANCH   1  43
BRANCH   1  90
ATOM     90  C16 non d ame     -10.742  10.019  70.702  0.00  0.00    -0.035 C 
ATOM     91  H21 non d ame      -9.783   9.584  70.982  0.00  0.00     0.037 H 
ATOM     92  H22 non d ame     -10.919  11.085  70.846  0.00  0.00     0.037 H 
BRANCH  90  93
ATOM     93  C17 non d ame     -11.828   9.274  71.542  0.00  0.00    -0.059 C 
ATOM     94  H23 non d ame     -11.486   9.250  72.577  0.00  0.00     0.038 H 
BRANCH  93  95
ATOM     95  C18 non d ame     -13.205  10.012  71.512  0.00  0.00    -0.073 C 
ATOM     96  H24 non d ame     -14.007   9.279  71.437  0.00  0.00     0.028 H 
ATOM     97  H25 non d ame     -13.326  10.591  72.428  0.00  0.00     0.028 H 
ATOM     98  H26 non d ame     -13.240  10.681  70.652  0.00  0.00     0.028 H 
ENDBRANCH  93  95
BRANCH  93  99
ATOM     99  C19 non d ame     -11.977   7.823  71.078  0.00  0.00    -0.073 C 
ATOM    100  H27 non d ame     -12.582   7.792  70.171  0.00  0.00     0.028 H 
ATOM    101  H28 non d ame     -10.992   7.404  70.873  0.00  0.00     0.028 H 
ATOM    102  H29 non d ame     -12.463   7.240  71.860  0.00  0.00     0.028 H 
ENDBRANCH  93  99
ENDBRANCH  90  93
ENDBRANCH   1  90
TORSDOF 26
ENDMDL
MODEL 13
REMARK VINA RESULT:      -6.3      2.751      9.109
REMARK  26 active torsions:
REMARK  status: ('A' for Active; 'I' for Inactive)
REMARK    1  A    between atoms: C2_2  and  C3_3 
REMARK    2  A    between atoms: C4_6  and  C5_7 
REMARK       I    between atoms: C5_7  and  N2_9 
REMARK    3  A    between atoms: N2_9  and  C6_10 
REMARK    4  A    between atoms: C6_10  and  C7_11 
REMARK    5  A    between atoms: C6_10  and  C8_13 
REMARK       I    between atoms: C7_11  and  N3_14 
REMARK    6  A    between atoms: N3_14  and  C9_15 
REMARK    7  A    between atoms: C9_15  and  C10_16 
REMARK    8  A    between atoms: C9_15  and  C11_18 
REMARK       I    between atoms: C10_16  and  N4_21 
REMARK    9  A    between atoms: C11_18  and  C12_19 
REMARK   10  A    between atoms: C11_18  and  C13_20 
REMARK   11  A    between atoms: N4_21  and  C14_22 
REMARK   12  A    between atoms: C14_22  and  C15_23 
REMARK   13  A    between atoms: C14_22  and  C16_25 
REMARK       I    between atoms: C15_23  and  N6_40 
REMARK   14  A    between atoms: C16_25  and  C17_26 
REMARK   15  A    between atoms: C17_26  and  C18_27 
REMARK   16  A    between atoms: C17_26  and  C19_28 
REMARK   17  A    between atoms: C20_29  and  C21_30 
REMARK   18  A    between atoms: C20_29  and  C24_33 
REMARK   19  A    between atoms: C20_29  and  N6_40 
REMARK   20  A    between atoms: C21_30  and  C22_31 
REMARK   21  A    between atoms: C22_31  and  C23_32 
REMARK   22  A    between atoms: C23_32  and  O8_43 
REMARK   23  A    between atoms: C24_33  and  C25_34 
REMARK   24  A    between atoms: C28_38  and  O6_39 
REMARK   25  A    between atoms: C29_42  and  O8_43 
REMARK   26  A    between atoms: C29_42  and  C35_49 
ROOT
ATOM      1  C14 non d ame      -8.955   6.770  67.775  0.00  0.00     0.089 C 
ATOM      2  H20 non d ame      -8.903   5.859  67.179  0.00  0.00     0.087 H 
ENDROOT
BRANCH   1   3
ATOM      3  N4  non d ame      -8.832   7.898  66.863  0.00  0.00    -0.346 N 
ATOM      4  C10 non d ame      -8.415   7.677  65.431  0.00  0.00     0.241 C 
ATOM      5  O4  non d ame      -8.182   6.583  65.036  0.00  0.00    -0.271 OA
ATOM      6  H19 non d ame      -9.032   8.822  67.220  0.00  0.00     0.163 HD
BRANCH   4   7
ATOM      7  C9  non d ame      -8.298   8.855  64.500  0.00  0.00     0.092 C 
ATOM      8  H11 non d ame      -8.622   8.557  63.503  0.00  0.00     0.088 H 
BRANCH   7   9
ATOM      9  N3  non d ame      -9.197   9.923  64.947  0.00  0.00    -0.346 N 
ATOM     10  C7  non d ame      -9.945  10.687  63.979  0.00  0.00     0.240 C 
ATOM     11  O3  non d ame      -9.836  10.456  62.837  0.00  0.00    -0.271 OA
ATOM     12  H10 non d ame      -9.301  10.135  65.929  0.00  0.00     0.163 HD
BRANCH  10  13
ATOM     13  C6  non d ame     -10.898  11.825  64.460  0.00  0.00     0.086 C 
ATOM     14  H6  non d ame     -11.407  11.582  65.393  0.00  0.00     0.086 H 
BRANCH  13  15
ATOM     15  N2  non d ame     -10.113  13.021  64.714  0.00  0.00    -0.343 N 
ATOM     16  C5  non d ame     -10.700  14.119  65.485  0.00  0.00     0.273 C 
ATOM     17  O2  non d ame     -11.806  14.032  65.894  0.00  0.00    -0.266 OA
ATOM     18  H5  non d ame      -9.170  13.089  64.359  0.00  0.00     0.163 HD
BRANCH  16  19
ATOM     19  C4  non d ame      -9.881  15.389  65.763  0.00  0.00     0.154 A 
ATOM     20  C1  non d ame      -8.608  15.473  66.411  0.00  0.00    -0.017 A 
ATOM     21  C2  non d ame      -8.292  16.850  66.415  0.00  0.00     0.077 A 
ATOM     22  H1  non d ame      -8.006  14.659  66.815  0.00  0.00     0.091 H 
ATOM     23  O1  non d ame      -9.274  17.475  65.834  0.00  0.00    -0.218 OA
ATOM     24  N1  non d ame     -10.214  16.644  65.445  0.00  0.00    -0.123 NA
BRANCH  21  25
ATOM     25  C3  non d ame      -7.034  17.484  66.992  0.00  0.00    -0.029 C 
ATOM     26  H2  non d ame      -6.463  17.954  66.191  0.00  0.00     0.036 H 
ATOM     27  H3  non d ame      -7.312  18.237  67.730  0.00  0.00     0.036 H 
ATOM     28  H4  non d ame      -6.425  16.716  67.470  0.00  0.00     0.036 H 
ENDBRANCH  21  25
ENDBRANCH  16  19
ENDBRANCH  13  15
BRANCH  13  29
ATOM     29  C8  non d ame     -11.932  12.101  63.399  0.00  0.00    -0.049 C 
ATOM     30  H7  non d ame     -11.806  11.397  62.576  0.00  0.00     0.030 H 
ATOM     31  H8  non d ame     -12.929  11.989  63.824  0.00  0.00     0.030 H 
ATOM     32  H9  non d ame     -11.808  13.118  63.027  0.00  0.00     0.030 H 
ENDBRANCH  13  29
ENDBRANCH  10  13
ENDBRANCH   7   9
BRANCH   7  33
ATOM     33  C11 non d ame      -6.831   9.378  64.507  0.00  0.00    -0.033 C 
ATOM     34  H12 non d ame      -6.184   8.537  64.753  0.00  0.00     0.042 H 
BRANCH  33  35
ATOM     35  C12 non d ame      -6.407   9.901  63.099  0.00  0.00    -0.071 C 
ATOM     36  H13 non d ame      -6.061  10.931  63.184  0.00  0.00     0.028 H 
ATOM     37  H14 non d ame      -5.602   9.279  62.709  0.00  0.00     0.028 H 
ATOM     38  H15 non d ame      -7.261   9.858  62.424  0.00  0.00     0.028 H 
ENDBRANCH  33  35
BRANCH  33  39
ATOM     39  C13 non d ame      -6.634  10.475  65.602  0.00  0.00    -0.071 C 
ATOM     40  H16 non d ame      -7.376  11.262  65.466  0.00  0.00     0.028 H 
ATOM     41  H17 non d ame      -6.754  10.029  66.590  0.00  0.00     0.028 H 
ATOM     42  H18 non d ame      -5.634  10.900  65.514  0.00  0.00     0.028 H 
ENDBRANCH  33  39
ENDBRANCH   7  33
ENDBRANCH   4   7
ENDBRANCH   1   3
BRANCH   1  43
ATOM     43  C15 non d ame     -10.305   6.896  68.539  0.00  0.00     0.240 C 
ATOM     44  O5  non d ame     -11.261   6.308  68.149  0.00  0.00    -0.271 OA
ATOM     45  N6  non d ame     -10.403   7.745  69.761  0.00  0.00    -0.355 N 
ATOM     46  H46 non d ame      -9.596   8.246  70.103  0.00  0.00     0.162 HD
BRANCH  45  47
ATOM     47  C20 non d ame     -11.693   7.853  70.476  0.00  0.00     0.013 C 
ATOM     48  H30 non d ame     -12.475   7.479  69.815  0.00  0.00     0.072 H 
BRANCH  47  49
ATOM     49  C21 non d ame     -11.954   9.302  70.819  0.00  0.00    -0.038 C 
ATOM     50  H31 non d ame     -12.902   9.551  70.341  0.00  0.00     0.036 H 
ATOM     51  H32 non d ame     -11.854   9.371  71.902  0.00  0.00     0.036 H 
BRANCH  49  52
ATOM     52  C22 non d ame     -10.899  10.259  70.221  0.00  0.00     0.018 C 
ATOM     53  H33 non d ame     -10.492  10.815  71.066  0.00  0.00     0.048 H 
ATOM     54  H34 non d ame     -10.244   9.634  69.614  0.00  0.00     0.048 H 
BRANCH  52  55
ATOM     55  C23 non d ame     -11.493  11.321  69.256  0.00  0.00     0.259 C 
ATOM     56  O7  non d ame     -12.358  11.029  68.495  0.00  0.00    -0.265 OA
BRANCH  55  57
ATOM     57  O8  non d ame     -10.983  12.649  69.281  0.00  0.00    -0.317 OA
BRANCH  57  58
ATOM     58  C29 non d ame     -11.985  13.661  69.143  0.00  0.00     0.052 C 
ATOM     59  H47 non d ame     -11.523  14.454  68.556  0.00  0.00     0.082 H 
ATOM     60  H48 non d ame     -12.870  13.149  68.767  0.00  0.00     0.082 H 
BRANCH  58  61
ATOM     61  C35 non d ame     -12.302  14.216  70.557  0.00  0.00    -0.034 A 
ATOM     62  C30 non d ame     -11.708  15.397  70.991  0.00  0.00    -0.075 A 
ATOM     63  C31 non d ame     -11.993  15.896  72.261  0.00  0.00    -0.082 A 
ATOM     64  H49 non d ame     -11.020  15.932  70.336  0.00  0.00     0.084 H 
ATOM     65  C32 non d ame     -12.873  15.208  73.100  0.00  0.00    -0.083 A 
ATOM     66  H50 non d ame     -11.527  16.823  72.597  0.00  0.00     0.083 H 
ATOM     67  C33 non d ame     -13.461  14.029  72.664  0.00  0.00    -0.082 A 
ATOM     68  H51 non d ame     -13.102  15.592  74.094  0.00  0.00     0.083 H 
ATOM     69  C34 non d ame     -13.181  13.527  71.395  0.00  0.00    -0.075 A 
ATOM     70  H52 non d ame     -14.146  13.493  73.322  0.00  0.00     0.083 H 
ATOM     71  H53 non d ame     -13.648  12.600  71.059  0.00  0.00     0.084 H 
ENDBRANCH  58  61
ENDBRANCH  57  58
ENDBRANCH  55  57
ENDBRANCH  52  55
ENDBRANCH  49  52
ENDBRANCH  47  49
BRANCH  47  72
ATOM     72  C24 non d ame     -11.643   7.026  71.759  0.00  0.00    -0.039 C 
ATOM     73  H35 non d ame     -11.878   7.724  72.563  0.00  0.00     0.036 H 
ATOM     74  H36 non d ame     -12.289   6.168  71.577  0.00  0.00     0.036 H 
BRANCH  72  75
ATOM     75  C25 non d ame     -10.171   6.459  72.042  0.00  0.00    -0.001 C 
ATOM     76  C26 non d ame     -10.105   4.860  71.664  0.00  0.00    -0.035 C 
ATOM     77  C27 non d ame      -9.586   4.184  72.716  0.00  0.00     0.085 C 
ATOM     78  H38 non d ame     -11.113   4.456  71.574  0.00  0.00     0.036 H 
ATOM     79  H39 non d ame      -9.377   4.693  70.870  0.00  0.00     0.036 H 
ATOM     80  N5  non d ame      -9.596   5.127  73.895  0.00  0.00    -0.049 N 
ATOM     81  H40 non d ame     -10.281   3.366  72.909  0.00  0.00     0.075 H 
ATOM     82  H41 non d ame      -8.553   3.969  72.443  0.00  0.00     0.075 H 
ATOM     83  C28 non d ame      -9.846   6.600  73.284  0.00  0.00     0.193 C 
ATOM     84  H42 non d ame     -10.394   4.872  74.459  0.00  0.00     0.280 HD
ATOM     85  H43 non d ame      -8.668   5.098  74.293  0.00  0.00     0.280 HD
ATOM     86  H44 non d ame      -9.024   7.310  73.194  0.00  0.00     0.129 H 
ATOM     87  H37 non d ame      -9.394   7.100  71.624  0.00  0.00     0.046 H 
BRANCH  83  88
ATOM     88  O6  non d ame     -10.857   7.279  74.031  0.00  0.00    -0.369 OA
ATOM     89  H45 non d ame     -11.697   6.829  73.915  0.00  0.00     0.212 HD
ENDBRANCH  83  88
ENDBRANCH  72  75
ENDBRANCH  47  72
ENDBRANCH  45  47
ENDBRANCH   1  43
BRANCH   1  90
ATOM     90  C16 non d ame      -7.803   6.805  68.766  0.00  0.00    -0.035 C 
ATOM     91  H21 non d ame      -8.269   6.865  69.750  0.00  0.00     0.037 H 
ATOM     92  H22 non d ame      -7.177   5.949  68.511  0.00  0.00     0.037 H 
BRANCH  90  93
ATOM     93  C17 non d ame      -6.896   8.069  68.629  0.00  0.00    -0.059 C 
ATOM     94  H23 non d ame      -7.176   8.579  67.707  0.00  0.00     0.038 H 
BRANCH  93  95
ATOM     95  C18 non d ame      -7.102   9.073  69.809  0.00  0.00    -0.073 C 
ATOM     96  H24 non d ame      -7.134  10.090  69.419  0.00  0.00     0.028 H 
ATOM     97  H25 non d ame      -8.041   8.848  70.316  0.00  0.00     0.028 H 
ATOM     98  H26 non d ame      -6.276   8.978  70.514  0.00  0.00     0.028 H 
ENDBRANCH  93  95
BRANCH  93  99
ATOM     99  C19 non d ame      -5.423   7.674  68.501  0.00  0.00    -0.073 C 
ATOM    100  H27 non d ame      -5.025   8.053  67.559  0.00  0.00     0.028 H 
ATOM    101  H28 non d ame      -4.859   8.101  69.331  0.00  0.00     0.028 H 
ATOM    102  H29 non d ame      -5.334   6.589  68.523  0.00  0.00     0.028 H 
ENDBRANCH  93  99
ENDBRANCH  90  93
ENDBRANCH   1  90
TORSDOF 26
ENDMDL
MODEL 14
REMARK VINA RESULT:      -6.2      2.499      5.720
REMARK  26 active torsions:
REMARK  status: ('A' for Active; 'I' for Inactive)
REMARK    1  A    between atoms: C2_2  and  C3_3 
REMARK    2  A    between atoms: C4_6  and  C5_7 
REMARK       I    between atoms: C5_7  and  N2_9 
REMARK    3  A    between atoms: N2_9  and  C6_10 
REMARK    4  A    between atoms: C6_10  and  C7_11 
REMARK    5  A    between atoms: C6_10  and  C8_13 
REMARK       I    between atoms: C7_11  and  N3_14 
REMARK    6  A    between atoms: N3_14  and  C9_15 
REMARK    7  A    between atoms: C9_15  and  C10_16 
REMARK    8  A    between atoms: C9_15  and  C11_18 
REMARK       I    between atoms: C10_16  and  N4_21 
REMARK    9  A    between atoms: C11_18  and  C12_19 
REMARK   10  A    between atoms: C11_18  and  C13_20 
REMARK   11  A    between atoms: N4_21  and  C14_22 
REMARK   12  A    between atoms: C14_22  and  C15_23 
REMARK   13  A    between atoms: C14_22  and  C16_25 
REMARK       I    between atoms: C15_23  and  N6_40 
REMARK   14  A    between atoms: C16_25  and  C17_26 
REMARK   15  A    between atoms: C17_26  and  C18_27 
REMARK   16  A    between atoms: C17_26  and  C19_28 
REMARK   17  A    between atoms: C20_29  and  C21_30 
REMARK   18  A    between atoms: C20_29  and  C24_33 
REMARK   19  A    between atoms: C20_29  and  N6_40 
REMARK   20  A    between atoms: C21_30  and  C22_31 
REMARK   21  A    between atoms: C22_31  and  C23_32 
REMARK   22  A    between atoms: C23_32  and  O8_43 
REMARK   23  A    between atoms: C24_33  and  C25_34 
REMARK   24  A    between atoms: C28_38  and  O6_39 
REMARK   25  A    between atoms: C29_42  and  O8_43 
REMARK   26  A    between atoms: C29_42  and  C35_49 
ROOT
ATOM      1  C14 non d ame     -10.594   9.178  68.826  0.00  0.00     0.089 C 
ATOM      2  H20 non d ame     -11.502   8.574  68.835  0.00  0.00     0.087 H 
ENDROOT
BRANCH   1   3
ATOM      3  N4  non d ame      -9.648   8.532  67.929  0.00  0.00    -0.346 N 
ATOM      4  C10 non d ame     -10.046   7.296  67.162  0.00  0.00     0.241 C 
ATOM      5  O4  non d ame     -11.134   6.838  67.286  0.00  0.00    -0.271 OA
ATOM      6  H19 non d ame      -8.726   8.936  67.839  0.00  0.00     0.163 HD
BRANCH   4   7
ATOM      7  C9  non d ame      -9.056   6.644  66.234  0.00  0.00     0.092 C 
ATOM      8  H11 non d ame      -9.546   6.421  65.286  0.00  0.00     0.088 H 
BRANCH   7   9
ATOM      9  N3  non d ame      -7.964   7.579  65.948  0.00  0.00    -0.346 N 
ATOM     10  C7  non d ame      -7.819   8.134  64.624  0.00  0.00     0.240 C 
ATOM     11  O3  non d ame      -8.571   7.837  63.777  0.00  0.00    -0.271 OA
ATOM     12  H10 non d ame      -7.307   7.843  66.667  0.00  0.00     0.163 HD
BRANCH  10  13
ATOM     13  C6  non d ame      -6.653   9.127  64.325  0.00  0.00     0.086 C 
ATOM     14  H6  non d ame      -6.931   9.899  63.608  0.00  0.00     0.086 H 
BRANCH  13  15
ATOM     15  N2  non d ame      -6.290   9.811  65.554  0.00  0.00    -0.343 N 
ATOM     16  C5  non d ame      -7.297  10.602  66.264  0.00  0.00     0.273 C 
ATOM     17  O2  non d ame      -8.396  10.683  65.837  0.00  0.00    -0.266 OA
ATOM     18  H5  non d ame      -5.347   9.739  65.911  0.00  0.00     0.163 HD
BRANCH  16  19
ATOM     19  C4  non d ame      -6.928  11.330  67.566  0.00  0.00     0.154 A 
ATOM     20  C1  non d ame      -6.160  12.530  67.698  0.00  0.00    -0.017 A 
ATOM     21  C2  non d ame      -6.108  12.779  69.088  0.00  0.00     0.077 A 
ATOM     22  H1  non d ame      -5.710  13.130  66.906  0.00  0.00     0.091 H 
ATOM     23  O1  non d ame      -6.773  11.827  69.676  0.00  0.00    -0.218 OA
ATOM     24  N1  non d ame      -7.260  10.970  68.809  0.00  0.00    -0.123 NA
BRANCH  21  25
ATOM     25  C3  non d ame      -5.406  13.945  69.770  0.00  0.00    -0.029 C 
ATOM     26  H2  non d ame      -6.142  14.700  70.050  0.00  0.00     0.036 H 
ATOM     27  H3  non d ame      -4.893  13.588  70.663  0.00  0.00     0.036 H 
ATOM     28  H4  non d ame      -4.679  14.383  69.085  0.00  0.00     0.036 H 
ENDBRANCH  21  25
ENDBRANCH  16  19
ENDBRANCH  13  15
BRANCH  13  29
ATOM     29  C8  non d ame      -5.468   8.367  63.787  0.00  0.00    -0.049 C 
ATOM     30  H7  non d ame      -5.207   8.749  62.800  0.00  0.00     0.030 H 
ATOM     31  H8  non d ame      -4.620   8.492  64.461  0.00  0.00     0.030 H 
ATOM     32  H9  non d ame      -5.719   7.309  63.711  0.00  0.00     0.030 H 
ENDBRANCH  13  29
ENDBRANCH  10  13
ENDBRANCH   7   9
BRANCH   7  33
ATOM     33  C11 non d ame      -8.477   5.366  66.908  0.00  0.00    -0.033 C 
ATOM     34  H12 non d ame      -9.288   4.643  66.994  0.00  0.00     0.042 H 
BRANCH  33  35
ATOM     35  C12 non d ame      -7.361   4.716  66.032  0.00  0.00    -0.071 C 
ATOM     36  H13 non d ame      -7.818   4.068  65.283  0.00  0.00     0.028 H 
ATOM     37  H14 non d ame      -6.790   5.499  65.533  0.00  0.00     0.028 H 
ATOM     38  H15 non d ame      -6.697   4.129  66.665  0.00  0.00     0.028 H 
ENDBRANCH  33  35
BRANCH  33  39
ATOM     39  C13 non d ame      -7.955   5.680  68.347  0.00  0.00    -0.071 C 
ATOM     40  H16 non d ame      -7.040   5.118  68.533  0.00  0.00     0.028 H 
ATOM     41  H17 non d ame      -7.750   6.748  68.434  0.00  0.00     0.028 H 
ATOM     42  H18 non d ame      -8.712   5.395  69.078  0.00  0.00     0.028 H 
ENDBRANCH  33  39
ENDBRANCH   7  33
ENDBRANCH   4   7
ENDBRANCH   1   3
BRANCH   1  43
ATOM     43  C15 non d ame     -10.855  10.623  68.313  0.00  0.00     0.240 C 
ATOM     44  O5  non d ame     -11.482  10.794  67.319  0.00  0.00    -0.271 OA
ATOM     45  N6  non d ame     -10.329  11.796  69.068  0.00  0.00    -0.355 N 
ATOM     46  H46 non d ame      -9.799  11.665  69.917  0.00  0.00     0.162 HD
BRANCH  45  47
ATOM     47  C20 non d ame     -10.587  13.164  68.569  0.00  0.00     0.013 C 
ATOM     48  H30 non d ame     -10.512  13.144  67.482  0.00  0.00     0.072 H 
BRANCH  47  49
ATOM     49  C21 non d ame      -9.553  14.108  69.140  0.00  0.00    -0.038 C 
ATOM     50  H31 non d ame     -10.097  14.766  69.818  0.00  0.00     0.036 H 
ATOM     51  H32 non d ame      -8.753  13.472  69.522  0.00  0.00     0.036 H 
BRANCH  49  52
ATOM     52  C22 non d ame      -8.913  15.017  68.068  0.00  0.00     0.018 C 
ATOM     53  H33 non d ame      -7.925  15.273  68.450  0.00  0.00     0.048 H 
ATOM     54  H34 non d ame      -9.011  14.476  67.126  0.00  0.00     0.048 H 
BRANCH  52  55
ATOM     55  C23 non d ame      -9.658  16.366  67.866  0.00  0.00     0.259 C 
ATOM     56  O7  non d ame      -9.248  17.362  68.368  0.00  0.00    -0.265 OA
BRANCH  55  57
ATOM     57  O8  non d ame     -10.845  16.396  67.082  0.00  0.00    -0.317 OA
BRANCH  57  58
ATOM     58  C29 non d ame     -10.618  16.258  65.677  0.00  0.00     0.052 C 
ATOM     59  H47 non d ame     -11.291  16.970  65.199  0.00  0.00     0.082 H 
ATOM     60  H48 non d ame      -9.541  16.351  65.541  0.00  0.00     0.082 H 
BRANCH  58  61
ATOM     61  C35 non d ame     -11.043  14.825  65.261  0.00  0.00    -0.034 A 
ATOM     62  C30 non d ame     -12.357  14.406  65.447  0.00  0.00    -0.075 A 
ATOM     63  C31 non d ame     -12.739  13.119  65.074  0.00  0.00    -0.082 A 
ATOM     64  H49 non d ame     -13.087  15.088  65.884  0.00  0.00     0.084 H 
ATOM     65  C32 non d ame     -11.801  12.247  64.515  0.00  0.00    -0.083 A 
ATOM     66  H50 non d ame     -13.770  12.795  65.219  0.00  0.00     0.083 H 
ATOM     67  C33 non d ame     -10.490  12.667  64.335  0.00  0.00    -0.082 A 
ATOM     68  H51 non d ame     -12.091  11.238  64.220  0.00  0.00     0.083 H 
ATOM     69  C34 non d ame     -10.105  13.954  64.704  0.00  0.00    -0.075 A 
ATOM     70  H52 non d ame      -9.760  11.984  63.901  0.00  0.00     0.083 H 
ATOM     71  H53 non d ame      -9.074  14.278  64.558  0.00  0.00     0.084 H 
ENDBRANCH  58  61
ENDBRANCH  57  58
ENDBRANCH  55  57
ENDBRANCH  52  55
ENDBRANCH  49  52
ENDBRANCH  47  49
BRANCH  47  72
ATOM     72  C24 non d ame     -11.981  13.616  68.997  0.00  0.00    -0.039 C 
ATOM     73  H35 non d ame     -12.238  14.438  68.327  0.00  0.00     0.036 H 
ATOM     74  H36 non d ame     -12.589  12.712  69.008  0.00  0.00     0.036 H 
BRANCH  72  75
ATOM     75  C25 non d ame     -11.982  14.204  70.487  0.00  0.00    -0.001 C 
ATOM     76  C26 non d ame     -12.934  13.275  71.455  0.00  0.00    -0.035 C 
ATOM     77  C27 non d ame     -13.808  14.078  72.107  0.00  0.00     0.085 C 
ATOM     78  H38 non d ame     -13.577  12.639  70.847  0.00  0.00     0.036 H 
ATOM     79  H39 non d ame     -12.339  12.840  72.258  0.00  0.00     0.036 H 
ATOM     80  N5  non d ame     -13.759  15.427  71.430  0.00  0.00    -0.049 N 
ATOM     81  H40 non d ame     -14.791  13.634  71.944  0.00  0.00     0.075 H 
ATOM     82  H41 non d ame     -13.416  14.174  73.119  0.00  0.00     0.075 H 
ATOM     83  C28 non d ame     -12.431  15.415  70.512  0.00  0.00     0.193 C 
ATOM     84  H42 non d ame     -14.567  15.473  70.827  0.00  0.00     0.280 HD
ATOM     85  H43 non d ame     -13.637  16.111  72.164  0.00  0.00     0.280 HD
ATOM     86  H44 non d ame     -11.536  15.952  70.826  0.00  0.00     0.129 H 
ATOM     87  H37 non d ame     -10.976  14.424  70.845  0.00  0.00     0.046 H 
BRANCH  83  88
ATOM     88  O6  non d ame     -12.732  15.905  69.205  0.00  0.00    -0.369 OA
ATOM     89  H45 non d ame     -12.087  16.571  68.957  0.00  0.00     0.212 HD
ENDBRANCH  83  88
ENDBRANCH  72  75
ENDBRANCH  47  72
ENDBRANCH  45  47
ENDBRANCH   1  43
BRANCH   1  90
ATOM     90  C16 non d ame      -9.996   9.231  70.223  0.00  0.00    -0.035 C 
ATOM     91  H21 non d ame      -9.111   8.595  70.183  0.00  0.00     0.037 H 
ATOM     92  H22 non d ame      -9.895  10.291  70.454  0.00  0.00     0.037 H 
BRANCH  90  93
ATOM     93  C17 non d ame     -10.924   8.626  71.324  0.00  0.00    -0.059 C 
ATOM     94  H23 non d ame     -10.356   8.594  72.254  0.00  0.00     0.038 H 
BRANCH  93  95
ATOM     95  C18 non d ame     -12.194   9.502  71.572  0.00  0.00    -0.073 C 
ATOM     96  H24 non d ame     -12.096  10.021  72.525  0.00  0.00     0.028 H 
ATOM     97  H25 non d ame     -12.294  10.232  70.768  0.00  0.00     0.028 H 
ATOM     98  H26 non d ame     -13.077   8.863  71.594  0.00  0.00     0.028 H 
ENDBRANCH  93  95
BRANCH  93  99
ATOM     99  C19 non d ame     -11.315   7.186  70.980  0.00  0.00    -0.073 C 
ATOM    100  H27 non d ame     -10.977   6.518  71.773  0.00  0.00     0.028 H 
ATOM    101  H28 non d ame     -12.398   7.117  70.883  0.00  0.00     0.028 H 
ATOM    102  H29 non d ame     -10.847   6.898  70.039  0.00  0.00     0.028 H 
ENDBRANCH  93  99
ENDBRANCH  90  93
ENDBRANCH   1  90
TORSDOF 26
ENDMDL
MODEL 15
REMARK VINA RESULT:      -6.2      3.887      8.784
REMARK  26 active torsions:
REMARK  status: ('A' for Active; 'I' for Inactive)
REMARK    1  A    between atoms: C2_2  and  C3_3 
REMARK    2  A    between atoms: C4_6  and  C5_7 
REMARK       I    between atoms: C5_7  and  N2_9 
REMARK    3  A    between atoms: N2_9  and  C6_10 
REMARK    4  A    between atoms: C6_10  and  C7_11 
REMARK    5  A    between atoms: C6_10  and  C8_13 
REMARK       I    between atoms: C7_11  and  N3_14 
REMARK    6  A    between atoms: N3_14  and  C9_15 
REMARK    7  A    between atoms: C9_15  and  C10_16 
REMARK    8  A    between atoms: C9_15  and  C11_18 
REMARK       I    between atoms: C10_16  and  N4_21 
REMARK    9  A    between atoms: C11_18  and  C12_19 
REMARK   10  A    between atoms: C11_18  and  C13_20 
REMARK   11  A    between atoms: N4_21  and  C14_22 
REMARK   12  A    between atoms: C14_22  and  C15_23 
REMARK   13  A    between atoms: C14_22  and  C16_25 
REMARK       I    between atoms: C15_23  and  N6_40 
REMARK   14  A    between atoms: C16_25  and  C17_26 
REMARK   15  A    between atoms: C17_26  and  C18_27 
REMARK   16  A    between atoms: C17_26  and  C19_28 
REMARK   17  A    between atoms: C20_29  and  C21_30 
REMARK   18  A    between atoms: C20_29  and  C24_33 
REMARK   19  A    between atoms: C20_29  and  N6_40 
REMARK   20  A    between atoms: C21_30  and  C22_31 
REMARK   21  A    between atoms: C22_31  and  C23_32 
REMARK   22  A    between atoms: C23_32  and  O8_43 
REMARK   23  A    between atoms: C24_33  and  C25_34 
REMARK   24  A    between atoms: C28_38  and  O6_39 
REMARK   25  A    between atoms: C29_42  and  O8_43 
REMARK   26  A    between atoms: C29_42  and  C35_49 
ROOT
ATOM      1  C14 non d ame      -9.436   8.763  67.654  0.00  0.00     0.089 C 
ATOM      2  H20 non d ame      -8.690   9.140  68.354  0.00  0.00     0.087 H 
ENDROOT
BRANCH   1   3
ATOM      3  N4  non d ame      -8.845   8.794  66.325  0.00  0.00    -0.346 N 
ATOM      4  C10 non d ame      -7.389   8.452  66.131  0.00  0.00     0.241 C 
ATOM      5  O4  non d ame      -6.712   8.158  67.061  0.00  0.00    -0.271 OA
ATOM      6  H19 non d ame      -9.437   9.049  65.547  0.00  0.00     0.163 HD
BRANCH   4   7
ATOM      7  C9  non d ame      -6.794   8.483  64.748  0.00  0.00     0.092 C 
ATOM      8  H11 non d ame      -7.138   7.612  64.190  0.00  0.00     0.088 H 
BRANCH   7   9
ATOM      9  N3  non d ame      -7.275   9.671  64.035  0.00  0.00    -0.346 N 
ATOM     10  C7  non d ame      -8.219   9.529  62.954  0.00  0.00     0.240 C 
ATOM     11  O3  non d ame      -8.600   8.467  62.642  0.00  0.00    -0.271 OA
ATOM     12  H10 non d ame      -6.954  10.593  64.292  0.00  0.00     0.163 HD
BRANCH  10  13
ATOM     13  C6  non d ame      -8.725  10.796  62.197  0.00  0.00     0.086 C 
ATOM     14  H6  non d ame      -9.576  10.589  61.549  0.00  0.00     0.086 H 
BRANCH  13  15
ATOM     15  N2  non d ame      -9.174  11.778  63.171  0.00  0.00    -0.343 N 
ATOM     16  C5  non d ame     -10.580  11.801  63.577  0.00  0.00     0.273 C 
ATOM     17  O2  non d ame     -11.344  11.027  63.113  0.00  0.00    -0.266 OA
ATOM     18  H5  non d ame      -8.515  12.438  63.560  0.00  0.00     0.163 HD
BRANCH  16  19
ATOM     19  C4  non d ame     -11.068  12.833  64.606  0.00  0.00     0.154 A 
ATOM     20  C1  non d ame     -10.273  13.784  65.321  0.00  0.00    -0.017 A 
ATOM     21  C2  non d ame     -11.190  14.488  66.132  0.00  0.00     0.077 A 
ATOM     22  H1  non d ame      -9.195  13.939  65.260  0.00  0.00     0.091 H 
ATOM     23  O1  non d ame     -12.371  13.993  65.902  0.00  0.00    -0.218 OA
ATOM     24  N1  non d ame     -12.325  13.025  65.015  0.00  0.00    -0.123 NA
BRANCH  21  25
ATOM     25  C3  non d ame     -10.857  15.618  67.097  0.00  0.00    -0.029 C 
ATOM     26  H2  non d ame     -10.079  16.248  66.665  0.00  0.00     0.036 H 
ATOM     27  H3  non d ame     -11.750  16.216  67.278  0.00  0.00     0.036 H 
ATOM     28  H4  non d ame     -10.504  15.200  68.040  0.00  0.00     0.036 H 
ENDBRANCH  21  25
ENDBRANCH  16  19
ENDBRANCH  13  15
BRANCH  13  29
ATOM     29  C8  non d ame      -7.606  11.368  61.364  0.00  0.00    -0.049 C 
ATOM     30  H7  non d ame      -7.963  12.250  60.831  0.00  0.00     0.030 H 
ATOM     31  H8  non d ame      -6.776  11.648  62.013  0.00  0.00     0.030 H 
ATOM     32  H9  non d ame      -7.271  10.621  60.646  0.00  0.00     0.030 H 
ENDBRANCH  13  29
ENDBRANCH  10  13
ENDBRANCH   7   9
BRANCH   7  33
ATOM     33  C11 non d ame      -5.242   8.538  64.851  0.00  0.00    -0.033 C 
ATOM     34  H12 non d ame      -4.975   8.351  65.892  0.00  0.00     0.042 H 
BRANCH  33  35
ATOM     35  C12 non d ame      -4.575   7.421  63.989  0.00  0.00    -0.071 C 
ATOM     36  H13 non d ame      -5.203   6.530  63.999  0.00  0.00     0.028 H 
ATOM     37  H14 non d ame      -4.462   7.773  62.964  0.00  0.00     0.028 H 
ATOM     38  H15 non d ame      -3.596   7.181  64.401  0.00  0.00     0.028 H 
ENDBRANCH  33  35
BRANCH  33  39
ATOM     39  C13 non d ame      -4.704   9.952  64.461  0.00  0.00    -0.071 C 
ATOM     40  H16 non d ame      -5.385  10.716  64.836  0.00  0.00     0.028 H 
ATOM     41  H17 non d ame      -3.717  10.099  64.899  0.00  0.00     0.028 H 
ATOM     42  H18 non d ame      -4.636  10.027  63.376  0.00  0.00     0.028 H 
ENDBRANCH  33  39
ENDBRANCH   7  33
ENDBRANCH   4   7
ENDBRANCH   1   3
BRANCH   1  43
ATOM     43  C15 non d ame      -9.857   7.300  67.975  0.00  0.00     0.240 C 
ATOM     44  O5  non d ame     -10.943   6.918  67.678  0.00  0.00    -0.271 OA
ATOM     45  N6  non d ame      -8.903   6.372  68.646  0.00  0.00    -0.355 N 
ATOM     46  H46 non d ame      -7.976   6.683  68.899  0.00  0.00     0.162 HD
BRANCH  45  47
ATOM     47  C20 non d ame      -9.317   4.984  68.943  0.00  0.00     0.013 C 
ATOM     48  H30 non d ame      -8.463   4.463  69.376  0.00  0.00     0.072 H 
BRANCH  47  49
ATOM     49  C21 non d ame      -9.742   4.303  67.661  0.00  0.00    -0.038 C 
ATOM     50  H31 non d ame     -10.446   3.527  67.959  0.00  0.00     0.036 H 
ATOM     51  H32 non d ame     -10.063   5.105  66.996  0.00  0.00     0.036 H 
BRANCH  49  52
ATOM     52  C22 non d ame      -8.575   3.585  66.950  0.00  0.00     0.018 C 
ATOM     53  H33 non d ame      -8.094   2.974  67.714  0.00  0.00     0.048 H 
ATOM     54  H34 non d ame      -9.012   3.112  66.070  0.00  0.00     0.048 H 
BRANCH  52  55
ATOM     55  C23 non d ame      -7.478   4.548  66.417  0.00  0.00     0.259 C 
ATOM     56  O7  non d ame      -6.548   4.839  67.098  0.00  0.00    -0.265 OA
BRANCH  55  57
ATOM     57  O8  non d ame      -7.602   5.091  65.108  0.00  0.00    -0.317 OA
BRANCH  57  58
ATOM     58  C29 non d ame      -8.938   5.465  64.758  0.00  0.00     0.052 C 
ATOM     59  H47 non d ame      -9.560   5.160  65.599  0.00  0.00     0.082 H 
ATOM     60  H48 non d ame      -8.885   6.515  64.472  0.00  0.00     0.082 H 
BRANCH  58  61
ATOM     61  C35 non d ame      -9.355   4.638  63.513  0.00  0.00    -0.034 A 
ATOM     62  C30 non d ame      -8.608   4.716  62.342  0.00  0.00    -0.075 A 
ATOM     63  C31 non d ame      -8.983   3.974  61.223  0.00  0.00    -0.082 A 
ATOM     64  H49 non d ame      -7.728   5.359  62.301  0.00  0.00     0.084 H 
ATOM     65  C32 non d ame     -10.112   3.153  61.277  0.00  0.00    -0.083 A 
ATOM     66  H50 non d ame      -8.394   4.036  60.308  0.00  0.00     0.083 H 
ATOM     67  C33 non d ame     -10.857   3.081  62.447  0.00  0.00    -0.082 A 
ATOM     68  H51 non d ame     -10.412   2.569  60.407  0.00  0.00     0.083 H 
ATOM     69  C34 non d ame     -10.485   3.819  63.568  0.00  0.00    -0.075 A 
ATOM     70  H52 non d ame     -11.739   2.441  62.485  0.00  0.00     0.083 H 
ATOM     71  H53 non d ame     -11.074   3.756  64.483  0.00  0.00     0.084 H 
ENDBRANCH  58  61
ENDBRANCH  57  58
ENDBRANCH  55  57
ENDBRANCH  52  55
ENDBRANCH  49  52
ENDBRANCH  47  49
BRANCH  47  72
ATOM     72  C24 non d ame     -10.486   4.993  69.927  0.00  0.00    -0.039 C 
ATOM     73  H35 non d ame     -11.296   5.508  69.410  0.00  0.00     0.036 H 
ATOM     74  H36 non d ame     -10.611   3.956  70.238  0.00  0.00     0.036 H 
BRANCH  72  75
ATOM     75  C25 non d ame     -10.147   5.844  71.241  0.00  0.00    -0.001 C 
ATOM     76  C26 non d ame      -9.962   4.837  72.528  0.00  0.00    -0.035 C 
ATOM     77  C27 non d ame     -10.743   5.278  73.543  0.00  0.00     0.085 C 
ATOM     78  H38 non d ame     -10.375   3.855  72.297  0.00  0.00     0.036 H 
ATOM     79  H39 non d ame      -8.952   4.923  72.928  0.00  0.00     0.036 H 
ATOM     80  N5  non d ame     -11.689   6.300  72.960  0.00  0.00    -0.049 N 
ATOM     81  H40 non d ame     -11.316   4.409  73.869  0.00  0.00     0.075 H 
ATOM     82  H41 non d ame     -10.066   5.776  74.236  0.00  0.00     0.075 H 
ATOM     83  C28 non d ame     -11.091   6.683  71.511  0.00  0.00     0.193 C 
ATOM     84  H42 non d ame     -12.573   5.829  72.829  0.00  0.00     0.280 HD
ATOM     85  H43 non d ame     -11.634   7.114  73.556  0.00  0.00     0.280 HD
ATOM     86  H44 non d ame     -10.567   7.627  71.360  0.00  0.00     0.129 H 
ATOM     87  H37 non d ame      -9.359   6.576  71.067  0.00  0.00     0.046 H 
BRANCH  83  88
ATOM     88  O6  non d ame     -12.128   6.662  70.528  0.00  0.00    -0.369 OA
ATOM     89  H45 non d ame     -11.831   6.169  69.760  0.00  0.00     0.212 HD
ENDBRANCH  83  88
ENDBRANCH  72  75
ENDBRANCH  47  72
ENDBRANCH  45  47
ENDBRANCH   1  43
BRANCH   1  90
ATOM     90  C16 non d ame     -10.661   9.663  67.673  0.00  0.00    -0.035 C 
ATOM     91  H21 non d ame     -10.622  10.223  66.738  0.00  0.00     0.037 H 
ATOM     92  H22 non d ame     -11.503   9.000  67.876  0.00  0.00     0.037 H 
BRANCH  90  93
ATOM     93  C17 non d ame     -10.645  10.720  68.822  0.00  0.00    -0.059 C 
ATOM     94  H23 non d ame      -9.655  11.177  68.838  0.00  0.00     0.038 H 
BRANCH  93  95
ATOM     95  C18 non d ame     -11.691  11.858  68.592  0.00  0.00    -0.073 C 
ATOM     96  H24 non d ame     -12.172  11.718  67.624  0.00  0.00     0.028 H 
ATOM     97  H25 non d ame     -12.443  11.824  69.380  0.00  0.00     0.028 H 
ATOM     98  H26 non d ame     -11.187  12.824  68.612  0.00  0.00     0.028 H 
ENDBRANCH  93  95
BRANCH  93  99
ATOM     99  C19 non d ame     -10.858  10.051  70.183  0.00  0.00    -0.073 C 
ATOM    100  H27 non d ame     -11.490  10.686  70.805  0.00  0.00     0.028 H 
ATOM    101  H28 non d ame     -11.342   9.085  70.041  0.00  0.00     0.028 H 
ATOM    102  H29 non d ame      -9.895   9.906  70.671  0.00  0.00     0.028 H 
ENDBRANCH  93  99
ENDBRANCH  90  93
ENDBRANCH   1  90
TORSDOF 26
ENDMDL
MODEL 16
REMARK VINA RESULT:      -6.1      2.248      7.986
REMARK  26 active torsions:
REMARK  status: ('A' for Active; 'I' for Inactive)
REMARK    1  A    between atoms: C2_2  and  C3_3 
REMARK    2  A    between atoms: C4_6  and  C5_7 
REMARK       I    between atoms: C5_7  and  N2_9 
REMARK    3  A    between atoms: N2_9  and  C6_10 
REMARK    4  A    between atoms: C6_10  and  C7_11 
REMARK    5  A    between atoms: C6_10  and  C8_13 
REMARK       I    between atoms: C7_11  and  N3_14 
REMARK    6  A    between atoms: N3_14  and  C9_15 
REMARK    7  A    between atoms: C9_15  and  C10_16 
REMARK    8  A    between atoms: C9_15  and  C11_18 
REMARK       I    between atoms: C10_16  and  N4_21 
REMARK    9  A    between atoms: C11_18  and  C12_19 
REMARK   10  A    between atoms: C11_18  and  C13_20 
REMARK   11  A    between atoms: N4_21  and  C14_22 
REMARK   12  A    between atoms: C14_22  and  C15_23 
REMARK   13  A    between atoms: C14_22  and  C16_25 
REMARK       I    between atoms: C15_23  and  N6_40 
REMARK   14  A    between atoms: C16_25  and  C17_26 
REMARK   15  A    between atoms: C17_26  and  C18_27 
REMARK   16  A    between atoms: C17_26  and  C19_28 
REMARK   17  A    between atoms: C20_29  and  C21_30 
REMARK   18  A    between atoms: C20_29  and  C24_33 
REMARK   19  A    between atoms: C20_29  and  N6_40 
REMARK   20  A    between atoms: C21_30  and  C22_31 
REMARK   21  A    between atoms: C22_31  and  C23_32 
REMARK   22  A    between atoms: C23_32  and  O8_43 
REMARK   23  A    between atoms: C24_33  and  C25_34 
REMARK   24  A    between atoms: C28_38  and  O6_39 
REMARK   25  A    between atoms: C29_42  and  O8_43 
REMARK   26  A    between atoms: C29_42  and  C35_49 
ROOT
ATOM      1  C14 non d ame      -5.736  13.987  68.376  0.00  0.00     0.089 C 
ATOM      2  H20 non d ame      -5.122  14.023  67.475  0.00  0.00     0.087 H 
ENDROOT
BRANCH   1   3
ATOM      3  N4  non d ame      -6.192  15.341  68.650  0.00  0.00    -0.346 N 
ATOM      4  C10 non d ame      -5.794  16.477  67.741  0.00  0.00     0.241 C 
ATOM      5  O4  non d ame      -5.105  16.277  66.796  0.00  0.00    -0.271 OA
ATOM      6  H19 non d ame      -6.776  15.491  69.460  0.00  0.00     0.163 HD
BRANCH   4   7
ATOM      7  C9  non d ame      -6.280  17.872  68.037  0.00  0.00     0.092 C 
ATOM      8  H11 non d ame      -5.937  18.545  67.250  0.00  0.00     0.088 H 
BRANCH   7   9
ATOM      9  N3  non d ame      -7.746  17.894  68.018  0.00  0.00    -0.346 N 
ATOM     10  C7  non d ame      -8.446  18.235  66.804  0.00  0.00     0.240 C 
ATOM     11  O3  non d ame      -7.845  18.496  65.834  0.00  0.00    -0.271 OA
ATOM     12  H10 non d ame      -8.277  17.673  68.848  0.00  0.00     0.163 HD
BRANCH  10  13
ATOM     13  C6  non d ame     -10.006  18.260  66.792  0.00  0.00     0.086 C 
ATOM     14  H6  non d ame     -10.433  17.564  66.070  0.00  0.00     0.086 H 
BRANCH  13  15
ATOM     15  N2  non d ame     -10.494  17.854  68.099  0.00  0.00    -0.343 N 
ATOM     16  C5  non d ame     -11.007  16.495  68.288  0.00  0.00     0.273 C 
ATOM     17  O2  non d ame     -11.025  15.737  67.381  0.00  0.00    -0.266 OA
ATOM     18  H5  non d ame     -10.478  18.509  68.868  0.00  0.00     0.163 HD
BRANCH  16  19
ATOM     19  C4  non d ame     -11.525  16.052  69.665  0.00  0.00     0.154 A 
ATOM     20  C1  non d ame     -12.346  14.916  69.955  0.00  0.00    -0.017 A 
ATOM     21  C2  non d ame     -12.538  14.955  71.355  0.00  0.00     0.077 A 
ATOM     22  H1  non d ame     -12.741  14.177  69.258  0.00  0.00     0.091 H 
ATOM     23  O1  non d ame     -11.897  15.994  71.805  0.00  0.00    -0.218 OA
ATOM     24  N1  non d ame     -11.299  16.651  70.838  0.00  0.00    -0.123 NA
BRANCH  21  25
ATOM     25  C3  non d ame     -13.344  13.963  72.182  0.00  0.00    -0.029 C 
ATOM     26  H2  non d ame     -12.802  13.020  72.249  0.00  0.00     0.036 H 
ATOM     27  H3  non d ame     -13.499  14.366  73.183  0.00  0.00     0.036 H 
ATOM     28  H4  non d ame     -14.311  13.793  71.706  0.00  0.00     0.036 H 
ENDBRANCH  21  25
ENDBRANCH  16  19
ENDBRANCH  13  15
BRANCH  13  29
ATOM     29  C8  non d ame     -10.486  19.652  66.470  0.00  0.00    -0.049 C 
ATOM     30  H7  non d ame      -9.777  20.381  66.862  0.00  0.00     0.030 H 
ATOM     31  H8  non d ame     -10.567  19.768  65.389  0.00  0.00     0.030 H 
ATOM     32  H9  non d ame     -11.462  19.814  66.927  0.00  0.00     0.030 H 
ENDBRANCH  13  29
ENDBRANCH  10  13
ENDBRANCH   7   9
BRANCH   7  33
ATOM     33  C11 non d ame      -5.775  18.309  69.443  0.00  0.00    -0.033 C 
ATOM     34  H12 non d ame      -6.139  17.579  70.165  0.00  0.00     0.042 H 
BRANCH  33  35
ATOM     35  C12 non d ame      -4.216  18.303  69.515  0.00  0.00    -0.071 C 
ATOM     36  H13 non d ame      -3.827  17.502  68.886  0.00  0.00     0.028 H 
ATOM     37  H14 non d ame      -3.832  19.260  69.161  0.00  0.00     0.028 H 
ATOM     38  H15 non d ame      -3.901  18.143  70.545  0.00  0.00     0.028 H 
ENDBRANCH  33  35
BRANCH  33  39
ATOM     39  C13 non d ame      -6.354  19.707  69.835  0.00  0.00    -0.071 C 
ATOM     40  H16 non d ame      -6.569  20.278  68.933  0.00  0.00     0.028 H 
ATOM     41  H17 non d ame      -7.273  19.572  70.407  0.00  0.00     0.028 H 
ATOM     42  H18 non d ame      -5.625  20.244  70.441  0.00  0.00     0.028 H 
ENDBRANCH  33  39
ENDBRANCH   7  33
ENDBRANCH   4   7
ENDBRANCH   1   3
BRANCH   1  43
ATOM     43  C15 non d ame      -6.981  13.071  68.202  0.00  0.00     0.240 C 
ATOM     44  O5  non d ame      -7.304  12.339  69.081  0.00  0.00    -0.271 OA
ATOM     45  N6  non d ame      -7.777  13.112  66.942  0.00  0.00    -0.355 N 
ATOM     46  H46 non d ame      -7.515  13.733  66.190  0.00  0.00     0.162 HD
BRANCH  45  47
ATOM     47  C20 non d ame      -8.959  12.236  66.793  0.00  0.00     0.013 C 
ATOM     48  H30 non d ame      -9.362  12.045  67.787  0.00  0.00     0.072 H 
BRANCH  47  49
ATOM     49  C21 non d ame      -8.539  10.936  66.146  0.00  0.00    -0.038 C 
ATOM     50  H31 non d ame      -9.278  10.741  65.368  0.00  0.00     0.036 H 
ATOM     51  H32 non d ame      -7.489  11.065  65.882  0.00  0.00     0.036 H 
BRANCH  49  52
ATOM     52  C22 non d ame      -8.601   9.736  67.116  0.00  0.00     0.018 C 
ATOM     53  H33 non d ame      -8.003   8.951  66.654  0.00  0.00     0.048 H 
ATOM     54  H34 non d ame      -8.320  10.132  68.093  0.00  0.00     0.048 H 
BRANCH  52  55
ATOM     55  C23 non d ame     -10.027   9.143  67.289  0.00  0.00     0.259 C 
ATOM     56  O7  non d ame     -10.360   8.185  66.670  0.00  0.00    -0.265 OA
BRANCH  55  57
ATOM     57  O8  non d ame     -10.937   9.767  68.186  0.00  0.00    -0.317 OA
BRANCH  57  58
ATOM     58  C29 non d ame     -10.374  10.078  69.464  0.00  0.00     0.052 C 
ATOM     59  H47 non d ame      -9.515   9.416  69.577  0.00  0.00     0.082 H 
ATOM     60  H48 non d ame     -10.233  11.158  69.470  0.00  0.00     0.082 H 
BRANCH  58  61
ATOM     61  C35 non d ame     -11.421   9.714  70.550  0.00  0.00    -0.034 A 
ATOM     62  C30 non d ame     -11.332   8.500  71.224  0.00  0.00    -0.075 A 
ATOM     63  C31 non d ame     -12.272   8.172  72.200  0.00  0.00    -0.082 A 
ATOM     64  H49 non d ame     -10.525   7.806  70.989  0.00  0.00     0.084 H 
ATOM     65  C32 non d ame     -13.307   9.063  72.499  0.00  0.00    -0.083 A 
ATOM     66  H50 non d ame     -12.199   7.221  72.728  0.00  0.00     0.083 H 
ATOM     67  C33 non d ame     -13.393  10.272  71.821  0.00  0.00    -0.082 A 
ATOM     68  H51 non d ame     -14.046   8.815  73.261  0.00  0.00     0.083 H 
ATOM     69  C34 non d ame     -12.455  10.604  70.847  0.00  0.00    -0.075 A 
ATOM     70  H52 non d ame     -14.203  10.963  72.055  0.00  0.00     0.083 H 
ATOM     71  H53 non d ame     -12.529  11.556  70.320  0.00  0.00     0.084 H 
ENDBRANCH  58  61
ENDBRANCH  57  58
ENDBRANCH  55  57
ENDBRANCH  52  55
ENDBRANCH  49  52
ENDBRANCH  47  49
BRANCH  47  72
ATOM     72  C24 non d ame     -10.006  12.925  65.920  0.00  0.00    -0.039 C 
ATOM     73  H35 non d ame     -10.495  13.650  66.571  0.00  0.00     0.036 H 
ATOM     74  H36 non d ame      -9.467  13.265  65.035  0.00  0.00     0.036 H 
BRANCH  72  75
ATOM     75  C25 non d ame     -11.132  11.900  65.423  0.00  0.00    -0.001 C 
ATOM     76  C26 non d ame     -10.936  11.586  63.821  0.00  0.00    -0.035 C 
ATOM     77  C27 non d ame     -12.120  11.781  63.191  0.00  0.00     0.085 C 
ATOM     78  H38 non d ame     -10.282  12.333  63.371  0.00  0.00     0.036 H 
ATOM     79  H39 non d ame     -10.738  10.525  63.668  0.00  0.00     0.036 H 
ATOM     80  N5  non d ame     -13.019  12.512  64.157  0.00  0.00    -0.049 N 
ATOM     81  H40 non d ame     -11.897  12.436  62.348  0.00  0.00     0.075 H 
ATOM     82  H41 non d ame     -12.523  10.784  63.014  0.00  0.00     0.075 H 
ATOM     83  C28 non d ame     -12.316  12.382  65.604  0.00  0.00     0.193 C 
ATOM     84  H42 non d ame     -13.008  13.483  63.880  0.00  0.00     0.280 HD
ATOM     85  H43 non d ame     -13.892  12.003  64.177  0.00  0.00     0.280 HD
ATOM     86  H44 non d ame     -12.702  11.683  66.347  0.00  0.00     0.129 H 
ATOM     87  H37 non d ame     -11.230  11.041  66.088  0.00  0.00     0.046 H 
BRANCH  83  88
ATOM     88  O6  non d ame     -12.286  13.653  66.255  0.00  0.00    -0.369 OA
ATOM     89  H45 non d ame     -12.921  13.659  66.975  0.00  0.00     0.212 HD
ENDBRANCH  83  88
ENDBRANCH  72  75
ENDBRANCH  47  72
ENDBRANCH  45  47
ENDBRANCH   1  43
BRANCH   1  90
ATOM     90  C16 non d ame      -4.901  13.497  69.548  0.00  0.00    -0.035 C 
ATOM     91  H21 non d ame      -5.503  12.726  70.029  0.00  0.00     0.037 H 
ATOM     92  H22 non d ame      -3.929  13.244  69.124  0.00  0.00     0.037 H 
BRANCH  90  93
ATOM     93  C17 non d ame      -4.639  14.592  70.631  0.00  0.00    -0.059 C 
ATOM     94  H23 non d ame      -5.150  15.500  70.313  0.00  0.00     0.038 H 
BRANCH  93  95
ATOM     95  C18 non d ame      -5.209  14.187  72.028  0.00  0.00    -0.073 C 
ATOM     96  H24 non d ame      -5.897  14.957  72.376  0.00  0.00     0.028 H 
ATOM     97  H25 non d ame      -5.738  13.238  71.943  0.00  0.00     0.028 H 
ATOM     98  H26 non d ame      -4.389  14.084  72.739  0.00  0.00     0.028 H 
ENDBRANCH  93  95
BRANCH  93  99
ATOM     99  C19 non d ame      -3.147  14.920  70.726  0.00  0.00    -0.073 C 
ATOM    100  H27 non d ame      -3.003  15.772  71.392  0.00  0.00     0.028 H 
ATOM    101  H28 non d ame      -2.609  14.057  71.119  0.00  0.00     0.028 H 
ATOM    102  H29 non d ame      -2.764  15.165  69.735  0.00  0.00     0.028 H 
ENDBRANCH  93  99
ENDBRANCH  90  93
ENDBRANCH   1  90
TORSDOF 26
ENDMDL
MODEL 17
REMARK VINA RESULT:      -6.1      2.627      7.417
REMARK  26 active torsions:
REMARK  status: ('A' for Active; 'I' for Inactive)
REMARK    1  A    between atoms: C2_2  and  C3_3 
REMARK    2  A    between atoms: C4_6  and  C5_7 
REMARK       I    between atoms: C5_7  and  N2_9 
REMARK    3  A    between atoms: N2_9  and  C6_10 
REMARK    4  A    between atoms: C6_10  and  C7_11 
REMARK    5  A    between atoms: C6_10  and  C8_13 
REMARK       I    between atoms: C7_11  and  N3_14 
REMARK    6  A    between atoms: N3_14  and  C9_15 
REMARK    7  A    between atoms: C9_15  and  C10_16 
REMARK    8  A    between atoms: C9_15  and  C11_18 
REMARK       I    between atoms: C10_16  and  N4_21 
REMARK    9  A    between atoms: C11_18  and  C12_19 
REMARK   10  A    between atoms: C11_18  and  C13_20 
REMARK   11  A    between atoms: N4_21  and  C14_22 
REMARK   12  A    between atoms: C14_22  and  C15_23 
REMARK   13  A    between atoms: C14_22  and  C16_25 
REMARK       I    between atoms: C15_23  and  N6_40 
REMARK   14  A    between atoms: C16_25  and  C17_26 
REMARK   15  A    between atoms: C17_26  and  C18_27 
REMARK   16  A    between atoms: C17_26  and  C19_28 
REMARK   17  A    between atoms: C20_29  and  C21_30 
REMARK   18  A    between atoms: C20_29  and  C24_33 
REMARK   19  A    between atoms: C20_29  and  N6_40 
REMARK   20  A    between atoms: C21_30  and  C22_31 
REMARK   21  A    between atoms: C22_31  and  C23_32 
REMARK   22  A    between atoms: C23_32  and  O8_43 
REMARK   23  A    between atoms: C24_33  and  C25_34 
REMARK   24  A    between atoms: C28_38  and  O6_39 
REMARK   25  A    between atoms: C29_42  and  O8_43 
REMARK   26  A    between atoms: C29_42  and  C35_49 
ROOT
ATOM      1  C14 non d ame     -10.293  12.488  66.083  0.00  0.00     0.089 C 
ATOM      2  H20 non d ame      -9.979  13.071  65.216  0.00  0.00     0.087 H 
ENDROOT
BRANCH   1   3
ATOM      3  N4  non d ame      -9.501  11.267  66.100  0.00  0.00    -0.346 N 
ATOM      4  C10 non d ame      -9.137  10.577  64.809  0.00  0.00     0.241 C 
ATOM      5  O4  non d ame      -9.496  11.022  63.769  0.00  0.00    -0.271 OA
ATOM      6  H19 non d ame      -9.207  10.904  66.995  0.00  0.00     0.163 HD
BRANCH   4   7
ATOM      7  C9  non d ame      -8.312   9.318  64.845  0.00  0.00     0.092 C 
ATOM      8  H11 non d ame      -7.424   9.489  65.454  0.00  0.00     0.088 H 
BRANCH   7   9
ATOM      9  N3  non d ame      -9.080   8.248  65.489  0.00  0.00    -0.346 N 
ATOM     10  C7  non d ame      -8.714   7.791  66.807  0.00  0.00     0.240 C 
ATOM     11  O3  non d ame      -7.804   8.273  67.364  0.00  0.00    -0.271 OA
ATOM     12  H10 non d ame      -9.867   7.822  65.020  0.00  0.00     0.163 HD
BRANCH  10  13
ATOM     13  C6  non d ame      -9.534   6.650  67.486  0.00  0.00     0.086 C 
ATOM     14  H6  non d ame      -9.060   5.674  67.385  0.00  0.00     0.086 H 
BRANCH  13  15
ATOM     15  N2  non d ame      -9.629   6.921  68.910  0.00  0.00    -0.343 N 
ATOM     16  C5  non d ame      -9.934   5.826  69.834  0.00  0.00     0.273 C 
ATOM     17  O2  non d ame     -10.103   4.732  69.421  0.00  0.00    -0.266 OA
ATOM     18  H5  non d ame      -9.485   7.860  69.255  0.00  0.00     0.163 HD
BRANCH  16  19
ATOM     19  C4  non d ame     -10.036   6.098  71.343  0.00  0.00     0.154 A 
ATOM     20  C1  non d ame      -8.963   6.391  72.244  0.00  0.00    -0.017 A 
ATOM     21  C2  non d ame      -9.581   6.557  73.503  0.00  0.00     0.077 A 
ATOM     22  H1  non d ame      -7.900   6.471  72.018  0.00  0.00     0.091 H 
ATOM     23  O1  non d ame     -10.859   6.380  73.334  0.00  0.00    -0.218 OA
ATOM     24  N1  non d ame     -11.149   6.111  72.082  0.00  0.00    -0.123 NA
BRANCH  21  25
ATOM     25  C3  non d ame      -8.880   6.884  74.815  0.00  0.00    -0.029 C 
ATOM     26  H2  non d ame      -7.953   7.421  74.609  0.00  0.00     0.036 H 
ATOM     27  H3  non d ame      -9.531   7.507  75.429  0.00  0.00     0.036 H 
ATOM     28  H4  non d ame      -8.654   5.960  75.347  0.00  0.00     0.036 H 
ENDBRANCH  21  25
ENDBRANCH  16  19
ENDBRANCH  13  15
BRANCH  13  29
ATOM     29  C8  non d ame     -10.912   6.588  66.878  0.00  0.00    -0.049 C 
ATOM     30  H7  non d ame     -10.835   6.289  65.833  0.00  0.00     0.030 H 
ATOM     31  H8  non d ame     -11.516   5.860  67.421  0.00  0.00     0.030 H 
ATOM     32  H9  non d ame     -11.381   7.569  66.942  0.00  0.00     0.030 H 
ENDBRANCH  13  29
ENDBRANCH  10  13
ENDBRANCH   7   9
BRANCH   7  33
ATOM     33  C11 non d ame      -7.952   8.892  63.391  0.00  0.00    -0.033 C 
ATOM     34  H12 non d ame      -8.642   9.402  62.719  0.00  0.00     0.042 H 
BRANCH  33  35
ATOM     35  C12 non d ame      -6.507   9.341  63.009  0.00  0.00    -0.071 C 
ATOM     36  H13 non d ame      -6.531  10.367  62.640  0.00  0.00     0.028 H 
ATOM     37  H14 non d ame      -5.865   9.287  63.888  0.00  0.00     0.028 H 
ATOM     38  H15 non d ame      -6.117   8.684  62.232  0.00  0.00     0.028 H 
ENDBRANCH  33  35
BRANCH  33  39
ATOM     39  C13 non d ame      -8.137   7.353  63.198  0.00  0.00    -0.071 C 
ATOM     40  H16 non d ame      -7.247   6.833  63.552  0.00  0.00     0.028 H 
ATOM     41  H17 non d ame      -9.005   7.017  63.765  0.00  0.00     0.028 H 
ATOM     42  H18 non d ame      -8.287   7.136  62.140  0.00  0.00     0.028 H 
ENDBRANCH  33  39
ENDBRANCH   7  33
ENDBRANCH   4   7
ENDBRANCH   1   3
BRANCH   1  43
ATOM     43  C15 non d ame     -10.059  13.249  67.419  0.00  0.00     0.240 C 
ATOM     44  O5  non d ame      -9.247  12.853  68.190  0.00  0.00    -0.271 OA
ATOM     45  N6  non d ame     -10.843  14.478  67.733  0.00  0.00    -0.355 N 
ATOM     46  H46 non d ame     -11.532  14.827  67.083  0.00  0.00     0.162 HD
BRANCH  45  47
ATOM     47  C20 non d ame     -10.608  15.191  69.007  0.00  0.00     0.013 C 
ATOM     48  H30 non d ame      -9.979  14.559  69.634  0.00  0.00     0.072 H 
BRANCH  47  49
ATOM     49  C21 non d ame     -11.932  15.442  69.691  0.00  0.00    -0.038 C 
ATOM     50  H31 non d ame     -12.394  16.265  69.146  0.00  0.00     0.036 H 
ATOM     51  H32 non d ame     -12.428  14.472  69.737  0.00  0.00     0.036 H 
BRANCH  49  52
ATOM     52  C22 non d ame     -11.772  15.920  71.151  0.00  0.00     0.018 C 
ATOM     53  H33 non d ame     -10.774  15.607  71.456  0.00  0.00     0.048 H 
ATOM     54  H34 non d ame     -12.034  16.979  71.145  0.00  0.00     0.048 H 
BRANCH  52  55
ATOM     55  C23 non d ame     -12.757  15.241  72.144  0.00  0.00     0.259 C 
ATOM     56  O7  non d ame     -13.647  15.861  72.628  0.00  0.00    -0.265 OA
BRANCH  55  57
ATOM     57  O8  non d ame     -12.574  13.871  72.478  0.00  0.00    -0.317 OA
BRANCH  57  58
ATOM     58  C29 non d ame     -13.578  13.003  71.945  0.00  0.00     0.052 C 
ATOM     59  H47 non d ame     -14.205  12.722  72.791  0.00  0.00     0.082 H 
ATOM     60  H48 non d ame     -14.011  13.537  71.099  0.00  0.00     0.082 H 
BRANCH  58  61
ATOM     61  C35 non d ame     -12.873  11.727  71.410  0.00  0.00    -0.034 A 
ATOM     62  C30 non d ame     -13.119  10.494  72.005  0.00  0.00    -0.075 A 
ATOM     63  C31 non d ame     -12.486   9.349  71.526  0.00  0.00    -0.082 A 
ATOM     64  H49 non d ame     -13.809  10.425  72.847  0.00  0.00     0.084 H 
ATOM     65  C32 non d ame     -11.601   9.440  70.448  0.00  0.00    -0.083 A 
ATOM     66  H50 non d ame     -12.683   8.383  71.993  0.00  0.00     0.083 H 
ATOM     67  C33 non d ame     -11.356  10.673  69.859  0.00  0.00    -0.082 A 
ATOM     68  H51 non d ame     -11.103   8.549  70.066  0.00  0.00     0.083 H 
ATOM     69  C34 non d ame     -11.989  11.820  70.334  0.00  0.00    -0.075 A 
ATOM     70  H52 non d ame     -10.664  10.741  69.020  0.00  0.00     0.083 H 
ATOM     71  H53 non d ame     -11.792  12.785  69.866  0.00  0.00     0.084 H 
ENDBRANCH  58  61
ENDBRANCH  57  58
ENDBRANCH  55  57
ENDBRANCH  52  55
ENDBRANCH  49  52
ENDBRANCH  47  49
BRANCH  47  72
ATOM     72  C24 non d ame      -9.915  16.524  68.733  0.00  0.00    -0.039 C 
ATOM     73  H35 non d ame     -10.638  17.290  69.013  0.00  0.00     0.036 H 
ATOM     74  H36 non d ame      -8.957  16.464  69.249  0.00  0.00     0.036 H 
BRANCH  72  75
ATOM     75  C25 non d ame      -9.600  16.719  67.174  0.00  0.00    -0.001 C 
ATOM     76  C26 non d ame      -7.974  16.758  66.932  0.00  0.00    -0.035 C 
ATOM     77  C27 non d ame      -7.668  17.858  66.204  0.00  0.00     0.085 C 
ATOM     78  H38 non d ame      -7.459  16.926  67.877  0.00  0.00     0.036 H 
ATOM     79  H39 non d ame      -7.673  15.933  66.286  0.00  0.00     0.036 H 
ATOM     80  N5  non d ame      -8.890  18.744  66.207  0.00  0.00    -0.049 N 
ATOM     81  H40 non d ame      -6.867  18.356  66.751  0.00  0.00     0.075 H 
ATOM     82  H41 non d ame      -7.493  17.498  65.191  0.00  0.00     0.075 H 
ATOM     83  C28 non d ame     -10.107  17.820  66.729  0.00  0.00     0.193 C 
ATOM     84  H42 non d ame      -8.718  19.467  66.891  0.00  0.00     0.280 HD
ATOM     85  H43 non d ame      -9.066  18.992  65.244  0.00  0.00     0.280 HD
ATOM     86  H44 non d ame     -10.846  17.430  66.029  0.00  0.00     0.129 H 
ATOM     87  H37 non d ame     -10.179  16.039  66.548  0.00  0.00     0.046 H 
BRANCH  83  88
ATOM     88  O6  non d ame     -10.856  18.512  67.730  0.00  0.00    -0.369 OA
ATOM     89  H45 non d ame     -10.430  18.401  68.583  0.00  0.00     0.212 HD
ENDBRANCH  83  88
ENDBRANCH  72  75
ENDBRANCH  47  72
ENDBRANCH  45  47
ENDBRANCH   1  43
BRANCH   1  90
ATOM     90  C16 non d ame     -11.763  12.123  65.952  0.00  0.00    -0.035 C 
ATOM     91  H21 non d ame     -11.779  11.051  65.758  0.00  0.00     0.037 H 
ATOM     92  H22 non d ame     -12.240  12.522  66.848  0.00  0.00     0.037 H 
BRANCH  90  93
ATOM     93  C17 non d ame     -12.472  12.802  64.737  0.00  0.00    -0.059 C 
ATOM     94  H23 non d ame     -13.497  13.024  65.034  0.00  0.00     0.038 H 
BRANCH  93  95
ATOM     95  C18 non d ame     -11.790  14.148  64.333  0.00  0.00    -0.073 C 
ATOM     96  H24 non d ame     -11.362  14.618  65.218  0.00  0.00     0.028 H 
ATOM     97  H25 non d ame     -11.000  13.951  63.608  0.00  0.00     0.028 H 
ATOM     98  H26 non d ame     -12.532  14.813  63.891  0.00  0.00     0.028 H 
ENDBRANCH  93  95
BRANCH  93  99
ATOM     99  C19 non d ame     -12.542  11.847  63.542  0.00  0.00    -0.073 C 
ATOM    100  H27 non d ame     -12.148  10.872  63.832  0.00  0.00     0.028 H 
ATOM    101  H28 non d ame     -13.579  11.740  63.223  0.00  0.00     0.028 H 
ATOM    102  H29 non d ame     -11.950  12.249  62.721  0.00  0.00     0.028 H 
ENDBRANCH  93  99
ENDBRANCH  90  93
ENDBRANCH   1  90
TORSDOF 26
ENDMDL
MODEL 18
REMARK VINA RESULT:      -6.0      2.406      6.265
REMARK  26 active torsions:
REMARK  status: ('A' for Active; 'I' for Inactive)
REMARK    1  A    between atoms: C2_2  and  C3_3 
REMARK    2  A    between atoms: C4_6  and  C5_7 
REMARK       I    between atoms: C5_7  and  N2_9 
REMARK    3  A    between atoms: N2_9  and  C6_10 
REMARK    4  A    between atoms: C6_10  and  C7_11 
REMARK    5  A    between atoms: C6_10  and  C8_13 
REMARK       I    between atoms: C7_11  and  N3_14 
REMARK    6  A    between atoms: N3_14  and  C9_15 
REMARK    7  A    between atoms: C9_15  and  C10_16 
REMARK    8  A    between atoms: C9_15  and  C11_18 
REMARK       I    between atoms: C10_16  and  N4_21 
REMARK    9  A    between atoms: C11_18  and  C12_19 
REMARK   10  A    between atoms: C11_18  and  C13_20 
REMARK   11  A    between atoms: N4_21  and  C14_22 
REMARK   12  A    between atoms: C14_22  and  C15_23 
REMARK   13  A    between atoms: C14_22  and  C16_25 
REMARK       I    between atoms: C15_23  and  N6_40 
REMARK   14  A    between atoms: C16_25  and  C17_26 
REMARK   15  A    between atoms: C17_26  and  C18_27 
REMARK   16  A    between atoms: C17_26  and  C19_28 
REMARK   17  A    between atoms: C20_29  and  C21_30 
REMARK   18  A    between atoms: C20_29  and  C24_33 
REMARK   19  A    between atoms: C20_29  and  N6_40 
REMARK   20  A    between atoms: C21_30  and  C22_31 
REMARK   21  A    between atoms: C22_31  and  C23_32 
REMARK   22  A    between atoms: C23_32  and  O8_43 
REMARK   23  A    between atoms: C24_33  and  C25_34 
REMARK   24  A    between atoms: C28_38  and  O6_39 
REMARK   25  A    between atoms: C29_42  and  O8_43 
REMARK   26  A    between atoms: C29_42  and  C35_49 
ROOT
ATOM      1  C14 non d ame     -12.001  13.803  69.757  0.00  0.00     0.089 C 
ATOM      2  H20 non d ame     -13.047  13.733  69.459  0.00  0.00     0.087 H 
ENDROOT
BRANCH   1   3
ATOM      3  N4  non d ame     -11.606  12.502  70.277  0.00  0.00    -0.346 N 
ATOM      4  C10 non d ame     -11.840  11.254  69.464  0.00  0.00     0.241 C 
ATOM      5  O4  non d ame     -12.351  11.321  68.394  0.00  0.00    -0.271 OA
ATOM      6  H19 non d ame     -11.175  12.466  71.190  0.00  0.00     0.163 HD
BRANCH   4   7
ATOM      7  C9  non d ame     -11.420   9.916  70.015  0.00  0.00     0.092 C 
ATOM      8  H11 non d ame     -11.763   9.128  69.344  0.00  0.00     0.088 H 
BRANCH   7   9
ATOM      9  N3  non d ame      -9.956   9.842  70.056  0.00  0.00    -0.346 N 
ATOM     10  C7  non d ame      -9.239   9.171  69.000  0.00  0.00     0.240 C 
ATOM     11  O3  non d ame      -9.823   8.683  68.111  0.00  0.00    -0.271 OA
ATOM     12  H10 non d ame      -9.438  10.257  70.817  0.00  0.00     0.163 HD
BRANCH  10  13
ATOM     13  C6  non d ame      -7.681   9.093  69.051  0.00  0.00     0.086 C 
ATOM     14  H6  non d ame      -7.313   8.071  69.146  0.00  0.00     0.086 H 
BRANCH  13  15
ATOM     15  N2  non d ame      -7.142   9.615  67.807  0.00  0.00    -0.343 N 
ATOM     16  C5  non d ame      -5.914   9.038  67.254  0.00  0.00     0.273 C 
ATOM     17  O2  non d ame      -5.366   8.157  67.820  0.00  0.00    -0.266 OA
ATOM     18  H5  non d ame      -7.615  10.370  67.331  0.00  0.00     0.163 HD
BRANCH  16  19
ATOM     19  C4  non d ame      -5.334   9.579  65.938  0.00  0.00     0.154 A 
ATOM     20  C1  non d ame      -4.504   8.879  65.006  0.00  0.00    -0.017 A 
ATOM     21  C2  non d ame      -4.247   9.811  63.976  0.00  0.00     0.077 A 
ATOM     22  H1  non d ame      -4.144   7.851  65.068  0.00  0.00     0.091 H 
ATOM     23  O1  non d ame      -4.862  10.914  64.289  0.00  0.00    -0.218 OA
ATOM     24  N1  non d ame      -5.503  10.803  65.430  0.00  0.00    -0.123 NA
BRANCH  21  25
ATOM     25  C3  non d ame      -3.406   9.568  62.730  0.00  0.00    -0.029 C 
ATOM     26  H2  non d ame      -2.501  10.174  62.778  0.00  0.00     0.036 H 
ATOM     27  H3  non d ame      -3.134   8.514  62.675  0.00  0.00     0.036 H 
ATOM     28  H4  non d ame      -3.980   9.842  61.845  0.00  0.00     0.036 H 
ENDBRANCH  21  25
ENDBRANCH  16  19
ENDBRANCH  13  15
BRANCH  13  29
ATOM     29  C8  non d ame      -7.172   9.904  70.215  0.00  0.00    -0.049 C 
ATOM     30  H7  non d ame      -6.401  10.592  69.869  0.00  0.00     0.030 H 
ATOM     31  H8  non d ame      -7.996  10.470  70.651  0.00  0.00     0.030 H 
ATOM     32  H9  non d ame      -6.752   9.237  70.967  0.00  0.00     0.030 H 
ENDBRANCH  13  29
ENDBRANCH  10  13
ENDBRANCH   7   9
BRANCH   7  33
ATOM     33  C11 non d ame     -11.986   9.748  71.455  0.00  0.00    -0.033 C 
ATOM     34  H12 non d ame     -11.777  10.669  72.000  0.00  0.00     0.042 H 
BRANCH  33  35
ATOM     35  C12 non d ame     -13.534   9.553  71.438  0.00  0.00    -0.071 C 
ATOM     36  H13 non d ame     -13.812   8.924  70.593  0.00  0.00     0.028 H 
ATOM     37  H14 non d ame     -13.850   9.075  72.365  0.00  0.00     0.028 H 
ATOM     38  H15 non d ame     -14.021  10.524  71.345  0.00  0.00     0.028 H 
ENDBRANCH  33  35
BRANCH  33  39
ATOM     39  C13 non d ame     -11.275   8.573  72.201  0.00  0.00    -0.071 C 
ATOM     40  H16 non d ame     -11.180   8.819  73.259  0.00  0.00     0.028 H 
ATOM     41  H17 non d ame     -11.866   7.663  72.092  0.00  0.00     0.028 H 
ATOM     42  H18 non d ame     -10.285   8.417  71.773  0.00  0.00     0.028 H 
ENDBRANCH  33  39
ENDBRANCH   7  33
ENDBRANCH   4   7
ENDBRANCH   1   3
BRANCH   1  43
ATOM     43  C15 non d ame     -11.072  14.161  68.562  0.00  0.00     0.240 C 
ATOM     44  O5  non d ame      -9.897  14.014  68.662  0.00  0.00    -0.271 OA
ATOM     45  N6  non d ame     -11.648  14.680  67.289  0.00  0.00    -0.355 N 
ATOM     46  H46 non d ame     -12.645  14.805  67.191  0.00  0.00     0.162 HD
BRANCH  45  47
ATOM     47  C20 non d ame     -10.752  15.016  66.162  0.00  0.00     0.013 C 
ATOM     48  H30 non d ame      -9.792  14.532  66.341  0.00  0.00     0.072 H 
BRANCH  47  49
ATOM     49  C21 non d ame     -10.571  16.515  66.096  0.00  0.00    -0.038 C 
ATOM     50  H31 non d ame     -10.059  16.709  65.153  0.00  0.00     0.036 H 
ATOM     51  H32 non d ame     -11.559  16.939  66.278  0.00  0.00     0.036 H 
BRANCH  49  52
ATOM     52  C22 non d ame      -9.652  17.058  67.212  0.00  0.00     0.018 C 
ATOM     53  H33 non d ame      -9.825  16.416  68.076  0.00  0.00     0.048 H 
ATOM     54  H34 non d ame      -8.657  17.120  66.770  0.00  0.00     0.048 H 
BRANCH  52  55
ATOM     55  C23 non d ame     -10.007  18.499  67.670  0.00  0.00     0.259 C 
ATOM     56  O7  non d ame     -11.083  18.953  67.453  0.00  0.00    -0.265 OA
BRANCH  55  57
ATOM     57  O8  non d ame      -9.025  19.278  68.344  0.00  0.00    -0.317 OA
BRANCH  57  58
ATOM     58  C29 non d ame      -7.706  19.141  67.808  0.00  0.00     0.052 C 
ATOM     59  H47 non d ame      -7.722  18.228  67.214  0.00  0.00     0.082 H 
ATOM     60  H48 non d ame      -7.480  20.096  67.334  0.00  0.00     0.082 H 
BRANCH  58  61
ATOM     61  C35 non d ame      -6.726  18.939  68.995  0.00  0.00    -0.034 A 
ATOM     62  C30 non d ame      -6.184  17.682  69.243  0.00  0.00    -0.075 A 
ATOM     63  C31 non d ame      -5.304  17.499  70.309  0.00  0.00    -0.082 A 
ATOM     64  H49 non d ame      -6.448  16.840  68.603  0.00  0.00     0.084 H 
ATOM     65  C32 non d ame      -4.968  18.580  71.130  0.00  0.00    -0.083 A 
ATOM     66  H50 non d ame      -4.879  16.514  70.500  0.00  0.00     0.083 H 
ATOM     67  C33 non d ame      -5.514  19.831  70.879  0.00  0.00    -0.082 A 
ATOM     68  H51 non d ame      -4.280  18.446  71.964  0.00  0.00     0.083 H 
ATOM     69  C34 non d ame      -6.392  20.019  69.814  0.00  0.00    -0.075 A 
ATOM     70  H52 non d ame      -5.252  20.672  71.523  0.00  0.00     0.083 H 
ATOM     71  H53 non d ame      -6.816  21.005  69.624  0.00  0.00     0.084 H 
ENDBRANCH  58  61
ENDBRANCH  57  58
ENDBRANCH  55  57
ENDBRANCH  52  55
ENDBRANCH  49  52
ENDBRANCH  47  49
BRANCH  47  72
ATOM     72  C24 non d ame     -11.360  14.517  64.852  0.00  0.00    -0.039 C 
ATOM     73  H35 non d ame     -12.301  15.058  64.745  0.00  0.00     0.036 H 
ATOM     74  H36 non d ame     -10.576  14.635  64.105  0.00  0.00     0.036 H 
BRANCH  72  75
ATOM     75  C25 non d ame     -11.717  12.957  64.921  0.00  0.00    -0.001 C 
ATOM     76  C26 non d ame     -10.361  12.087  65.251  0.00  0.00    -0.035 C 
ATOM     77  C27 non d ame     -10.246  11.094  64.337  0.00  0.00     0.085 C 
ATOM     78  H38 non d ame      -9.475  12.696  65.079  0.00  0.00     0.036 H 
ATOM     79  H39 non d ame     -10.481  11.552  66.194  0.00  0.00     0.036 H 
ATOM     80  N5  non d ame     -11.216  11.406  63.222  0.00  0.00    -0.049 N 
ATOM     81  H40 non d ame      -9.228  11.168  63.953  0.00  0.00     0.075 H 
ATOM     82  H41 non d ame     -10.572  10.188  64.848  0.00  0.00     0.075 H 
ATOM     83  C28 non d ame     -12.208  12.540  63.801  0.00  0.00     0.193 C 
ATOM     84  H42 non d ame     -10.671  11.807  62.473  0.00  0.00     0.280 HD
ATOM     85  H43 non d ame     -11.750  10.563  63.063  0.00  0.00     0.280 HD
ATOM     86  H44 non d ame     -13.221  12.284  64.112  0.00  0.00     0.129 H 
ATOM     87  H37 non d ame     -12.595  12.761  65.536  0.00  0.00     0.046 H 
BRANCH  83  88
ATOM     88  O6  non d ame     -12.356  13.597  62.851  0.00  0.00    -0.369 OA
ATOM     89  H45 non d ame     -12.922  14.280  63.218  0.00  0.00     0.212 HD
ENDBRANCH  83  88
ENDBRANCH  72  75
ENDBRANCH  47  72
ENDBRANCH  45  47
ENDBRANCH   1  43
BRANCH   1  90
ATOM     90  C16 non d ame     -11.846  14.843  70.855  0.00  0.00    -0.035 C 
ATOM     91  H21 non d ame     -11.281  14.348  71.645  0.00  0.00     0.037 H 
ATOM     92  H22 non d ame     -11.436  15.724  70.362  0.00  0.00     0.037 H 
BRANCH  90  93
ATOM     93  C17 non d ame     -13.201  15.286  71.494  0.00  0.00    -0.059 C 
ATOM     94  H23 non d ame     -13.630  16.059  70.856  0.00  0.00     0.038 H 
BRANCH  93  95
ATOM     95  C18 non d ame     -14.227  14.110  71.573  0.00  0.00    -0.073 C 
ATOM     96  H24 non d ame     -14.716  14.120  72.547  0.00  0.00     0.028 H 
ATOM     97  H25 non d ame     -14.976  14.228  70.789  0.00  0.00     0.028 H 
ATOM     98  H26 non d ame     -13.705  13.163  71.437  0.00  0.00     0.028 H 
ENDBRANCH  93  95
BRANCH  93  99
ATOM     99  C19 non d ame     -12.978  15.907  72.875  0.00  0.00    -0.073 C 
ATOM    100  H27 non d ame     -13.768  16.629  73.081  0.00  0.00     0.028 H 
ATOM    101  H28 non d ame     -12.994  15.123  73.632  0.00  0.00     0.028 H 
ATOM    102  H29 non d ame     -12.011  16.411  72.894  0.00  0.00     0.028 H 
ENDBRANCH  93  99
ENDBRANCH  90  93
ENDBRANCH   1  90
TORSDOF 26
ENDMDL
MODEL 19
REMARK VINA RESULT:      -6.0      2.588      6.223
REMARK  26 active torsions:
REMARK  status: ('A' for Active; 'I' for Inactive)
REMARK    1  A    between atoms: C2_2  and  C3_3 
REMARK    2  A    between atoms: C4_6  and  C5_7 
REMARK       I    between atoms: C5_7  and  N2_9 
REMARK    3  A    between atoms: N2_9  and  C6_10 
REMARK    4  A    between atoms: C6_10  and  C7_11 
REMARK    5  A    between atoms: C6_10  and  C8_13 
REMARK       I    between atoms: C7_11  and  N3_14 
REMARK    6  A    between atoms: N3_14  and  C9_15 
REMARK    7  A    between atoms: C9_15  and  C10_16 
REMARK    8  A    between atoms: C9_15  and  C11_18 
REMARK       I    between atoms: C10_16  and  N4_21 
REMARK    9  A    between atoms: C11_18  and  C12_19 
REMARK   10  A    between atoms: C11_18  and  C13_20 
REMARK   11  A    between atoms: N4_21  and  C14_22 
REMARK   12  A    between atoms: C14_22  and  C15_23 
REMARK   13  A    between atoms: C14_22  and  C16_25 
REMARK       I    between atoms: C15_23  and  N6_40 
REMARK   14  A    between atoms: C16_25  and  C17_26 
REMARK   15  A    between atoms: C17_26  and  C18_27 
REMARK   16  A    between atoms: C17_26  and  C19_28 
REMARK   17  A    between atoms: C20_29  and  C21_30 
REMARK   18  A    between atoms: C20_29  and  C24_33 
REMARK   19  A    between atoms: C20_29  and  N6_40 
REMARK   20  A    between atoms: C21_30  and  C22_31 
REMARK   21  A    between atoms: C22_31  and  C23_32 
REMARK   22  A    between atoms: C23_32  and  O8_43 
REMARK   23  A    between atoms: C24_33  and  C25_34 
REMARK   24  A    between atoms: C28_38  and  O6_39 
REMARK   25  A    between atoms: C29_42  and  O8_43 
REMARK   26  A    between atoms: C29_42  and  C35_49 
ROOT
ATOM      1  C14 non d ame     -10.765   9.330  69.426  0.00  0.00     0.089 C 
ATOM      2  H20 non d ame     -11.397   8.442  69.440  0.00  0.00     0.087 H 
ENDROOT
BRANCH   1   3
ATOM      3  N4  non d ame      -9.862   9.208  68.291  0.00  0.00    -0.346 N 
ATOM      4  C10 non d ame      -9.807   7.929  67.495  0.00  0.00     0.241 C 
ATOM      5  O4  non d ame     -10.497   7.009  67.789  0.00  0.00    -0.271 OA
ATOM      6  H19 non d ame      -9.281  10.002  68.059  0.00  0.00     0.163 HD
BRANCH   4   7
ATOM      7  C9  non d ame      -8.871   7.822  66.320  0.00  0.00     0.092 C 
ATOM      8  H11 non d ame      -9.374   8.191  65.426  0.00  0.00     0.088 H 
BRANCH   7   9
ATOM      9  N3  non d ame      -7.704   8.680  66.546  0.00  0.00    -0.346 N 
ATOM     10  C7  non d ame      -7.346   9.680  65.570  0.00  0.00     0.240 C 
ATOM     11  O3  non d ame      -7.985   9.807  64.598  0.00  0.00    -0.271 OA
ATOM     12  H10 non d ame      -7.142   8.581  67.379  0.00  0.00     0.163 HD
BRANCH  10  13
ATOM     13  C6  non d ame      -6.100  10.588  65.814  0.00  0.00     0.086 C 
ATOM     14  H6  non d ame      -6.220  11.588  65.399  0.00  0.00     0.086 H 
BRANCH  13  15
ATOM     15  N2  non d ame      -5.910  10.752  67.245  0.00  0.00    -0.343 N 
ATOM     16  C5  non d ame      -5.931  12.096  67.827  0.00  0.00     0.273 C 
ATOM     17  O2  non d ame      -6.100  13.039  67.134  0.00  0.00    -0.266 OA
ATOM     18  H5  non d ame      -5.764   9.941  67.830  0.00  0.00     0.163 HD
BRANCH  16  19
ATOM     19  C4  non d ame      -5.733  12.284  69.339  0.00  0.00     0.154 A 
ATOM     20  C1  non d ame      -5.388  13.494  70.022  0.00  0.00    -0.017 A 
ATOM     21  C2  non d ame      -5.329  13.136  71.387  0.00  0.00     0.077 A 
ATOM     22  H1  non d ame      -5.208  14.480  69.592  0.00  0.00     0.091 H 
ATOM     23  O1  non d ame      -5.610  11.868  71.468  0.00  0.00    -0.218 OA
ATOM     24  N1  non d ame      -5.849  11.349  70.286  0.00  0.00    -0.123 NA
BRANCH  21  25
ATOM     25  C3  non d ame      -4.998  14.064  72.549  0.00  0.00    -0.029 C 
ATOM     26  H2  non d ame      -5.586  13.778  73.421  0.00  0.00     0.036 H 
ATOM     27  H3  non d ame      -3.937  13.987  72.784  0.00  0.00     0.036 H 
ATOM     28  H4  non d ame      -5.235  15.092  72.272  0.00  0.00     0.036 H 
ENDBRANCH  21  25
ENDBRANCH  16  19
ENDBRANCH  13  15
BRANCH  13  29
ATOM     29  C8  non d ame      -4.881   9.949  65.200  0.00  0.00    -0.049 C 
ATOM     30  H7  non d ame      -4.973   9.958  64.114  0.00  0.00     0.030 H 
ATOM     31  H8  non d ame      -3.991  10.505  65.495  0.00  0.00     0.030 H 
ATOM     32  H9  non d ame      -4.797   8.919  65.548  0.00  0.00     0.030 H 
ENDBRANCH  13  29
ENDBRANCH  10  13
ENDBRANCH   7   9
BRANCH   7  33
ATOM     33  C11 non d ame      -8.403   6.346  66.162  0.00  0.00    -0.033 C 
ATOM     34  H12 non d ame      -9.186   5.707  66.571  0.00  0.00     0.042 H 
BRANCH  33  35
ATOM     35  C12 non d ame      -8.224   5.964  64.659  0.00  0.00    -0.071 C 
ATOM     36  H13 non d ame      -7.677   5.024  64.586  0.00  0.00     0.028 H 
ATOM     37  H14 non d ame      -9.203   5.851  64.194  0.00  0.00     0.028 H 
ATOM     38  H15 non d ame      -7.667   6.750  64.150  0.00  0.00     0.028 H 
ENDBRANCH  33  35
BRANCH  33  39
ATOM     39  C13 non d ame      -7.094   6.084  66.973  0.00  0.00    -0.071 C 
ATOM     40  H16 non d ame      -7.346   5.645  67.938  0.00  0.00     0.028 H 
ATOM     41  H17 non d ame      -6.454   5.397  66.418  0.00  0.00     0.028 H 
ATOM     42  H18 non d ame      -6.568   7.026  67.128  0.00  0.00     0.028 H 
ENDBRANCH  33  39
ENDBRANCH   7  33
ENDBRANCH   4   7
ENDBRANCH   1   3
BRANCH   1  43
ATOM     43  C15 non d ame     -11.592  10.637  69.263  0.00  0.00     0.240 C 
ATOM     44  O5  non d ame     -12.743  10.649  69.560  0.00  0.00    -0.271 OA
ATOM     45  N6  non d ame     -10.948  11.877  68.743  0.00  0.00    -0.355 N 
ATOM     46  H46 non d ame      -9.970  11.880  68.492  0.00  0.00     0.162 HD
BRANCH  45  47
ATOM     47  C20 non d ame     -11.748  13.112  68.595  0.00  0.00     0.013 C 
ATOM     48  H30 non d ame     -12.662  12.991  69.176  0.00  0.00     0.072 H 
BRANCH  47  49
ATOM     49  C21 non d ame     -12.087  13.315  67.136  0.00  0.00    -0.038 C 
ATOM     50  H31 non d ame     -12.432  12.346  66.775  0.00  0.00     0.036 H 
ATOM     51  H32 non d ame     -12.754  14.178  67.106  0.00  0.00     0.036 H 
BRANCH  49  52
ATOM     52  C22 non d ame     -10.856  13.686  66.280  0.00  0.00     0.018 C 
ATOM     53  H33 non d ame     -10.172  14.202  66.955  0.00  0.00     0.048 H 
ATOM     54  H34 non d ame     -10.546  12.761  65.793  0.00  0.00     0.048 H 
BRANCH  52  55
ATOM     55  C23 non d ame     -11.167  14.690  65.136  0.00  0.00     0.259 C 
ATOM     56  O7  non d ame     -11.972  14.424  64.303  0.00  0.00    -0.265 OA
BRANCH  55  57
ATOM     57  O8  non d ame     -10.470  15.929  65.087  0.00  0.00    -0.317 OA
BRANCH  57  58
ATOM     58  C29 non d ame      -9.457  16.067  66.088  0.00  0.00     0.052 C 
ATOM     59  H47 non d ame      -9.628  15.254  66.794  0.00  0.00     0.082 H 
ATOM     60  H48 non d ame      -8.514  16.129  65.546  0.00  0.00     0.082 H 
BRANCH  58  61
ATOM     61  C35 non d ame      -9.691  17.413  66.823  0.00  0.00    -0.034 A 
ATOM     62  C30 non d ame     -10.364  18.449  66.182  0.00  0.00    -0.075 A 
ATOM     63  C31 non d ame     -10.574  19.659  66.842  0.00  0.00    -0.082 A 
ATOM     64  H49 non d ame     -10.728  18.312  65.164  0.00  0.00     0.084 H 
ATOM     65  C32 non d ame     -10.106  19.832  68.147  0.00  0.00    -0.083 A 
ATOM     66  H50 non d ame     -11.104  20.467  66.339  0.00  0.00     0.083 H 
ATOM     67  C33 non d ame      -9.431  18.797  68.781  0.00  0.00    -0.082 A 
ATOM     68  H51 non d ame     -10.266  20.775  68.671  0.00  0.00     0.083 H 
ATOM     69  C34 non d ame      -9.221  17.586  68.126  0.00  0.00    -0.075 A 
ATOM     70  H52 non d ame      -9.065  18.936  69.799  0.00  0.00     0.083 H 
ATOM     71  H53 non d ame      -8.692  16.777  68.631  0.00  0.00     0.084 H 
ENDBRANCH  58  61
ENDBRANCH  57  58
ENDBRANCH  55  57
ENDBRANCH  52  55
ENDBRANCH  49  52
ENDBRANCH  47  49
BRANCH  47  72
ATOM     72  C24 non d ame     -10.949  14.309  69.105  0.00  0.00    -0.039 C 
ATOM     73  H35 non d ame      -9.954  13.922  69.324  0.00  0.00     0.036 H 
ATOM     74  H36 non d ame     -11.078  15.086  68.351  0.00  0.00     0.036 H 
BRANCH  72  75
ATOM     75  C25 non d ame     -11.547  14.879  70.478  0.00  0.00    -0.001 C 
ATOM     76  C26 non d ame     -12.432  13.714  71.229  0.00  0.00    -0.035 C 
ATOM     77  C27 non d ame     -13.647  14.224  71.542  0.00  0.00     0.085 C 
ATOM     78  H38 non d ame     -12.664  12.912  70.530  0.00  0.00     0.036 H 
ATOM     79  H39 non d ame     -11.996  13.482  72.201  0.00  0.00     0.036 H 
ATOM     80  N5  non d ame     -13.791  15.521  70.783  0.00  0.00    -0.049 N 
ATOM     81  H40 non d ame     -14.372  13.505  71.157  0.00  0.00     0.075 H 
ATOM     82  H41 non d ame     -13.607  14.439  72.609  0.00  0.00     0.075 H 
ATOM     83  C28 non d ame     -12.309  15.900  70.268  0.00  0.00     0.193 C 
ATOM     84  H42 non d ame     -14.369  15.320  69.980  0.00  0.00     0.280 HD
ATOM     85  H43 non d ame     -14.084  16.215  71.456  0.00  0.00     0.280 HD
ATOM     86  H44 non d ame     -11.733  16.682  70.764  0.00  0.00     0.129 H 
ATOM     87  H37 non d ame     -10.793  15.392  71.075  0.00  0.00     0.046 H 
BRANCH  83  88
ATOM     88  O6  non d ame     -12.346  16.270  68.888  0.00  0.00    -0.369 OA
ATOM     89  H45 non d ame     -11.726  16.986  68.732  0.00  0.00     0.212 HD
ENDBRANCH  83  88
ENDBRANCH  72  75
ENDBRANCH  47  72
ENDBRANCH  45  47
ENDBRANCH   1  43
BRANCH   1  90
ATOM     90  C16 non d ame      -9.947   9.400  70.705  0.00  0.00    -0.035 C 
ATOM     91  H21 non d ame      -8.958   9.026  70.437  0.00  0.00     0.037 H 
ATOM     92  H22 non d ame     -10.062  10.422  71.067  0.00  0.00     0.037 H 
BRANCH  90  93
ATOM     93  C17 non d ame     -10.478   8.467  71.840  0.00  0.00    -0.059 C 
ATOM     94  H23 non d ame     -11.106   9.070  72.496  0.00  0.00     0.038 H 
BRANCH  93  95
ATOM     95  C18 non d ame     -11.353   7.300  71.282  0.00  0.00    -0.073 C 
ATOM     96  H24 non d ame     -11.394   7.364  70.195  0.00  0.00     0.028 H 
ATOM     97  H25 non d ame     -10.915   6.345  71.575  0.00  0.00     0.028 H 
ATOM     98  H26 non d ame     -12.362   7.376  71.689  0.00  0.00     0.028 H 
ENDBRANCH  93  95
BRANCH  93  99
ATOM     99  C19 non d ame      -9.324   7.926  72.688  0.00  0.00    -0.073 C 
ATOM    100  H27 non d ame      -9.076   8.646  73.468  0.00  0.00     0.028 H 
ATOM    101  H28 non d ame      -9.621   6.981  73.145  0.00  0.00     0.028 H 
ATOM    102  H29 non d ame      -8.452   7.763  72.054  0.00  0.00     0.028 H 
ENDBRANCH  93  99
ENDBRANCH  90  93
ENDBRANCH   1  90
TORSDOF 26
ENDMDL
MODEL 20
REMARK VINA RESULT:      -6.0      2.240      7.545
REMARK  26 active torsions:
REMARK  status: ('A' for Active; 'I' for Inactive)
REMARK    1  A    between atoms: C2_2  and  C3_3 
REMARK    2  A    between atoms: C4_6  and  C5_7 
REMARK       I    between atoms: C5_7  and  N2_9 
REMARK    3  A    between atoms: N2_9  and  C6_10 
REMARK    4  A    between atoms: C6_10  and  C7_11 
REMARK    5  A    between atoms: C6_10  and  C8_13 
REMARK       I    between atoms: C7_11  and  N3_14 
REMARK    6  A    between atoms: N3_14  and  C9_15 
REMARK    7  A    between atoms: C9_15  and  C10_16 
REMARK    8  A    between atoms: C9_15  and  C11_18 
REMARK       I    between atoms: C10_16  and  N4_21 
REMARK    9  A    between atoms: C11_18  and  C12_19 
REMARK   10  A    between atoms: C11_18  and  C13_20 
REMARK   11  A    between atoms: N4_21  and  C14_22 
REMARK   12  A    between atoms: C14_22  and  C15_23 
REMARK   13  A    between atoms: C14_22  and  C16_25 
REMARK       I    between atoms: C15_23  and  N6_40 
REMARK   14  A    between atoms: C16_25  and  C17_26 
REMARK   15  A    between atoms: C17_26  and  C18_27 
REMARK   16  A    between atoms: C17_26  and  C19_28 
REMARK   17  A    between atoms: C20_29  and  C21_30 
REMARK   18  A    between atoms: C20_29  and  C24_33 
REMARK   19  A    between atoms: C20_29  and  N6_40 
REMARK   20  A    between atoms: C21_30  and  C22_31 
REMARK   21  A    between atoms: C22_31  and  C23_32 
REMARK   22  A    between atoms: C23_32  and  O8_43 
REMARK   23  A    between atoms: C24_33  and  C25_34 
REMARK   24  A    between atoms: C28_38  and  O6_39 
REMARK   25  A    between atoms: C29_42  and  O8_43 
REMARK   26  A    between atoms: C29_42  and  C35_49 
ROOT
ATOM      1  C14 non d ame      -7.670  12.008  67.330  0.00  0.00     0.089 C 
ATOM      2  H20 non d ame      -6.823  11.330  67.443  0.00  0.00     0.087 H 
ENDROOT
BRANCH   1   3
ATOM      3  N4  non d ame      -8.296  11.717  66.048  0.00  0.00    -0.346 N 
ATOM      4  C10 non d ame      -8.555  10.291  65.633  0.00  0.00     0.241 C 
ATOM      5  O4  non d ame      -8.248   9.393  66.346  0.00  0.00    -0.271 OA
ATOM      6  H19 non d ame      -8.547  12.496  65.455  0.00  0.00     0.163 HD
BRANCH   4   7
ATOM      7  C9  non d ame      -9.209  10.009  64.306  0.00  0.00     0.092 C 
ATOM      8  H11 non d ame      -9.759   9.070  64.370  0.00  0.00     0.088 H 
BRANCH   7   9
ATOM      9  N3  non d ame     -10.183  11.063  64.007  0.00  0.00    -0.346 N 
ATOM     10  C7  non d ame     -11.199  11.400  64.974  0.00  0.00     0.240 C 
ATOM     11  O3  non d ame     -11.247  10.833  65.997  0.00  0.00    -0.271 OA
ATOM     12  H10 non d ame     -10.155  11.560  63.128  0.00  0.00     0.163 HD
BRANCH  10  13
ATOM     13  C6  non d ame     -12.235  12.521  64.649  0.00  0.00     0.086 C 
ATOM     14  H6  non d ame     -13.265  12.200  64.804  0.00  0.00     0.086 H 
BRANCH  13  15
ATOM     15  N2  non d ame     -12.010  13.645  65.543  0.00  0.00    -0.343 N 
ATOM     16  C5  non d ame     -10.736  14.365  65.490  0.00  0.00     0.273 C 
ATOM     17  O2  non d ame      -9.897  14.030  64.727  0.00  0.00    -0.266 OA
ATOM     18  H5  non d ame     -12.731  13.922  66.194  0.00  0.00     0.163 HD
BRANCH  16  19
ATOM     19  C4  non d ame     -10.485  15.556  66.428  0.00  0.00     0.154 A 
ATOM     20  C1  non d ame     -10.479  16.944  66.080  0.00  0.00    -0.017 A 
ATOM     21  C2  non d ame     -10.203  17.620  67.289  0.00  0.00     0.077 A 
ATOM     22  H1  non d ame     -10.650  17.392  65.101  0.00  0.00     0.091 H 
ATOM     23  O1  non d ame     -10.069  16.717  68.216  0.00  0.00    -0.218 OA
ATOM     24  N1  non d ame     -10.229  15.505  67.738  0.00  0.00    -0.123 NA
BRANCH  21  25
ATOM     25  C3  non d ame     -10.085  19.128  67.473  0.00  0.00    -0.029 C 
ATOM     26  H2  non d ame      -9.735  19.345  68.482  0.00  0.00     0.036 H 
ATOM     27  H3  non d ame      -9.376  19.527  66.748  0.00  0.00     0.036 H 
ATOM     28  H4  non d ame     -11.060  19.590  67.319  0.00  0.00     0.036 H 
ENDBRANCH  21  25
ENDBRANCH  16  19
ENDBRANCH  13  15
BRANCH  13  29
ATOM     29  C8  non d ame     -12.072  12.960  63.216  0.00  0.00    -0.049 C 
ATOM     30  H7  non d ame     -11.186  12.488  62.790  0.00  0.00     0.030 H 
ATOM     31  H8  non d ame     -12.951  12.665  62.643  0.00  0.00     0.030 H 
ATOM     32  H9  non d ame     -11.959  14.043  63.179  0.00  0.00     0.030 H 
ENDBRANCH  13  29
ENDBRANCH  10  13
ENDBRANCH   7   9
BRANCH   7  33
ATOM     33  C11 non d ame      -8.124   9.978  63.190  0.00  0.00    -0.033 C 
ATOM     34  H12 non d ame      -7.173  10.248  63.648  0.00  0.00     0.042 H 
BRANCH  33  35
ATOM     35  C12 non d ame      -7.966   8.545  62.591  0.00  0.00    -0.071 C 
ATOM     36  H13 non d ame      -7.906   8.610  61.504  0.00  0.00     0.028 H 
ATOM     37  H14 non d ame      -7.056   8.088  62.978  0.00  0.00     0.028 H 
ATOM     38  H15 non d ame      -8.826   7.938  62.871  0.00  0.00     0.028 H 
ENDBRANCH  33  35
BRANCH  33  39
ATOM     39  C13 non d ame      -8.438  11.026  62.075  0.00  0.00    -0.071 C 
ATOM     40  H16 non d ame      -8.012  10.691  61.130  0.00  0.00     0.028 H 
ATOM     41  H17 non d ame      -9.518  11.132  61.969  0.00  0.00     0.028 H 
ATOM     42  H18 non d ame      -8.005  11.988  62.349  0.00  0.00     0.028 H 
ENDBRANCH  33  39
ENDBRANCH   7  33
ENDBRANCH   4   7
ENDBRANCH   1   3
BRANCH   1  43
ATOM     43  C15 non d ame      -8.729  11.817  68.453  0.00  0.00     0.240 C 
ATOM     44  O5  non d ame      -8.473  11.143  69.398  0.00  0.00    -0.271 OA
ATOM     45  N6  non d ame     -10.059  12.482  68.355  0.00  0.00    -0.355 N 
ATOM     46  H46 non d ame     -10.286  13.061  67.559  0.00  0.00     0.162 HD
BRANCH  45  47
ATOM     47  C20 non d ame     -11.055  12.292  69.432  0.00  0.00     0.013 C 
ATOM     48  H30 non d ame     -10.524  12.293  70.383  0.00  0.00     0.072 H 
BRANCH  47  49
ATOM     49  C21 non d ame     -11.758  10.968  69.234  0.00  0.00    -0.038 C 
ATOM     50  H31 non d ame     -12.823  11.201  69.209  0.00  0.00     0.036 H 
ATOM     51  H32 non d ame     -11.280  10.508  68.369  0.00  0.00     0.036 H 
BRANCH  49  52
ATOM     52  C22 non d ame     -11.551   9.997  70.416  0.00  0.00     0.018 C 
ATOM     53  H33 non d ame     -10.861  10.500  71.095  0.00  0.00     0.048 H 
ATOM     54  H34 non d ame     -12.552   9.729  70.757  0.00  0.00     0.048 H 
BRANCH  52  55
ATOM     55  C23 non d ame     -10.863   8.662  70.018  0.00  0.00     0.259 C 
ATOM     56  O7  non d ame     -10.498   8.482  68.901  0.00  0.00    -0.265 OA
BRANCH  55  57
ATOM     57  O8  non d ame     -10.684   7.650  71.000  0.00  0.00    -0.317 OA
BRANCH  57  58
ATOM     58  C29 non d ame     -11.129   8.023  72.308  0.00  0.00     0.052 C 
ATOM     59  H47 non d ame     -11.054   9.109  72.346  0.00  0.00     0.082 H 
ATOM     60  H48 non d ame     -12.096   7.538  72.440  0.00  0.00     0.082 H 
BRANCH  58  61
ATOM     61  C35 non d ame     -10.135   7.425  73.340  0.00  0.00    -0.034 A 
ATOM     62  C30 non d ame     -10.484   6.291  74.066  0.00  0.00    -0.075 A 
ATOM     63  C31 non d ame      -9.592   5.754  74.994  0.00  0.00    -0.082 A 
ATOM     64  H49 non d ame     -11.456   5.823  73.909  0.00  0.00     0.084 H 
ATOM     65  C32 non d ame      -8.348   6.358  75.195  0.00  0.00    -0.083 A 
ATOM     66  H50 non d ame      -9.867   4.864  75.560  0.00  0.00     0.083 H 
ATOM     67  C33 non d ame      -8.006   7.491  74.470  0.00  0.00    -0.082 A 
ATOM     68  H51 non d ame      -7.644   5.944  75.917  0.00  0.00     0.083 H 
ATOM     69  C34 non d ame      -8.893   8.030  73.541  0.00  0.00    -0.075 A 
ATOM     70  H52 non d ame      -7.035   7.961  74.631  0.00  0.00     0.083 H 
ATOM     71  H53 non d ame      -8.617   8.919  72.974  0.00  0.00     0.084 H 
ENDBRANCH  58  61
ENDBRANCH  57  58
ENDBRANCH  55  57
ENDBRANCH  52  55
ENDBRANCH  49  52
ENDBRANCH  47  49
BRANCH  47  72
ATOM     72  C24 non d ame     -12.079  13.425  69.394  0.00  0.00    -0.039 C 
ATOM     73  H35 non d ame     -11.670  14.162  68.703  0.00  0.00     0.036 H 
ATOM     74  H36 non d ame     -13.034  12.945  69.177  0.00  0.00     0.036 H 
BRANCH  72  75
ATOM     75  C25 non d ame     -12.223  14.141  70.820  0.00  0.00    -0.001 C 
ATOM     76  C26 non d ame     -13.336  13.348  71.735  0.00  0.00    -0.035 C 
ATOM     77  C27 non d ame     -14.233  14.246  72.207  0.00  0.00     0.085 C 
ATOM     78  H38 non d ame     -13.938  12.692  71.107  0.00  0.00     0.036 H 
ATOM     79  H39 non d ame     -12.867  12.957  72.639  0.00  0.00     0.036 H 
ATOM     80  N5  non d ame     -14.025  15.526  71.433  0.00  0.00    -0.049 N 
ATOM     81  H40 non d ame     -15.213  13.837  71.960  0.00  0.00     0.075 H 
ATOM     82  H41 non d ame     -13.958  14.413  73.248  0.00  0.00     0.075 H 
ATOM     83  C28 non d ame     -12.600  15.369  70.690  0.00  0.00     0.193 C 
ATOM     84  H42 non d ame     -14.752  15.558  70.732  0.00  0.00     0.280 HD
ATOM     85  H43 non d ame     -13.951  16.265  72.117  0.00  0.00     0.280 HD
ATOM     86  H44 non d ame     -11.719  15.888  71.067  0.00  0.00     0.129 H 
ATOM     87  H37 non d ame     -11.256  14.343  71.280  0.00  0.00     0.046 H 
BRANCH  83  88
ATOM     88  O6  non d ame     -12.714  15.756  69.319  0.00  0.00    -0.369 OA
ATOM     89  H45 non d ame     -13.295  15.144  68.862  0.00  0.00     0.212 HD
ENDBRANCH  83  88
ENDBRANCH  72  75
ENDBRANCH  47  72
ENDBRANCH  45  47
ENDBRANCH   1  43
BRANCH   1  90
ATOM     90  C16 non d ame      -7.180  13.447  67.328  0.00  0.00    -0.035 C 
ATOM     91  H21 non d ame      -6.272  13.443  66.725  0.00  0.00     0.037 H 
ATOM     92  H22 non d ame      -8.038  14.043  67.015  0.00  0.00     0.037 H 
BRANCH  90  93
ATOM     93  C17 non d ame      -6.769  13.971  68.740  0.00  0.00    -0.059 C 
ATOM     94  H23 non d ame      -7.527  13.639  69.450  0.00  0.00     0.038 H 
BRANCH  93  95
ATOM     95  C18 non d ame      -5.394  13.394  69.206  0.00  0.00    -0.073 C 
ATOM     96  H24 non d ame      -5.408  13.251  70.286  0.00  0.00     0.028 H 
ATOM     97  H25 non d ame      -5.217  12.437  68.715  0.00  0.00     0.028 H 
ATOM     98  H26 non d ame      -4.599  14.091  68.941  0.00  0.00     0.028 H 
ENDBRANCH  93  95
BRANCH  93  99
ATOM     99  C19 non d ame      -6.757  15.502  68.773  0.00  0.00    -0.073 C 
ATOM    100  H27 non d ame      -6.215  15.842  69.657  0.00  0.00     0.028 H 
ATOM    101  H28 non d ame      -6.265  15.880  67.877  0.00  0.00     0.028 H 
ATOM    102  H29 non d ame      -7.781  15.873  68.809  0.00  0.00     0.028 H 
ENDBRANCH  93  99
ENDBRANCH  90  93
ENDBRANCH   1  90
TORSDOF 26
ENDMDL
