MODEL 1
REMARK VINA RESULT:      -6.9      0.000      0.000
REMARK  26 active torsions:
REMARK  status: ('A' for Active; 'I' for Inactive)
REMARK    1  A    between atoms: C2_2  and  C3_3 
REMARK    2  A    between atoms: C4_6  and  C5_7 
REMARK       I    between atoms: C5_7  and  N2_9 
REMARK    3  A    between atoms: N2_9  and  C6_10 
REMARK    4  A    between atoms: C6_10  and  C7_11 
REMARK    5  A    between atoms: C6_10  and  C8_13 
REMARK       I    between atoms: C7_11  and  N3_14 
REMARK    6  A    between atoms: N3_14  and  C9_15 
REMARK    7  A    between atoms: C9_15  and  C10_16 
REMARK    8  A    between atoms: C9_15  and  C11_18 
REMARK       I    between atoms: C10_16  and  N4_21 
REMARK    9  A    between atoms: C11_18  and  C12_19 
REMARK   10  A    between atoms: C11_18  and  C13_20 
REMARK   11  A    between atoms: N4_21  and  C14_22 
REMARK   12  A    between atoms: C14_22  and  C15_23 
REMARK   13  A    between atoms: C14_22  and  C16_25 
REMARK       I    between atoms: C15_23  and  N6_40 
REMARK   14  A    between atoms: C16_25  and  C17_26 
REMARK   15  A    between atoms: C17_26  and  C18_27 
REMARK   16  A    between atoms: C17_26  and  C19_28 
REMARK   17  A    between atoms: C20_29  and  C21_30 
REMARK   18  A    between atoms: C20_29  and  C24_33 
REMARK   19  A    between atoms: C20_29  and  N6_40 
REMARK   20  A    between atoms: C21_30  and  C22_31 
REMARK   21  A    between atoms: C22_31  and  C23_32 
REMARK   22  A    between atoms: C23_32  and  O8_43 
REMARK   23  A    between atoms: C24_33  and  C25_34 
REMARK   24  A    between atoms: C28_38  and  O6_39 
REMARK   25  A    between atoms: C29_42  and  O8_43 
REMARK   26  A    between atoms: C29_42  and  C35_49 
ROOT
ATOM      1  C14 non d ame      -8.009   6.306  63.543  0.00  0.00     0.089 C 
ATOM      2  H20 non d ame      -8.404   6.462  62.539  0.00  0.00     0.087 H 
ENDROOT
BRANCH   1   3
ATOM      3  N4  non d ame      -7.845   7.615  64.158  0.00  0.00    -0.346 N 
ATOM      4  C10 non d ame      -8.170   8.867  63.382  0.00  0.00     0.241 C 
ATOM      5  O4  non d ame      -8.560   8.796  62.263  0.00  0.00    -0.271 OA
ATOM      6  H19 non d ame      -7.510   7.654  65.110  0.00  0.00     0.163 HD
BRANCH   4   7
ATOM      7  C9  non d ame      -8.000  10.213  64.036  0.00  0.00     0.092 C 
ATOM      8  H11 non d ame      -7.635  10.927  63.297  0.00  0.00     0.088 H 
BRANCH   7   9
ATOM      9  N3  non d ame      -9.303  10.699  64.501  0.00  0.00    -0.346 N 
ATOM     10  C7  non d ame     -10.064  11.612  63.684  0.00  0.00     0.240 C 
ATOM     11  O3  non d ame      -9.643  11.966  62.651  0.00  0.00    -0.271 OA
ATOM     12  H10 non d ame      -9.678  10.404  65.391  0.00  0.00     0.163 HD
BRANCH  10  13
ATOM     13  C6  non d ame     -11.449  12.128  64.185  0.00  0.00     0.086 C 
ATOM     14  H6  non d ame     -11.681  11.797  65.198  0.00  0.00     0.086 H 
BRANCH  13  15
ATOM     15  N2  non d ame     -11.426  13.581  64.218  0.00  0.00    -0.343 N 
ATOM     16  C5  non d ame     -10.721  14.268  65.302  0.00  0.00     0.273 C 
ATOM     17  O2  non d ame     -10.177  13.643  66.144  0.00  0.00    -0.266 OA
ATOM     18  H5  non d ame     -11.896  14.108  63.495  0.00  0.00     0.163 HD
BRANCH  16  19
ATOM     19  C4  non d ame     -10.688  15.804  65.347  0.00  0.00     0.154 A 
ATOM     20  C1  non d ame     -10.117  16.626  66.370  0.00  0.00    -0.017 A 
ATOM     21  C2  non d ame     -10.348  17.952  65.941  0.00  0.00     0.077 A 
ATOM     22  H1  non d ame      -9.614  16.309  67.284  0.00  0.00     0.091 H 
ATOM     23  O1  non d ame     -10.976  17.887  64.803  0.00  0.00    -0.218 OA
ATOM     24  N1  non d ame     -11.186  16.644  64.436  0.00  0.00    -0.123 NA
BRANCH  21  25
ATOM     25  C3  non d ame      -9.936  19.222  66.674  0.00  0.00    -0.029 C 
ATOM     26  H2  non d ame      -9.584  18.967  67.674  0.00  0.00     0.036 H 
ATOM     27  H3  non d ame      -9.136  19.716  66.123  0.00  0.00     0.036 H 
ATOM     28  H4  non d ame     -10.792  19.892  66.750  0.00  0.00     0.036 H 
ENDBRANCH  21  25
ENDBRANCH  16  19
ENDBRANCH  13  15
BRANCH  13  29
ATOM     29  C8  non d ame     -12.534  11.649  63.255  0.00  0.00    -0.049 C 
ATOM     30  H7  non d ame     -12.236  11.833  62.223  0.00  0.00     0.030 H 
ATOM     31  H8  non d ame     -12.693  10.581  63.403  0.00  0.00     0.030 H 
ATOM     32  H9  non d ame     -13.457  12.187  63.467  0.00  0.00     0.030 H 
ENDBRANCH  13  29
ENDBRANCH  10  13
ENDBRANCH   7   9
BRANCH   7  33
ATOM     33  C11 non d ame      -7.035  10.081  65.251  0.00  0.00    -0.033 C 
ATOM     34  H12 non d ame      -7.030   9.035  65.554  0.00  0.00     0.042 H 
BRANCH  33  35
ATOM     35  C12 non d ame      -5.574  10.464  64.860  0.00  0.00    -0.071 C 
ATOM     36  H13 non d ame      -4.891   9.682  65.194  0.00  0.00     0.028 H 
ATOM     37  H14 non d ame      -5.503  10.568  63.777  0.00  0.00     0.028 H 
ATOM     38  H15 non d ame      -5.306  11.407  65.334  0.00  0.00     0.028 H 
ENDBRANCH  33  35
BRANCH  33  39
ATOM     39  C13 non d ame      -7.539  10.933  66.460  0.00  0.00    -0.071 C 
ATOM     40  H16 non d ame      -7.736  11.952  66.130  0.00  0.00     0.028 H 
ATOM     41  H17 non d ame      -8.456  10.495  66.855  0.00  0.00     0.028 H 
ATOM     42  H18 non d ame      -6.777  10.943  67.239  0.00  0.00     0.028 H 
ENDBRANCH  33  39
ENDBRANCH   7  33
ENDBRANCH   4   7
ENDBRANCH   1   3
BRANCH   1  43
ATOM     43  C15 non d ame      -8.971   5.461  64.427  0.00  0.00     0.240 C 
ATOM     44  O5  non d ame      -9.465   4.474  63.986  0.00  0.00    -0.271 OA
ATOM     45  N6  non d ame      -9.268   5.877  65.827  0.00  0.00    -0.355 N 
ATOM     46  H46 non d ame      -8.851   6.711  66.214  0.00  0.00     0.162 HD
BRANCH  45  47
ATOM     47  C20 non d ame     -10.183   5.062  66.655  0.00  0.00     0.013 C 
ATOM     48  H30 non d ame     -10.929   4.620  65.994  0.00  0.00     0.072 H 
BRANCH  47  49
ATOM     49  C21 non d ame     -10.859   5.950  67.675  0.00  0.00    -0.038 C 
ATOM     50  H31 non d ame     -11.767   6.314  67.194  0.00  0.00     0.036 H 
ATOM     51  H32 non d ame     -10.925   5.354  68.586  0.00  0.00     0.036 H 
BRANCH  49  52
ATOM     52  C22 non d ame     -10.022   7.198  68.031  0.00  0.00     0.018 C 
ATOM     53  H33 non d ame     -10.226   7.401  69.083  0.00  0.00     0.048 H 
ATOM     54  H34 non d ame      -9.006   6.974  67.706  0.00  0.00     0.048 H 
BRANCH  52  55
ATOM     55  C23 non d ame     -10.447   8.478  67.258  0.00  0.00     0.259 C 
ATOM     56  O7  non d ame     -10.249   8.571  66.090  0.00  0.00    -0.265 OA
BRANCH  55  57
ATOM     57  O8  non d ame     -11.065   9.546  67.966  0.00  0.00    -0.317 OA
BRANCH  57  58
ATOM     58  C29 non d ame     -10.403   9.898  69.184  0.00  0.00     0.052 C 
ATOM     59  H47 non d ame      -9.582   9.188  69.289  0.00  0.00     0.082 H 
ATOM     60  H48 non d ame     -10.194  10.965  69.108  0.00  0.00     0.082 H 
BRANCH  58  61
ATOM     61  C35 non d ame     -11.399   9.675  70.352  0.00  0.00    -0.034 A 
ATOM     62  C30 non d ame     -11.367   8.489  71.078  0.00  0.00    -0.075 A 
ATOM     63  C31 non d ame     -12.262   8.288  72.128  0.00  0.00    -0.082 A 
ATOM     64  H49 non d ame     -10.641   7.716  70.825  0.00  0.00     0.084 H 
ATOM     65  C32 non d ame     -13.193   9.279  72.450  0.00  0.00    -0.083 A 
ATOM     66  H50 non d ame     -12.233   7.358  72.696  0.00  0.00     0.083 H 
ATOM     67  C33 non d ame     -13.223  10.460  71.721  0.00  0.00    -0.082 A 
ATOM     68  H51 non d ame     -13.896   9.130  73.270  0.00  0.00     0.083 H 
ATOM     69  C34 non d ame     -12.330  10.665  70.672  0.00  0.00    -0.075 A 
ATOM     70  H52 non d ame     -13.953  11.230  71.973  0.00  0.00     0.083 H 
ATOM     71  H53 non d ame     -12.359  11.596  70.105  0.00  0.00     0.084 H 
ENDBRANCH  58  61
ENDBRANCH  57  58
ENDBRANCH  55  57
ENDBRANCH  52  55
ENDBRANCH  49  52
ENDBRANCH  47  49
BRANCH  47  72
ATOM     72  C24 non d ame      -9.395   3.968  67.372  0.00  0.00    -0.039 C 
ATOM     73  H35 non d ame      -9.925   3.796  68.309  0.00  0.00     0.036 H 
ATOM     74  H36 non d ame      -9.293   3.161  66.647  0.00  0.00     0.036 H 
BRANCH  72  75
ATOM     75  C25 non d ame      -7.916   4.455  67.749  0.00  0.00    -0.001 C 
ATOM     76  C26 non d ame      -6.806   3.549  66.942  0.00  0.00    -0.035 C 
ATOM     77  C27 non d ame      -5.900   3.075  67.830  0.00  0.00     0.085 C 
ATOM     78  H38 non d ame      -7.274   2.646  66.550  0.00  0.00     0.036 H 
ATOM     79  H39 non d ame      -6.211   4.184  66.285  0.00  0.00     0.036 H 
ATOM     80  N5  non d ame      -6.472   3.303  69.208  0.00  0.00    -0.049 N 
ATOM     81  H40 non d ame      -5.840   2.003  67.642  0.00  0.00     0.075 H 
ATOM     82  H41 non d ame      -5.016   3.700  67.705  0.00  0.00     0.075 H 
ATOM     83  C28 non d ame      -7.694   4.339  69.016  0.00  0.00     0.193 C 
ATOM     84  H42 non d ame      -6.847   2.416  69.512  0.00  0.00     0.280 HD
ATOM     85  H43 non d ame      -5.748   3.756  69.747  0.00  0.00     0.280 HD
ATOM     86  H44 non d ame      -7.580   5.387  69.293  0.00  0.00     0.129 H 
ATOM     87  H37 non d ame      -7.810   5.538  67.690  0.00  0.00     0.046 H 
BRANCH  83  88
ATOM     88  O6  non d ame      -8.846   3.879  69.725  0.00  0.00    -0.369 OA
ATOM     89  H45 non d ame      -9.519   3.606  69.098  0.00  0.00     0.212 HD
ENDBRANCH  83  88
ENDBRANCH  72  75
ENDBRANCH  47  72
ENDBRANCH  45  47
ENDBRANCH   1  43
BRANCH   1  90
ATOM     90  C16 non d ame      -6.654   5.622  63.464  0.00  0.00    -0.035 C 
ATOM     91  H21 non d ame      -6.746   4.726  64.078  0.00  0.00     0.037 H 
ATOM     92  H22 non d ame      -6.438   5.533  62.399  0.00  0.00     0.037 H 
BRANCH  90  93
ATOM     93  C17 non d ame      -5.491   6.462  64.081  0.00  0.00    -0.059 C 
ATOM     94  H23 non d ame      -5.930   7.162  64.792  0.00  0.00     0.038 H 
BRANCH  93  95
ATOM     95  C18 non d ame      -4.469   5.572  64.858  0.00  0.00    -0.073 C 
ATOM     96  H24 non d ame      -3.583   6.160  65.096  0.00  0.00     0.028 H 
ATOM     97  H25 non d ame      -4.927   5.215  65.781  0.00  0.00     0.028 H 
ATOM     98  H26 non d ame      -4.186   4.720  64.240  0.00  0.00     0.028 H 
ENDBRANCH  93  95
BRANCH  93  99
ATOM     99  C19 non d ame      -4.783   7.290  63.005  0.00  0.00    -0.073 C 
ATOM    100  H27 non d ame      -3.708   7.121  63.065  0.00  0.00     0.028 H 
ATOM    101  H28 non d ame      -5.145   6.991  62.021  0.00  0.00     0.028 H 
ATOM    102  H29 non d ame      -4.995   8.348  63.163  0.00  0.00     0.028 H 
ENDBRANCH  93  99
ENDBRANCH  90  93
ENDBRANCH   1  90
TORSDOF 26
ENDMDL
MODEL 2
REMARK VINA RESULT:      -6.6      3.387      7.951
REMARK  26 active torsions:
REMARK  status: ('A' for Active; 'I' for Inactive)
REMARK    1  A    between atoms: C2_2  and  C3_3 
REMARK    2  A    between atoms: C4_6  and  C5_7 
REMARK       I    between atoms: C5_7  and  N2_9 
REMARK    3  A    between atoms: N2_9  and  C6_10 
REMARK    4  A    between atoms: C6_10  and  C7_11 
REMARK    5  A    between atoms: C6_10  and  C8_13 
REMARK       I    between atoms: C7_11  and  N3_14 
REMARK    6  A    between atoms: N3_14  and  C9_15 
REMARK    7  A    between atoms: C9_15  and  C10_16 
REMARK    8  A    between atoms: C9_15  and  C11_18 
REMARK       I    between atoms: C10_16  and  N4_21 
REMARK    9  A    between atoms: C11_18  and  C12_19 
REMARK   10  A    between atoms: C11_18  and  C13_20 
REMARK   11  A    between atoms: N4_21  and  C14_22 
REMARK   12  A    between atoms: C14_22  and  C15_23 
REMARK   13  A    between atoms: C14_22  and  C16_25 
REMARK       I    between atoms: C15_23  and  N6_40 
REMARK   14  A    between atoms: C16_25  and  C17_26 
REMARK   15  A    between atoms: C17_26  and  C18_27 
REMARK   16  A    between atoms: C17_26  and  C19_28 
REMARK   17  A    between atoms: C20_29  and  C21_30 
REMARK   18  A    between atoms: C20_29  and  C24_33 
REMARK   19  A    between atoms: C20_29  and  N6_40 
REMARK   20  A    between atoms: C21_30  and  C22_31 
REMARK   21  A    between atoms: C22_31  and  C23_32 
REMARK   22  A    between atoms: C23_32  and  O8_43 
REMARK   23  A    between atoms: C24_33  and  C25_34 
REMARK   24  A    between atoms: C28_38  and  O6_39 
REMARK   25  A    between atoms: C29_42  and  O8_43 
REMARK   26  A    between atoms: C29_42  and  C35_49 
ROOT
ATOM      1  C14 non d ame      -9.557  12.083  65.684  0.00  0.00     0.089 C 
ATOM      2  H20 non d ame      -9.222  12.512  64.739  0.00  0.00     0.087 H 
ENDROOT
BRANCH   1   3
ATOM      3  N4  non d ame      -8.968  10.757  65.797  0.00  0.00    -0.346 N 
ATOM      4  C10 non d ame      -8.849   9.870  64.583  0.00  0.00     0.241 C 
ATOM      5  O4  non d ame      -9.237  10.245  63.526  0.00  0.00    -0.271 OA
ATOM      6  H19 non d ame      -8.646  10.456  66.706  0.00  0.00     0.163 HD
BRANCH   4   7
ATOM      7  C9  non d ame      -8.231   8.503  64.717  0.00  0.00     0.092 C 
ATOM      8  H11 non d ame      -7.294   8.586  65.268  0.00  0.00     0.088 H 
BRANCH   7   9
ATOM      9  N3  non d ame      -9.120   7.640  65.500  0.00  0.00    -0.346 N 
ATOM     10  C7  non d ame      -8.955   7.543  66.930  0.00  0.00     0.240 C 
ATOM     11  O3  non d ame      -8.111   8.152  67.466  0.00  0.00    -0.271 OA
ATOM     12  H10 non d ame      -9.852   7.107  65.052  0.00  0.00     0.163 HD
BRANCH  10  13
ATOM     13  C6  non d ame      -9.902   6.620  67.758  0.00  0.00     0.086 C 
ATOM     14  H6  non d ame      -9.365   5.996  68.471  0.00  0.00     0.086 H 
BRANCH  13  15
ATOM     15  N2  non d ame     -10.810   7.450  68.532  0.00  0.00    -0.343 N 
ATOM     16  C5  non d ame     -10.620   7.571  69.979  0.00  0.00     0.273 C 
ATOM     17  O2  non d ame      -9.736   6.994  70.511  0.00  0.00    -0.266 OA
ATOM     18  H5  non d ame     -11.565   7.936  68.070  0.00  0.00     0.163 HD
BRANCH  16  19
ATOM     19  C4  non d ame     -11.572   8.445  70.810  0.00  0.00     0.154 A 
ATOM     20  C1  non d ame     -11.806   9.849  70.663  0.00  0.00    -0.017 A 
ATOM     21  C2  non d ame     -12.758  10.166  71.658  0.00  0.00     0.077 A 
ATOM     22  H1  non d ame     -11.355  10.534  69.944  0.00  0.00     0.091 H 
ATOM     23  O1  non d ame     -13.032   9.065  72.295  0.00  0.00    -0.218 OA
ATOM     24  N1  non d ame     -12.352   8.048  71.819  0.00  0.00    -0.123 NA
BRANCH  21  25
ATOM     25  C3  non d ame     -13.353  11.541  71.932  0.00  0.00    -0.029 C 
ATOM     26  H2  non d ame     -12.944  11.935  72.863  0.00  0.00     0.036 H 
ATOM     27  H3  non d ame     -13.104  12.214  71.112  0.00  0.00     0.036 H 
ATOM     28  H4  non d ame     -14.437  11.458  72.018  0.00  0.00     0.036 H 
ENDBRANCH  21  25
ENDBRANCH  16  19
ENDBRANCH  13  15
BRANCH  13  29
ATOM     29  C8  non d ame     -10.683   5.731  66.824  0.00  0.00    -0.049 C 
ATOM     30  H7  non d ame     -10.007   5.288  66.093  0.00  0.00     0.030 H 
ATOM     31  H8  non d ame     -11.168   4.940  67.397  0.00  0.00     0.030 H 
ATOM     32  H9  non d ame     -11.439   6.322  66.308  0.00  0.00     0.030 H 
ENDBRANCH  13  29
ENDBRANCH  10  13
ENDBRANCH   7   9
BRANCH   7  33
ATOM     33  C11 non d ame      -8.027   7.886  63.303  0.00  0.00    -0.033 C 
ATOM     34  H12 non d ame      -8.831   8.251  62.665  0.00  0.00     0.042 H 
BRANCH  33  35
ATOM     35  C12 non d ame      -6.678   8.350  62.670  0.00  0.00    -0.071 C 
ATOM     36  H13 non d ame      -6.188   9.058  63.338  0.00  0.00     0.028 H 
ATOM     37  H14 non d ame      -6.031   7.486  62.520  0.00  0.00     0.028 H 
ATOM     38  H15 non d ame      -6.873   8.829  61.711  0.00  0.00     0.028 H 
ENDBRANCH  33  35
BRANCH  33  39
ATOM     39  C13 non d ame      -8.121   6.327  63.354  0.00  0.00    -0.071 C 
ATOM     40  H16 non d ame      -7.241   5.893  62.880  0.00  0.00     0.028 H 
ATOM     41  H17 non d ame      -8.172   6.000  64.393  0.00  0.00     0.028 H 
ATOM     42  H18 non d ame      -9.017   6.000  62.826  0.00  0.00     0.028 H 
ENDBRANCH  33  39
ENDBRANCH   7  33
ENDBRANCH   4   7
ENDBRANCH   1   3
BRANCH   1  43
ATOM     43  C15 non d ame      -9.105  12.932  66.907  0.00  0.00     0.240 C 
ATOM     44  O5  non d ame      -9.499  12.658  67.994  0.00  0.00    -0.271 OA
ATOM     45  N6  non d ame      -8.174  14.081  66.724  0.00  0.00    -0.355 N 
ATOM     46  H46 non d ame      -7.829  14.321  65.805  0.00  0.00     0.162 HD
BRANCH  45  47
ATOM     47  C20 non d ame      -7.753  14.877  67.897  0.00  0.00     0.013 C 
ATOM     48  H30 non d ame      -8.402  14.613  68.732  0.00  0.00     0.072 H 
BRANCH  47  49
ATOM     49  C21 non d ame      -7.894  16.349  67.578  0.00  0.00    -0.038 C 
ATOM     50  H31 non d ame      -7.006  16.826  67.993  0.00  0.00     0.036 H 
ATOM     51  H32 non d ame      -8.091  16.401  66.508  0.00  0.00     0.036 H 
BRANCH  49  52
ATOM     52  C22 non d ame      -9.107  17.000  68.278  0.00  0.00     0.018 C 
ATOM     53  H33 non d ame      -9.060  16.673  69.317  0.00  0.00     0.048 H 
ATOM     54  H34 non d ame      -9.051  18.062  68.038  0.00  0.00     0.048 H 
BRANCH  52  55
ATOM     55  C23 non d ame     -10.479  16.511  67.737  0.00  0.00     0.259 C 
ATOM     56  O7  non d ame     -10.597  16.184  66.600  0.00  0.00    -0.265 OA
BRANCH  55  57
ATOM     57  O8  non d ame     -11.599  16.469  68.613  0.00  0.00    -0.317 OA
BRANCH  57  58
ATOM     58  C29 non d ame     -11.825  15.187  69.208  0.00  0.00     0.052 C 
ATOM     59  H47 non d ame     -12.585  14.707  68.592  0.00  0.00     0.082 H 
ATOM     60  H48 non d ame     -10.840  14.732  69.311  0.00  0.00     0.082 H 
BRANCH  58  61
ATOM     61  C35 non d ame     -12.413  15.415  70.626  0.00  0.00    -0.034 A 
ATOM     62  C30 non d ame     -13.741  15.097  70.889  0.00  0.00    -0.075 A 
ATOM     63  C31 non d ame     -14.269  15.301  72.162  0.00  0.00    -0.082 A 
ATOM     64  H49 non d ame     -14.368  14.687  70.097  0.00  0.00     0.084 H 
ATOM     65  C32 non d ame     -13.464  15.828  73.175  0.00  0.00    -0.083 A 
ATOM     66  H50 non d ame     -15.310  15.048  72.366  0.00  0.00     0.083 H 
ATOM     67  C33 non d ame     -12.140  16.147  72.908  0.00  0.00    -0.082 A 
ATOM     68  H51 non d ame     -13.869  15.990  74.174  0.00  0.00     0.083 H 
ATOM     69  C34 non d ame     -11.607  15.943  71.637  0.00  0.00    -0.075 A 
ATOM     70  H52 non d ame     -11.514  16.560  73.700  0.00  0.00     0.083 H 
ATOM     71  H53 non d ame     -10.566  16.195  71.434  0.00  0.00     0.084 H 
ENDBRANCH  58  61
ENDBRANCH  57  58
ENDBRANCH  55  57
ENDBRANCH  52  55
ENDBRANCH  49  52
ENDBRANCH  47  49
BRANCH  47  72
ATOM     72  C24 non d ame      -6.297  14.566  68.237  0.00  0.00    -0.039 C 
ATOM     73  H35 non d ame      -5.802  14.412  67.277  0.00  0.00     0.036 H 
ATOM     74  H36 non d ame      -5.973  15.374  68.893  0.00  0.00     0.036 H 
BRANCH  72  75
ATOM     75  C25 non d ame      -6.161  13.201  69.064  0.00  0.00    -0.001 C 
ATOM     76  C26 non d ame      -5.238  13.447  70.402  0.00  0.00    -0.035 C 
ATOM     77  C27 non d ame      -4.263  12.508  70.439  0.00  0.00     0.085 C 
ATOM     78  H38 non d ame      -4.688  14.383  70.310  0.00  0.00     0.036 H 
ATOM     79  H39 non d ame      -5.821  13.244  71.301  0.00  0.00     0.036 H 
ATOM     80  N5  non d ame      -4.235  11.848  69.082  0.00  0.00    -0.049 N 
ATOM     81  H40 non d ame      -3.333  13.059  70.585  0.00  0.00     0.075 H 
ATOM     82  H41 non d ame      -4.587  11.780  71.182  0.00  0.00     0.075 H 
ATOM     83  C28 non d ame      -5.609  12.276  68.351  0.00  0.00     0.193 C 
ATOM     84  H42 non d ame      -3.461  12.259  68.579  0.00  0.00     0.280 HD
ATOM     85  H43 non d ame      -4.256  10.851  69.248  0.00  0.00     0.280 HD
ATOM     86  H44 non d ame      -6.436  11.570  68.269  0.00  0.00     0.129 H 
ATOM     87  H37 non d ame      -7.122  12.707  69.208  0.00  0.00     0.046 H 
BRANCH  83  88
ATOM     88  O6  non d ame      -5.343  12.710  67.016  0.00  0.00    -0.369 OA
ATOM     89  H45 non d ame      -4.394  12.749  66.876  0.00  0.00     0.212 HD
ENDBRANCH  83  88
ENDBRANCH  72  75
ENDBRANCH  47  72
ENDBRANCH  45  47
ENDBRANCH   1  43
BRANCH   1  90
ATOM     90  C16 non d ame     -11.072  11.954  65.682  0.00  0.00    -0.035 C 
ATOM     91  H21 non d ame     -11.274  10.930  65.368  0.00  0.00     0.037 H 
ATOM     92  H22 non d ame     -11.392  12.295  66.667  0.00  0.00     0.037 H 
BRANCH  90  93
ATOM     93  C17 non d ame     -11.778  12.882  64.643  0.00  0.00    -0.059 C 
ATOM     94  H23 non d ame     -11.015  13.518  64.195  0.00  0.00     0.038 H 
BRANCH  93  95
ATOM     95  C18 non d ame     -12.457  12.070  63.494  0.00  0.00    -0.073 C 
ATOM     96  H24 non d ame     -13.084  12.736  62.901  0.00  0.00     0.028 H 
ATOM     97  H25 non d ame     -11.689  11.631  62.857  0.00  0.00     0.028 H 
ATOM     98  H26 non d ame     -13.071  11.278  63.922  0.00  0.00     0.028 H 
ENDBRANCH  93  95
BRANCH  93  99
ATOM     99  C19 non d ame     -12.790  13.802  65.331  0.00  0.00    -0.073 C 
ATOM    100  H27 non d ame     -13.310  14.398  64.580  0.00  0.00     0.028 H 
ATOM    101  H28 non d ame     -13.513  13.199  65.881  0.00  0.00     0.028 H 
ATOM    102  H29 non d ame     -12.269  14.464  66.022  0.00  0.00     0.028 H 
ENDBRANCH  93  99
ENDBRANCH  90  93
ENDBRANCH   1  90
TORSDOF 26
ENDMDL
MODEL 3
REMARK VINA RESULT:      -6.6      2.665      9.004
REMARK  26 active torsions:
REMARK  status: ('A' for Active; 'I' for Inactive)
REMARK    1  A    between atoms: C2_2  and  C3_3 
REMARK    2  A    between atoms: C4_6  and  C5_7 
REMARK       I    between atoms: C5_7  and  N2_9 
REMARK    3  A    between atoms: N2_9  and  C6_10 
REMARK    4  A    between atoms: C6_10  and  C7_11 
REMARK    5  A    between atoms: C6_10  and  C8_13 
REMARK       I    between atoms: C7_11  and  N3_14 
REMARK    6  A    between atoms: N3_14  and  C9_15 
REMARK    7  A    between atoms: C9_15  and  C10_16 
REMARK    8  A    between atoms: C9_15  and  C11_18 
REMARK       I    between atoms: C10_16  and  N4_21 
REMARK    9  A    between atoms: C11_18  and  C12_19 
REMARK   10  A    between atoms: C11_18  and  C13_20 
REMARK   11  A    between atoms: N4_21  and  C14_22 
REMARK   12  A    between atoms: C14_22  and  C15_23 
REMARK   13  A    between atoms: C14_22  and  C16_25 
REMARK       I    between atoms: C15_23  and  N6_40 
REMARK   14  A    between atoms: C16_25  and  C17_26 
REMARK   15  A    between atoms: C17_26  and  C18_27 
REMARK   16  A    between atoms: C17_26  and  C19_28 
REMARK   17  A    between atoms: C20_29  and  C21_30 
REMARK   18  A    between atoms: C20_29  and  C24_33 
REMARK   19  A    between atoms: C20_29  and  N6_40 
REMARK   20  A    between atoms: C21_30  and  C22_31 
REMARK   21  A    between atoms: C22_31  and  C23_32 
REMARK   22  A    between atoms: C23_32  and  O8_43 
REMARK   23  A    between atoms: C24_33  and  C25_34 
REMARK   24  A    between atoms: C28_38  and  O6_39 
REMARK   25  A    between atoms: C29_42  and  O8_43 
REMARK   26  A    between atoms: C29_42  and  C35_49 
ROOT
ATOM      1  C14 non d ame     -11.092   9.132  69.614  0.00  0.00     0.089 C 
ATOM      2  H20 non d ame     -12.015   8.551  69.608  0.00  0.00     0.087 H 
ENDROOT
BRANCH   1   3
ATOM      3  N4  non d ame     -10.021   8.259  69.157  0.00  0.00    -0.346 N 
ATOM      4  C10 non d ame     -10.247   6.773  69.041  0.00  0.00     0.241 C 
ATOM      5  O4  non d ame     -11.299   6.302  69.324  0.00  0.00    -0.271 OA
ATOM      6  H19 non d ame      -9.133   8.679  68.923  0.00  0.00     0.163 HD
BRANCH   4   7
ATOM      7  C9  non d ame      -9.130   5.885  68.560  0.00  0.00     0.092 C 
ATOM      8  H11 non d ame      -9.546   5.081  67.952  0.00  0.00     0.088 H 
BRANCH   7   9
ATOM      9  N3  non d ame      -8.227   6.656  67.700  0.00  0.00    -0.346 N 
ATOM     10  C7  non d ame      -7.746   6.086  66.465  0.00  0.00     0.240 C 
ATOM     11  O3  non d ame      -8.074   5.008  66.150  0.00  0.00    -0.271 OA
ATOM     12  H10 non d ame      -7.935   7.587  67.960  0.00  0.00     0.163 HD
BRANCH  10  13
ATOM     13  C6  non d ame      -6.784   6.911  65.555  0.00  0.00     0.086 C 
ATOM     14  H6  non d ame      -6.535   6.395  64.628  0.00  0.00     0.086 H 
BRANCH  13  15
ATOM     15  N2  non d ame      -7.440   8.152  65.178  0.00  0.00    -0.343 N 
ATOM     16  C5  non d ame      -8.139   8.237  63.894  0.00  0.00     0.273 C 
ATOM     17  O2  non d ame      -8.166   7.302  63.171  0.00  0.00    -0.266 OA
ATOM     18  H5  non d ame      -7.410   8.946  65.801  0.00  0.00     0.163 HD
BRANCH  16  19
ATOM     19  C4  non d ame      -8.839   9.542  63.483  0.00  0.00     0.154 A 
ATOM     20  C1  non d ame      -9.798  10.285  64.242  0.00  0.00    -0.017 A 
ATOM     21  C2  non d ame     -10.127  11.392  63.428  0.00  0.00     0.077 A 
ATOM     22  H1  non d ame     -10.195  10.056  65.231  0.00  0.00     0.091 H 
ATOM     23  O1  non d ame      -9.431  11.288  62.333  0.00  0.00    -0.218 OA
ATOM     24  N1  non d ame      -8.672  10.216  62.342  0.00  0.00    -0.123 NA
BRANCH  21  25
ATOM     25  C3  non d ame     -11.113  12.501  63.770  0.00  0.00    -0.029 C 
ATOM     26  H2  non d ame     -10.763  13.442  63.345  0.00  0.00     0.036 H 
ATOM     27  H3  non d ame     -12.091  12.257  63.356  0.00  0.00     0.036 H 
ATOM     28  H4  non d ame     -11.190  12.598  64.853  0.00  0.00     0.036 H 
ENDBRANCH  21  25
ENDBRANCH  16  19
ENDBRANCH  13  15
BRANCH  13  29
ATOM     29  C8  non d ame      -5.510   7.207  66.305  0.00  0.00    -0.049 C 
ATOM     30  H7  non d ame      -5.732   7.841  67.163  0.00  0.00     0.030 H 
ATOM     31  H8  non d ame      -5.065   6.273  66.648  0.00  0.00     0.030 H 
ATOM     32  H9  non d ame      -4.812   7.722  65.645  0.00  0.00     0.030 H 
ENDBRANCH  13  29
ENDBRANCH  10  13
ENDBRANCH   7   9
BRANCH   7  33
ATOM     33  C11 non d ame      -8.336   5.342  69.785  0.00  0.00    -0.033 C 
ATOM     34  H12 non d ame      -8.929   5.544  70.677  0.00  0.00     0.042 H 
BRANCH  33  35
ATOM     35  C12 non d ame      -8.138   3.797  69.694  0.00  0.00    -0.071 C 
ATOM     36  H13 non d ame      -8.772   3.305  70.433  0.00  0.00     0.028 H 
ATOM     37  H14 non d ame      -8.412   3.454  68.696  0.00  0.00     0.028 H 
ATOM     38  H15 non d ame      -7.094   3.552  69.889  0.00  0.00     0.028 H 
ENDBRANCH  33  35
BRANCH  33  39
ATOM     39  C13 non d ame      -6.967   6.080  69.936  0.00  0.00    -0.071 C 
ATOM     40  H16 non d ame      -6.523   5.828  70.898  0.00  0.00     0.028 H 
ATOM     41  H17 non d ame      -6.297   5.771  69.134  0.00  0.00     0.028 H 
ATOM     42  H18 non d ame      -7.128   7.157  69.881  0.00  0.00     0.028 H 
ENDBRANCH  33  39
ENDBRANCH   7  33
ENDBRANCH   4   7
ENDBRANCH   1   3
BRANCH   1  43
ATOM     43  C15 non d ame     -11.167  10.363  68.665  0.00  0.00     0.240 C 
ATOM     44  O5  non d ame     -11.558  10.227  67.551  0.00  0.00    -0.271 OA
ATOM     45  N6  non d ame     -10.760  11.713  69.149  0.00  0.00    -0.355 N 
ATOM     46  H46 non d ame     -10.432  11.841  70.095  0.00  0.00     0.162 HD
BRANCH  45  47
ATOM     47  C20 non d ame     -10.839  12.873  68.235  0.00  0.00     0.013 C 
ATOM     48  H30 non d ame     -11.026  12.496  67.230  0.00  0.00     0.072 H 
BRANCH  47  49
ATOM     49  C21 non d ame      -9.528  13.625  68.269  0.00  0.00    -0.038 C 
ATOM     50  H31 non d ame      -9.728  14.541  68.827  0.00  0.00     0.036 H 
ATOM     51  H32 non d ame      -8.789  12.913  68.637  0.00  0.00     0.036 H 
BRANCH  49  52
ATOM     52  C22 non d ame      -9.052  14.064  66.867  0.00  0.00     0.018 C 
ATOM     53  H33 non d ame      -7.974  14.204  66.951  0.00  0.00     0.048 H 
ATOM     54  H34 non d ame      -9.453  13.323  66.174  0.00  0.00     0.048 H 
BRANCH  52  55
ATOM     55  C23 non d ame      -9.628  15.433  66.410  0.00  0.00     0.259 C 
ATOM     56  O7  non d ame      -9.792  15.663  65.256  0.00  0.00    -0.265 OA
BRANCH  55  57
ATOM     57  O8  non d ame      -9.945  16.416  67.387  0.00  0.00    -0.317 OA
BRANCH  57  58
ATOM     58  C29 non d ame     -10.059  17.743  66.863  0.00  0.00     0.052 C 
ATOM     59  H47 non d ame      -9.964  17.641  65.782  0.00  0.00     0.082 H 
ATOM     60  H48 non d ame     -10.973  18.152  67.293  0.00  0.00     0.082 H 
BRANCH  58  61
ATOM     61  C35 non d ame      -8.856  18.570  67.387  0.00  0.00    -0.034 A 
ATOM     62  C30 non d ame      -8.106  18.104  68.462  0.00  0.00    -0.075 A 
ATOM     63  C31 non d ame      -7.025  18.848  68.934  0.00  0.00    -0.082 A 
ATOM     64  H49 non d ame      -8.365  17.157  68.936  0.00  0.00     0.084 H 
ATOM     65  C32 non d ame      -6.695  20.062  68.326  0.00  0.00    -0.083 A 
ATOM     66  H50 non d ame      -6.437  18.479  69.775  0.00  0.00     0.083 H 
ATOM     67  C33 non d ame      -7.448  20.524  67.256  0.00  0.00    -0.082 A 
ATOM     68  H51 non d ame      -5.851  20.649  68.688  0.00  0.00     0.083 H 
ATOM     69  C34 non d ame      -8.529  19.784  66.780  0.00  0.00    -0.075 A 
ATOM     70  H52 non d ame      -7.190  21.474  66.785  0.00  0.00     0.083 H 
ATOM     71  H53 non d ame      -9.115  20.153  65.938  0.00  0.00     0.084 H 
ENDBRANCH  58  61
ENDBRANCH  57  58
ENDBRANCH  55  57
ENDBRANCH  52  55
ENDBRANCH  49  52
ENDBRANCH  47  49
BRANCH  47  72
ATOM     72  C24 non d ame     -11.971  13.800  68.673  0.00  0.00    -0.039 C 
ATOM     73  H35 non d ame     -11.890  14.679  68.034  0.00  0.00     0.036 H 
ATOM     74  H36 non d ame     -12.873  13.189  68.647  0.00  0.00     0.036 H 
BRANCH  72  75
ATOM     75  C25 non d ame     -11.780  14.295  70.185  0.00  0.00    -0.001 C 
ATOM     76  C26 non d ame     -12.794  13.466  71.179  0.00  0.00    -0.035 C 
ATOM     77  C27 non d ame     -13.488  14.352  71.932  0.00  0.00     0.085 C 
ATOM     78  H38 non d ame     -13.567  12.969  70.593  0.00  0.00     0.036 H 
ATOM     79  H39 non d ame     -12.219  12.902  71.913  0.00  0.00     0.036 H 
ATOM     80  N5  non d ame     -13.279  15.715  71.316  0.00  0.00    -0.049 N 
ATOM     81  H40 non d ame     -14.536  14.070  71.824  0.00  0.00     0.075 H 
ATOM     82  H41 non d ame     -13.017  14.331  72.914  0.00  0.00     0.075 H 
ATOM     83  C28 non d ame     -12.034  15.556  70.300  0.00  0.00     0.193 C 
ATOM     84  H42 non d ame     -14.109  15.916  70.778  0.00  0.00     0.280 HD
ATOM     85  H43 non d ame     -13.002  16.330  72.068  0.00  0.00     0.280 HD
ATOM     86  H44 non d ame     -11.048  15.934  70.569  0.00  0.00     0.129 H 
ATOM     87  H37 non d ame     -10.730  14.341  70.475  0.00  0.00     0.046 H 
BRANCH  83  88
ATOM     88  O6  non d ame     -12.345  16.160  69.042  0.00  0.00    -0.369 OA
ATOM     89  H45 non d ame     -12.002  15.613  68.332  0.00  0.00     0.212 HD
ENDBRANCH  83  88
ENDBRANCH  72  75
ENDBRANCH  47  72
ENDBRANCH  45  47
ENDBRANCH   1  43
BRANCH   1  90
ATOM     90  C16 non d ame     -10.784   9.596  71.029  0.00  0.00    -0.035 C 
ATOM     91  H21 non d ame      -9.750   9.302  71.211  0.00  0.00     0.037 H 
ATOM     92  H22 non d ame     -11.064  10.649  71.055  0.00  0.00     0.037 H 
BRANCH  90  93
ATOM     93  C17 non d ame     -11.644   8.884  72.122  0.00  0.00    -0.059 C 
ATOM     94  H23 non d ame     -11.793   9.592  72.937  0.00  0.00     0.038 H 
BRANCH  93  95
ATOM     95  C18 non d ame     -13.052   8.470  71.587  0.00  0.00    -0.073 C 
ATOM     96  H24 non d ame     -13.690   9.351  71.523  0.00  0.00     0.028 H 
ATOM     97  H25 non d ame     -12.948   8.023  70.598  0.00  0.00     0.028 H 
ATOM     98  H26 non d ame     -13.500   7.745  72.267  0.00  0.00     0.028 H 
ENDBRANCH  93  95
BRANCH  93  99
ATOM     99  C19 non d ame     -10.903   7.675  72.699  0.00  0.00    -0.073 C 
ATOM    100  H27 non d ame      -9.892   7.640  72.292  0.00  0.00     0.028 H 
ATOM    101  H28 non d ame     -10.855   7.763  73.785  0.00  0.00     0.028 H 
ATOM    102  H29 non d ame     -11.434   6.762  72.431  0.00  0.00     0.028 H 
ENDBRANCH  93  99
ENDBRANCH  90  93
ENDBRANCH   1  90
TORSDOF 26
ENDMDL
MODEL 4
REMARK VINA RESULT:      -6.5      2.883      7.020
REMARK  26 active torsions:
REMARK  status: ('A' for Active; 'I' for Inactive)
REMARK    1  A    between atoms: C2_2  and  C3_3 
REMARK    2  A    between atoms: C4_6  and  C5_7 
REMARK       I    between atoms: C5_7  and  N2_9 
REMARK    3  A    between atoms: N2_9  and  C6_10 
REMARK    4  A    between atoms: C6_10  and  C7_11 
REMARK    5  A    between atoms: C6_10  and  C8_13 
REMARK       I    between atoms: C7_11  and  N3_14 
REMARK    6  A    between atoms: N3_14  and  C9_15 
REMARK    7  A    between atoms: C9_15  and  C10_16 
REMARK    8  A    between atoms: C9_15  and  C11_18 
REMARK       I    between atoms: C10_16  and  N4_21 
REMARK    9  A    between atoms: C11_18  and  C12_19 
REMARK   10  A    between atoms: C11_18  and  C13_20 
REMARK   11  A    between atoms: N4_21  and  C14_22 
REMARK   12  A    between atoms: C14_22  and  C15_23 
REMARK   13  A    between atoms: C14_22  and  C16_25 
REMARK       I    between atoms: C15_23  and  N6_40 
REMARK   14  A    between atoms: C16_25  and  C17_26 
REMARK   15  A    between atoms: C17_26  and  C18_27 
REMARK   16  A    between atoms: C17_26  and  C19_28 
REMARK   17  A    between atoms: C20_29  and  C21_30 
REMARK   18  A    between atoms: C20_29  and  C24_33 
REMARK   19  A    between atoms: C20_29  and  N6_40 
REMARK   20  A    between atoms: C21_30  and  C22_31 
REMARK   21  A    between atoms: C22_31  and  C23_32 
REMARK   22  A    between atoms: C23_32  and  O8_43 
REMARK   23  A    between atoms: C24_33  and  C25_34 
REMARK   24  A    between atoms: C28_38  and  O6_39 
REMARK   25  A    between atoms: C29_42  and  O8_43 
REMARK   26  A    between atoms: C29_42  and  C35_49 
ROOT
ATOM      1  C14 non d ame      -5.821  11.554  66.853  0.00  0.00     0.089 C 
ATOM      2  H20 non d ame      -5.395  12.517  67.134  0.00  0.00     0.087 H 
ENDROOT
BRANCH   1   3
ATOM      3  N4  non d ame      -7.257  11.736  66.704  0.00  0.00    -0.346 N 
ATOM      4  C10 non d ame      -7.892  13.067  67.017  0.00  0.00     0.241 C 
ATOM      5  O4  non d ame      -7.227  13.976  67.391  0.00  0.00    -0.271 OA
ATOM      6  H19 non d ame      -7.805  10.949  66.386  0.00  0.00     0.163 HD
BRANCH   4   7
ATOM      7  C9  non d ame      -9.379  13.240  66.851  0.00  0.00     0.092 C 
ATOM      8  H11 non d ame      -9.749  12.500  66.142  0.00  0.00     0.088 H 
BRANCH   7   9
ATOM      9  N3  non d ame     -10.047  12.985  68.131  0.00  0.00    -0.346 N 
ATOM     10  C7  non d ame     -11.327  12.321  68.157  0.00  0.00     0.240 C 
ATOM     11  O3  non d ame     -11.835  11.987  67.157  0.00  0.00    -0.271 OA
ATOM     12  H10 non d ame      -9.622  13.269  69.002  0.00  0.00     0.163 HD
BRANCH  10  13
ATOM     13  C6  non d ame     -12.034  12.056  69.522  0.00  0.00     0.086 C 
ATOM     14  H6  non d ame     -13.048  11.673  69.405  0.00  0.00     0.086 H 
BRANCH  13  15
ATOM     15  N2  non d ame     -11.289  11.042  70.250  0.00  0.00    -0.343 N 
ATOM     16  C5  non d ame     -12.012  10.036  71.029  0.00  0.00     0.273 C 
ATOM     17  O2  non d ame     -13.194  10.051  71.067  0.00  0.00    -0.266 OA
ATOM     18  H5  non d ame     -10.279  11.038  70.214  0.00  0.00     0.163 HD
BRANCH  16  19
ATOM     19  C4  non d ame     -11.237   8.957  71.802  0.00  0.00     0.154 A 
ATOM     20  C1  non d ame      -9.825   8.727  71.784  0.00  0.00    -0.017 A 
ATOM     21  C2  non d ame      -9.623   7.633  72.655  0.00  0.00     0.077 A 
ATOM     22  H1  non d ame      -9.063   9.270  71.224  0.00  0.00     0.091 H 
ATOM     23  O1  non d ame     -10.789   7.285  73.115  0.00  0.00    -0.218 OA
ATOM     24  N1  non d ame     -11.746   8.042  72.632  0.00  0.00    -0.123 NA
BRANCH  21  25
ATOM     25  C3  non d ame      -8.288   6.983  72.992  0.00  0.00    -0.029 C 
ATOM     26  H2  non d ame      -7.475   7.622  72.646  0.00  0.00     0.036 H 
ATOM     27  H3  non d ame      -8.211   6.850  74.071  0.00  0.00     0.036 H 
ATOM     28  H4  non d ame      -8.221   6.012  72.501  0.00  0.00     0.036 H 
ENDBRANCH  21  25
ENDBRANCH  16  19
ENDBRANCH  13  15
BRANCH  13  29
ATOM     29  C8  non d ame     -12.085  13.333  70.322  0.00  0.00    -0.049 C 
ATOM     30  H7  non d ame     -11.986  13.102  71.382  0.00  0.00     0.030 H 
ATOM     31  H8  non d ame     -11.270  13.987  70.014  0.00  0.00     0.030 H 
ATOM     32  H9  non d ame     -13.038  13.832  70.147  0.00  0.00     0.030 H 
ENDBRANCH  13  29
ENDBRANCH  10  13
ENDBRANCH   7   9
BRANCH   7  33
ATOM     33  C11 non d ame      -9.684  14.695  66.391  0.00  0.00    -0.033 C 
ATOM     34  H12 non d ame      -8.732  15.175  66.164  0.00  0.00     0.042 H 
BRANCH  33  35
ATOM     35  C12 non d ame     -10.540  14.712  65.086  0.00  0.00    -0.071 C 
ATOM     36  H13 non d ame     -11.488  14.204  65.267  0.00  0.00     0.028 H 
ATOM     37  H14 non d ame     -10.733  15.743  64.791  0.00  0.00     0.028 H 
ATOM     38  H15 non d ame      -9.999  14.200  64.291  0.00  0.00     0.028 H 
ENDBRANCH  33  35
BRANCH  33  39
ATOM     39  C13 non d ame     -10.375  15.510  67.532  0.00  0.00    -0.071 C 
ATOM     40  H16 non d ame     -11.126  16.173  67.102  0.00  0.00     0.028 H 
ATOM     41  H17 non d ame     -10.854  14.822  68.230  0.00  0.00     0.028 H 
ATOM     42  H18 non d ame      -9.627  16.101  68.060  0.00  0.00     0.028 H 
ENDBRANCH  33  39
ENDBRANCH   7  33
ENDBRANCH   4   7
ENDBRANCH   1   3
BRANCH   1  43
ATOM     43  C15 non d ame      -5.246  11.028  65.507  0.00  0.00     0.240 C 
ATOM     44  O5  non d ame      -4.289  11.547  65.029  0.00  0.00    -0.271 OA
ATOM     45  N6  non d ame      -5.882   9.870  64.817  0.00  0.00    -0.355 N 
ATOM     46  H46 non d ame      -6.692   9.417  65.215  0.00  0.00     0.162 HD
BRANCH  45  47
ATOM     47  C20 non d ame      -5.323   9.380  63.538  0.00  0.00     0.013 C 
ATOM     48  H30 non d ame      -4.678  10.160  63.134  0.00  0.00     0.072 H 
BRANCH  47  49
ATOM     49  C21 non d ame      -6.453   9.094  62.575  0.00  0.00    -0.038 C 
ATOM     50  H31 non d ame      -5.978   8.728  61.665  0.00  0.00     0.036 H 
ATOM     51  H32 non d ame      -7.150   8.458  63.121  0.00  0.00     0.036 H 
BRANCH  49  52
ATOM     52  C22 non d ame      -7.238  10.363  62.178  0.00  0.00     0.018 C 
ATOM     53  H33 non d ame      -6.611  11.204  62.475  0.00  0.00     0.048 H 
ATOM     54  H34 non d ame      -7.508  10.227  61.131  0.00  0.00     0.048 H 
BRANCH  52  55
ATOM     55  C23 non d ame      -8.578  10.536  62.947  0.00  0.00     0.259 C 
ATOM     56  O7  non d ame      -9.580  10.791  62.362  0.00  0.00    -0.265 OA
BRANCH  55  57
ATOM     57  O8  non d ame      -8.591  10.400  64.363  0.00  0.00    -0.317 OA
BRANCH  57  58
ATOM     58  C29 non d ame      -9.878  10.088  64.905  0.00  0.00     0.052 C 
ATOM     59  H47 non d ame     -10.169  10.960  65.492  0.00  0.00     0.082 H 
ATOM     60  H48 non d ame     -10.487   9.773  64.058  0.00  0.00     0.082 H 
BRANCH  58  61
ATOM     61  C35 non d ame      -9.713   8.882  65.867  0.00  0.00    -0.034 A 
ATOM     62  C30 non d ame     -10.409   8.850  67.071  0.00  0.00    -0.075 A 
ATOM     63  C31 non d ame     -10.261   7.766  67.935  0.00  0.00    -0.082 A 
ATOM     64  H49 non d ame     -11.071   9.674  67.337  0.00  0.00     0.084 H 
ATOM     65  C32 non d ame      -9.410   6.712  67.592  0.00  0.00    -0.083 A 
ATOM     66  H50 non d ame     -10.810   7.743  68.876  0.00  0.00     0.083 H 
ATOM     67  C33 non d ame      -8.714   6.749  66.391  0.00  0.00    -0.082 A 
ATOM     68  H51 non d ame      -9.288   5.860  68.262  0.00  0.00     0.083 H 
ATOM     69  C34 non d ame      -8.861   7.830  65.524  0.00  0.00    -0.075 A 
ATOM     70  H52 non d ame      -8.049   5.926  66.128  0.00  0.00     0.083 H 
ATOM     71  H53 non d ame      -8.312   7.851  64.582  0.00  0.00     0.084 H 
ENDBRANCH  58  61
ENDBRANCH  57  58
ENDBRANCH  55  57
ENDBRANCH  52  55
ENDBRANCH  49  52
ENDBRANCH  47  49
BRANCH  47  72
ATOM     72  C24 non d ame      -4.522   8.102  63.780  0.00  0.00    -0.039 C 
ATOM     73  H35 non d ame      -4.395   7.650  62.796  0.00  0.00     0.036 H 
ATOM     74  H36 non d ame      -3.649   8.411  64.355  0.00  0.00     0.036 H 
BRANCH  72  75
ATOM     75  C25 non d ame      -5.335   7.056  64.680  0.00  0.00    -0.001 C 
ATOM     76  C26 non d ame      -4.538   6.796  66.095  0.00  0.00    -0.035 C 
ATOM     77  C27 non d ame      -4.396   5.462  66.277  0.00  0.00     0.085 C 
ATOM     78  H38 non d ame      -3.512   7.154  66.017  0.00  0.00     0.036 H 
ATOM     79  H39 non d ame      -5.160   7.103  66.936  0.00  0.00     0.036 H 
ATOM     80  N5  non d ame      -4.730   4.798  64.963  0.00  0.00    -0.049 N 
ATOM     81  H40 non d ame      -3.338   5.308  66.494  0.00  0.00     0.075 H 
ATOM     82  H41 non d ame      -5.148   5.187  67.015  0.00  0.00     0.075 H 
ATOM     83  C28 non d ame      -5.470   5.924  64.073  0.00  0.00     0.193 C 
ATOM     84  H42 non d ame      -3.849   4.570  64.525  0.00  0.00     0.280 HD
ATOM     85  H43 non d ame      -5.394   4.066  65.173  0.00  0.00     0.280 HD
ATOM     86  H44 non d ame      -6.552   5.899  63.938  0.00  0.00     0.129 H 
ATOM     87  H37 non d ame      -6.395   7.303  64.746  0.00  0.00     0.046 H 
BRANCH  83  88
ATOM     88  O6  non d ame      -4.921   5.950  62.755  0.00  0.00    -0.369 OA
ATOM     89  H45 non d ame      -4.390   5.163  62.614  0.00  0.00     0.212 HD
ENDBRANCH  83  88
ENDBRANCH  72  75
ENDBRANCH  47  72
ENDBRANCH  45  47
ENDBRANCH   1  43
BRANCH   1  90
ATOM     90  C16 non d ame      -5.562  10.536  67.952  0.00  0.00    -0.035 C 
ATOM     91  H21 non d ame      -4.885   9.803  67.513  0.00  0.00     0.037 H 
ATOM     92  H22 non d ame      -5.246  11.119  68.817  0.00  0.00     0.037 H 
BRANCH  90  93
ATOM     93  C17 non d ame      -6.838   9.750  68.392  0.00  0.00    -0.059 C 
ATOM     94  H23 non d ame      -7.529   9.743  67.549  0.00  0.00     0.038 H 
BRANCH  93  95
ATOM     95  C18 non d ame      -6.518   8.265  68.758  0.00  0.00    -0.073 C 
ATOM     96  H24 non d ame      -5.786   8.240  69.565  0.00  0.00     0.028 H 
ATOM     97  H25 non d ame      -7.433   7.766  69.081  0.00  0.00     0.028 H 
ATOM     98  H26 non d ame      -6.115   7.754  67.884  0.00  0.00     0.028 H 
ENDBRANCH  93  95
BRANCH  93  99
ATOM     99  C19 non d ame      -7.543  10.457  69.552  0.00  0.00    -0.073 C 
ATOM    100  H27 non d ame      -6.846  11.141  70.039  0.00  0.00     0.028 H 
ATOM    101  H28 non d ame      -8.396  11.019  69.170  0.00  0.00     0.028 H 
ATOM    102  H29 non d ame      -7.889   9.717  70.273  0.00  0.00     0.028 H 
ENDBRANCH  93  99
ENDBRANCH  90  93
ENDBRANCH   1  90
TORSDOF 26
ENDMDL
MODEL 5
REMARK VINA RESULT:      -6.5      3.498      6.381
REMARK  26 active torsions:
REMARK  status: ('A' for Active; 'I' for Inactive)
REMARK    1  A    between atoms: C2_2  and  C3_3 
REMARK    2  A    between atoms: C4_6  and  C5_7 
REMARK       I    between atoms: C5_7  and  N2_9 
REMARK    3  A    between atoms: N2_9  and  C6_10 
REMARK    4  A    between atoms: C6_10  and  C7_11 
REMARK    5  A    between atoms: C6_10  and  C8_13 
REMARK       I    between atoms: C7_11  and  N3_14 
REMARK    6  A    between atoms: N3_14  and  C9_15 
REMARK    7  A    between atoms: C9_15  and  C10_16 
REMARK    8  A    between atoms: C9_15  and  C11_18 
REMARK       I    between atoms: C10_16  and  N4_21 
REMARK    9  A    between atoms: C11_18  and  C12_19 
REMARK   10  A    between atoms: C11_18  and  C13_20 
REMARK   11  A    between atoms: N4_21  and  C14_22 
REMARK   12  A    between atoms: C14_22  and  C15_23 
REMARK   13  A    between atoms: C14_22  and  C16_25 
REMARK       I    between atoms: C15_23  and  N6_40 
REMARK   14  A    between atoms: C16_25  and  C17_26 
REMARK   15  A    between atoms: C17_26  and  C18_27 
REMARK   16  A    between atoms: C17_26  and  C19_28 
REMARK   17  A    between atoms: C20_29  and  C21_30 
REMARK   18  A    between atoms: C20_29  and  C24_33 
REMARK   19  A    between atoms: C20_29  and  N6_40 
REMARK   20  A    between atoms: C21_30  and  C22_31 
REMARK   21  A    between atoms: C22_31  and  C23_32 
REMARK   22  A    between atoms: C23_32  and  O8_43 
REMARK   23  A    between atoms: C24_33  and  C25_34 
REMARK   24  A    between atoms: C28_38  and  O6_39 
REMARK   25  A    between atoms: C29_42  and  O8_43 
REMARK   26  A    between atoms: C29_42  and  C35_49 
ROOT
ATOM      1  C14 non d ame      -8.636   9.798  69.489  0.00  0.00     0.089 C 
ATOM      2  H20 non d ame      -8.422   9.499  70.515  0.00  0.00     0.087 H 
ENDROOT
BRANCH   1   3
ATOM      3  N4  non d ame      -7.927  11.045  69.239  0.00  0.00    -0.346 N 
ATOM      4  C10 non d ame      -6.644  11.351  69.971  0.00  0.00     0.241 C 
ATOM      5  O4  non d ame      -6.203  10.580  70.758  0.00  0.00    -0.271 OA
ATOM      6  H19 non d ame      -8.320  11.688  68.567  0.00  0.00     0.163 HD
BRANCH   4   7
ATOM      7  C9  non d ame      -5.921  12.643  69.696  0.00  0.00     0.092 C 
ATOM      8  H11 non d ame      -5.428  12.579  68.726  0.00  0.00     0.088 H 
BRANCH   7   9
ATOM      9  N3  non d ame      -6.891  13.739  69.617  0.00  0.00    -0.346 N 
ATOM     10  C7  non d ame      -7.033  14.489  68.393  0.00  0.00     0.240 C 
ATOM     11  O3  non d ame      -6.373  14.224  67.462  0.00  0.00    -0.271 OA
ATOM     12  H10 non d ame      -7.466  13.980  70.412  0.00  0.00     0.163 HD
BRANCH  10  13
ATOM     13  C6  non d ame      -8.065  15.657  68.315  0.00  0.00     0.086 C 
ATOM     14  H6  non d ame      -8.607  15.679  67.370  0.00  0.00     0.086 H 
BRANCH  13  15
ATOM     15  N2  non d ame      -9.059  15.477  69.360  0.00  0.00    -0.343 N 
ATOM     16  C5  non d ame     -10.434  15.928  69.134  0.00  0.00     0.273 C 
ATOM     17  O2  non d ame     -10.729  16.437  68.108  0.00  0.00    -0.266 OA
ATOM     18  H5  non d ame      -8.797  15.043  70.235  0.00  0.00     0.163 HD
BRANCH  16  19
ATOM     19  C4  non d ame     -11.495  15.743  70.229  0.00  0.00     0.154 A 
ATOM     20  C1  non d ame     -12.628  14.870  70.196  0.00  0.00    -0.017 A 
ATOM     21  C2  non d ame     -13.280  15.073  71.433  0.00  0.00     0.077 A 
ATOM     22  H1  non d ame     -12.931  14.193  69.398  0.00  0.00     0.091 H 
ATOM     23  O1  non d ame     -12.593  15.960  72.092  0.00  0.00    -0.218 OA
ATOM     24  N1  non d ame     -11.547  16.366  71.410  0.00  0.00    -0.123 NA
BRANCH  21  25
ATOM     25  C3  non d ame     -14.551  14.381  71.907  0.00  0.00    -0.029 C 
ATOM     26  H2  non d ame     -14.898  13.692  71.138  0.00  0.00     0.036 H 
ATOM     27  H3  non d ame     -14.343  13.828  72.823  0.00  0.00     0.036 H 
ATOM     28  H4  non d ame     -15.321  15.128  72.101  0.00  0.00     0.036 H 
ENDBRANCH  21  25
ENDBRANCH  16  19
ENDBRANCH  13  15
BRANCH  13  29
ATOM     29  C8  non d ame      -7.353  16.973  68.500  0.00  0.00    -0.049 C 
ATOM     30  H7  non d ame      -8.045  17.791  68.300  0.00  0.00     0.030 H 
ATOM     31  H8  non d ame      -6.988  17.048  69.524  0.00  0.00     0.030 H 
ATOM     32  H9  non d ame      -6.513  17.031  67.809  0.00  0.00     0.030 H 
ENDBRANCH  13  29
ENDBRANCH  10  13
ENDBRANCH   7   9
BRANCH   7  33
ATOM     33  C11 non d ame      -4.913  12.928  70.848  0.00  0.00    -0.033 C 
ATOM     34  H12 non d ame      -4.855  12.031  71.464  0.00  0.00     0.042 H 
BRANCH  33  35
ATOM     35  C12 non d ame      -3.482  13.209  70.294  0.00  0.00    -0.071 C 
ATOM     36  H13 non d ame      -2.770  13.229  71.119  0.00  0.00     0.028 H 
ATOM     37  H14 non d ame      -3.202  12.423  69.593  0.00  0.00     0.028 H 
ATOM     38  H15 non d ame      -3.473  14.172  69.783  0.00  0.00     0.028 H 
ENDBRANCH  33  35
BRANCH  33  39
ATOM     39  C13 non d ame      -5.412  14.102  71.750  0.00  0.00    -0.071 C 
ATOM     40  H16 non d ame      -6.478  13.983  71.945  0.00  0.00     0.028 H 
ATOM     41  H17 non d ame      -4.867  14.092  72.694  0.00  0.00     0.028 H 
ATOM     42  H18 non d ame      -5.240  15.050  71.240  0.00  0.00     0.028 H 
ENDBRANCH  33  39
ENDBRANCH   7  33
ENDBRANCH   4   7
ENDBRANCH   1   3
BRANCH   1  43
ATOM     43  C15 non d ame      -8.155   8.739  68.455  0.00  0.00     0.240 C 
ATOM     44  O5  non d ame      -7.899   7.636  68.815  0.00  0.00    -0.271 OA
ATOM     45  N6  non d ame      -8.021   9.099  67.015  0.00  0.00    -0.355 N 
ATOM     46  H46 non d ame      -8.240  10.032  66.696  0.00  0.00     0.162 HD
BRANCH  45  47
ATOM     47  C20 non d ame      -7.564   8.081  66.045  0.00  0.00     0.013 C 
ATOM     48  H30 non d ame      -6.960   7.351  66.584  0.00  0.00     0.072 H 
BRANCH  47  49
ATOM     49  C21 non d ame      -6.732   8.749  64.974  0.00  0.00    -0.038 C 
ATOM     50  H31 non d ame      -6.828   9.820  65.152  0.00  0.00     0.036 H 
ATOM     51  H32 non d ame      -5.752   8.273  65.023  0.00  0.00     0.036 H 
BRANCH  49  52
ATOM     52  C22 non d ame      -7.270   8.493  63.550  0.00  0.00     0.018 C 
ATOM     53  H33 non d ame      -6.389   8.382  62.916  0.00  0.00     0.048 H 
ATOM     54  H34 non d ame      -7.979   7.670  63.645  0.00  0.00     0.048 H 
BRANCH  52  55
ATOM     55  C23 non d ame      -8.075   9.684  62.960  0.00  0.00     0.259 C 
ATOM     56  O7  non d ame      -8.177   9.820  61.784  0.00  0.00    -0.265 OA
BRANCH  55  57
ATOM     57  O8  non d ame      -8.678  10.622  63.844  0.00  0.00    -0.317 OA
BRANCH  57  58
ATOM     58  C29 non d ame     -10.054  10.888  63.558  0.00  0.00     0.052 C 
ATOM     59  H47 non d ame     -10.056  11.477  62.640  0.00  0.00     0.082 H 
ATOM     60  H48 non d ame     -10.554   9.920  63.585  0.00  0.00     0.082 H 
BRANCH  58  61
ATOM     61  C35 non d ame     -10.621  11.766  64.706  0.00  0.00    -0.034 A 
ATOM     62  C30 non d ame      -9.861  11.993  65.849  0.00  0.00    -0.075 A 
ATOM     63  C31 non d ame     -10.369  12.781  66.880  0.00  0.00    -0.082 A 
ATOM     64  H49 non d ame      -8.866  11.555  65.936  0.00  0.00     0.084 H 
ATOM     65  C32 non d ame     -11.645  13.341  66.767  0.00  0.00    -0.083 A 
ATOM     66  H50 non d ame      -9.770  12.960  67.773  0.00  0.00     0.083 H 
ATOM     67  C33 non d ame     -12.401  13.108  65.626  0.00  0.00    -0.082 A 
ATOM     68  H51 non d ame     -12.050  13.958  67.568  0.00  0.00     0.083 H 
ATOM     69  C34 non d ame     -11.896  12.323  64.592  0.00  0.00    -0.075 A 
ATOM     70  H52 non d ame     -13.397  13.544  65.542  0.00  0.00     0.083 H 
ATOM     71  H53 non d ame     -12.495  12.146  63.698  0.00  0.00     0.084 H 
ENDBRANCH  58  61
ENDBRANCH  57  58
ENDBRANCH  55  57
ENDBRANCH  52  55
ENDBRANCH  49  52
ENDBRANCH  47  49
BRANCH  47  72
ATOM     72  C24 non d ame      -8.771   7.400  65.402  0.00  0.00    -0.039 C 
ATOM     73  H35 non d ame      -9.623   8.037  65.640  0.00  0.00     0.036 H 
ATOM     74  H36 non d ame      -8.490   7.232  64.363  0.00  0.00     0.036 H 
BRANCH  72  75
ATOM     75  C25 non d ame      -9.058   5.965  66.052  0.00  0.00    -0.001 C 
ATOM     76  C26 non d ame      -9.053   4.809  64.882  0.00  0.00    -0.035 C 
ATOM     77  C27 non d ame     -10.188   4.077  64.988  0.00  0.00     0.085 C 
ATOM     78  H38 non d ame      -9.139   5.272  63.900  0.00  0.00     0.036 H 
ATOM     79  H39 non d ame      -8.263   4.084  65.076  0.00  0.00     0.036 H 
ATOM     80  N5  non d ame     -11.116   4.830  65.910  0.00  0.00    -0.049 N 
ATOM     81  H40 non d ame     -10.618   4.060  63.986  0.00  0.00     0.075 H 
ATOM     82  H41 non d ame      -9.889   3.145  65.468  0.00  0.00     0.075 H 
ATOM     83  C28 non d ame     -10.204   5.941  66.646  0.00  0.00     0.193 C 
ATOM     84  H42 non d ame     -11.784   5.303  65.319  0.00  0.00     0.280 HD
ATOM     85  H43 non d ame     -11.434   4.166  66.601  0.00  0.00     0.280 HD
ATOM     86  H44 non d ame      -9.889   5.801  67.680  0.00  0.00     0.129 H 
ATOM     87  H37 non d ame      -8.443   5.780  66.934  0.00  0.00     0.046 H 
BRANCH  83  88
ATOM     88  O6  non d ame     -10.854   7.212  66.614  0.00  0.00    -0.369 OA
ATOM     89  H45 non d ame     -11.760   7.101  66.318  0.00  0.00     0.212 HD
ENDBRANCH  83  88
ENDBRANCH  72  75
ENDBRANCH  47  72
ENDBRANCH  45  47
ENDBRANCH   1  43
BRANCH   1  90
ATOM     90  C16 non d ame     -10.128  10.034  69.321  0.00  0.00    -0.035 C 
ATOM     91  H21 non d ame     -10.261  11.113  69.405  0.00  0.00     0.037 H 
ATOM     92  H22 non d ame     -10.400   9.522  68.398  0.00  0.00     0.037 H 
BRANCH  90  93
ATOM     93  C17 non d ame     -10.995   9.394  70.452  0.00  0.00    -0.059 C 
ATOM     94  H23 non d ame     -11.500   8.525  70.030  0.00  0.00     0.038 H 
BRANCH  93  95
ATOM     95  C18 non d ame     -10.125   8.902  71.653  0.00  0.00    -0.073 C 
ATOM     96  H24 non d ame      -9.093   9.218  71.508  0.00  0.00     0.028 H 
ATOM     97  H25 non d ame     -10.509   9.330  72.579  0.00  0.00     0.028 H 
ATOM     98  H26 non d ame     -10.168   7.814  71.711  0.00  0.00     0.028 H 
ENDBRANCH  93  95
BRANCH  93  99
ATOM     99  C19 non d ame     -12.079  10.365  70.926  0.00  0.00    -0.073 C 
ATOM    100  H27 non d ame     -11.904  10.623  71.971  0.00  0.00     0.028 H 
ATOM    101  H28 non d ame     -12.047  11.269  70.318  0.00  0.00     0.028 H 
ATOM    102  H29 non d ame     -13.057   9.894  70.827  0.00  0.00     0.028 H 
ENDBRANCH  93  99
ENDBRANCH  90  93
ENDBRANCH   1  90
TORSDOF 26
ENDMDL
MODEL 6
REMARK VINA RESULT:      -6.5      3.096      8.029
REMARK  26 active torsions:
REMARK  status: ('A' for Active; 'I' for Inactive)
REMARK    1  A    between atoms: C2_2  and  C3_3 
REMARK    2  A    between atoms: C4_6  and  C5_7 
REMARK       I    between atoms: C5_7  and  N2_9 
REMARK    3  A    between atoms: N2_9  and  C6_10 
REMARK    4  A    between atoms: C6_10  and  C7_11 
REMARK    5  A    between atoms: C6_10  and  C8_13 
REMARK       I    between atoms: C7_11  and  N3_14 
REMARK    6  A    between atoms: N3_14  and  C9_15 
REMARK    7  A    between atoms: C9_15  and  C10_16 
REMARK    8  A    between atoms: C9_15  and  C11_18 
REMARK       I    between atoms: C10_16  and  N4_21 
REMARK    9  A    between atoms: C11_18  and  C12_19 
REMARK   10  A    between atoms: C11_18  and  C13_20 
REMARK   11  A    between atoms: N4_21  and  C14_22 
REMARK   12  A    between atoms: C14_22  and  C15_23 
REMARK   13  A    between atoms: C14_22  and  C16_25 
REMARK       I    between atoms: C15_23  and  N6_40 
REMARK   14  A    between atoms: C16_25  and  C17_26 
REMARK   15  A    between atoms: C17_26  and  C18_27 
REMARK   16  A    between atoms: C17_26  and  C19_28 
REMARK   17  A    between atoms: C20_29  and  C21_30 
REMARK   18  A    between atoms: C20_29  and  C24_33 
REMARK   19  A    between atoms: C20_29  and  N6_40 
REMARK   20  A    between atoms: C21_30  and  C22_31 
REMARK   21  A    between atoms: C22_31  and  C23_32 
REMARK   22  A    between atoms: C23_32  and  O8_43 
REMARK   23  A    between atoms: C24_33  and  C25_34 
REMARK   24  A    between atoms: C28_38  and  O6_39 
REMARK   25  A    between atoms: C29_42  and  O8_43 
REMARK   26  A    between atoms: C29_42  and  C35_49 
ROOT
ATOM      1  C14 non d ame      -9.858   9.892  69.348  0.00  0.00     0.089 C 
ATOM      2  H20 non d ame      -9.482   9.077  69.967  0.00  0.00     0.087 H 
ENDROOT
BRANCH   1   3
ATOM      3  N4  non d ame      -8.855  10.946  69.354  0.00  0.00    -0.346 N 
ATOM      4  C10 non d ame      -7.389  10.602  69.430  0.00  0.00     0.241 C 
ATOM      5  O4  non d ame      -7.041   9.469  69.488  0.00  0.00    -0.271 OA
ATOM      6  H19 non d ame      -9.173  11.904  69.306  0.00  0.00     0.163 HD
BRANCH   4   7
ATOM      7  C9  non d ame      -6.365  11.706  69.430  0.00  0.00     0.092 C 
ATOM      8  H11 non d ame      -5.813  11.683  68.490  0.00  0.00     0.088 H 
BRANCH   7   9
ATOM      9  N3  non d ame      -7.043  13.004  69.501  0.00  0.00    -0.346 N 
ATOM     10  C7  non d ame      -7.021  13.892  68.365  0.00  0.00     0.240 C 
ATOM     11  O3  non d ame      -6.461  13.579  67.386  0.00  0.00    -0.271 OA
ATOM     12  H10 non d ame      -7.530  13.288  70.340  0.00  0.00     0.163 HD
BRANCH  10  13
ATOM     13  C6  non d ame      -7.743  15.273  68.448  0.00  0.00     0.086 C 
ATOM     14  H6  non d ame      -8.195  15.570  67.503  0.00  0.00     0.086 H 
BRANCH  13  15
ATOM     15  N2  non d ame      -8.824  15.182  69.416  0.00  0.00    -0.343 N 
ATOM     16  C5  non d ame     -10.212  15.254  68.955  0.00  0.00     0.273 C 
ATOM     17  O2  non d ame     -10.449  15.388  67.805  0.00  0.00    -0.266 OA
ATOM     18  H5  non d ame      -8.612  15.071  70.398  0.00  0.00     0.163 HD
BRANCH  16  19
ATOM     19  C4  non d ame     -11.365  15.158  69.967  0.00  0.00     0.154 A 
ATOM     20  C1  non d ame     -11.933  13.967  70.519  0.00  0.00    -0.017 A 
ATOM     21  C2  non d ame     -12.951  14.419  71.388  0.00  0.00     0.077 A 
ATOM     22  H1  non d ame     -11.651  12.933  70.320  0.00  0.00     0.091 H 
ATOM     23  O1  non d ame     -12.957  15.719  71.335  0.00  0.00    -0.218 OA
ATOM     24  N1  non d ame     -12.040  16.174  70.512  0.00  0.00    -0.123 NA
BRANCH  21  25
ATOM     25  C3  non d ame     -13.870  13.546  72.232  0.00  0.00    -0.029 C 
ATOM     26  H2  non d ame     -13.670  13.722  73.289  0.00  0.00     0.036 H 
ATOM     27  H3  non d ame     -14.909  13.794  72.013  0.00  0.00     0.036 H 
ATOM     28  H4  non d ame     -13.690  12.496  71.998  0.00  0.00     0.036 H 
ENDBRANCH  21  25
ENDBRANCH  16  19
ENDBRANCH  13  15
BRANCH  13  29
ATOM     29  C8  non d ame      -6.758  16.333  68.872  0.00  0.00    -0.049 C 
ATOM     30  H7  non d ame      -6.098  15.930  69.641  0.00  0.00     0.030 H 
ATOM     31  H8  non d ame      -6.166  16.644  68.011  0.00  0.00     0.030 H 
ATOM     32  H9  non d ame      -7.298  17.191  69.271  0.00  0.00     0.030 H 
ENDBRANCH  13  29
ENDBRANCH  10  13
ENDBRANCH   7   9
BRANCH   7  33
ATOM     33  C11 non d ame      -5.428  11.545  70.663  0.00  0.00    -0.033 C 
ATOM     34  H12 non d ame      -5.899  10.835  71.343  0.00  0.00     0.042 H 
BRANCH  33  35
ATOM     35  C12 non d ame      -4.044  10.954  70.252  0.00  0.00    -0.071 C 
ATOM     36  H13 non d ame      -4.008  10.831  69.169  0.00  0.00     0.028 H 
ATOM     37  H14 non d ame      -3.251  11.632  70.567  0.00  0.00     0.028 H 
ATOM     38  H15 non d ame      -3.906   9.985  70.732  0.00  0.00     0.028 H 
ENDBRANCH  33  35
BRANCH  33  39
ATOM     39  C13 non d ame      -5.262  12.902  71.420  0.00  0.00    -0.071 C 
ATOM     40  H16 non d ame      -4.888  13.659  70.732  0.00  0.00     0.028 H 
ATOM     41  H17 non d ame      -6.228  13.217  71.817  0.00  0.00     0.028 H 
ATOM     42  H18 non d ame      -4.556  12.775  72.241  0.00  0.00     0.028 H 
ENDBRANCH  33  39
ENDBRANCH   7  33
ENDBRANCH   4   7
ENDBRANCH   1   3
BRANCH   1  43
ATOM     43  C15 non d ame     -10.101   9.447  67.877  0.00  0.00     0.240 C 
ATOM     44  O5  non d ame     -10.577   8.382  67.652  0.00  0.00    -0.271 OA
ATOM     45  N6  non d ame      -9.747  10.355  66.748  0.00  0.00    -0.355 N 
ATOM     46  H46 non d ame      -9.347  11.264  66.927  0.00  0.00     0.162 HD
BRANCH  45  47
ATOM     47  C20 non d ame      -9.985   9.918  65.355  0.00  0.00     0.013 C 
ATOM     48  H30 non d ame     -10.536   8.978  65.388  0.00  0.00     0.072 H 
BRANCH  47  49
ATOM     49  C21 non d ame      -8.657   9.715  64.661  0.00  0.00    -0.038 C 
ATOM     50  H31 non d ame      -8.768  10.167  63.675  0.00  0.00     0.036 H 
ATOM     51  H32 non d ame      -7.904  10.093  65.352  0.00  0.00     0.036 H 
BRANCH  49  52
ATOM     52  C22 non d ame      -8.326   8.226  64.425  0.00  0.00     0.018 C 
ATOM     53  H33 non d ame      -7.500   7.996  65.099  0.00  0.00     0.048 H 
ATOM     54  H34 non d ame      -9.272   7.693  64.522  0.00  0.00     0.048 H 
BRANCH  52  55
ATOM     55  C23 non d ame      -7.808   7.919  62.992  0.00  0.00     0.259 C 
ATOM     56  O7  non d ame      -8.335   8.403  62.044  0.00  0.00    -0.265 OA
BRANCH  55  57
ATOM     57  O8  non d ame      -6.701   7.042  62.825  0.00  0.00    -0.317 OA
BRANCH  57  58
ATOM     58  C29 non d ame      -5.436   7.633  63.137  0.00  0.00     0.052 C 
ATOM     59  H47 non d ame      -4.840   7.552  62.228  0.00  0.00     0.082 H 
ATOM     60  H48 non d ame      -5.664   8.614  63.554  0.00  0.00     0.082 H 
BRANCH  58  61
ATOM     61  C35 non d ame      -4.766   6.774  64.242  0.00  0.00    -0.034 A 
ATOM     62  C30 non d ame      -5.017   5.408  64.311  0.00  0.00    -0.075 A 
ATOM     63  C31 non d ame      -4.415   4.636  65.304  0.00  0.00    -0.082 A 
ATOM     64  H49 non d ame      -5.685   4.941  63.587  0.00  0.00     0.084 H 
ATOM     65  C32 non d ame      -3.560   5.237  66.232  0.00  0.00    -0.083 A 
ATOM     66  H50 non d ame      -4.612   3.565  65.353  0.00  0.00     0.083 H 
ATOM     67  C33 non d ame      -3.315   6.601  66.161  0.00  0.00    -0.082 A 
ATOM     68  H51 non d ame      -3.084   4.641  67.011  0.00  0.00     0.083 H 
ATOM     69  C34 non d ame      -3.913   7.376  65.169  0.00  0.00    -0.075 A 
ATOM     70  H52 non d ame      -2.649   7.067  66.888  0.00  0.00     0.083 H 
ATOM     71  H53 non d ame      -3.714   8.447  65.120  0.00  0.00     0.084 H 
ENDBRANCH  58  61
ENDBRANCH  57  58
ENDBRANCH  55  57
ENDBRANCH  52  55
ENDBRANCH  49  52
ENDBRANCH  47  49
BRANCH  47  72
ATOM     72  C24 non d ame     -10.792  10.980  64.612  0.00  0.00    -0.039 C 
ATOM     73  H35 non d ame     -10.278  11.123  63.661  0.00  0.00     0.036 H 
ATOM     74  H36 non d ame     -11.822  10.624  64.625  0.00  0.00     0.036 H 
BRANCH  72  75
ATOM     75  C25 non d ame     -10.768  12.387  65.378  0.00  0.00    -0.001 C 
ATOM     76  C26 non d ame     -12.298  12.822  65.798  0.00  0.00    -0.035 C 
ATOM     77  C27 non d ame     -12.525  14.087  65.369  0.00  0.00     0.085 C 
ATOM     78  H38 non d ame     -13.022  12.230  65.238  0.00  0.00     0.036 H 
ATOM     79  H39 non d ame     -12.380  12.902  66.882  0.00  0.00     0.036 H 
ATOM     80  N5  non d ame     -11.411  14.435  64.412  0.00  0.00    -0.049 N 
ATOM     81  H40 non d ame     -13.466  14.044  64.819  0.00  0.00     0.075 H 
ATOM     82  H41 non d ame     -12.440  14.714  66.256  0.00  0.00     0.075 H 
ATOM     83  C28 non d ame     -10.268  13.316  64.634  0.00  0.00     0.193 C 
ATOM     84  H42 non d ame     -11.789  14.329  63.482  0.00  0.00     0.280 HD
ATOM     85  H43 non d ame     -11.046  15.329  64.710  0.00  0.00     0.280 HD
ATOM     86  H44 non d ame      -9.363  13.552  65.194  0.00  0.00     0.129 H 
ATOM     87  H37 non d ame     -10.011  12.417  66.162  0.00  0.00     0.046 H 
BRANCH  83  88
ATOM     88  O6  non d ame      -9.819  12.814  63.374  0.00  0.00    -0.369 OA
ATOM     89  H45 non d ame      -9.168  12.123  63.519  0.00  0.00     0.212 HD
ENDBRANCH  83  88
ENDBRANCH  72  75
ENDBRANCH  47  72
ENDBRANCH  45  47
ENDBRANCH   1  43
BRANCH   1  90
ATOM     90  C16 non d ame     -11.151  10.433  69.938  0.00  0.00    -0.035 C 
ATOM     91  H21 non d ame     -10.945  11.477  70.174  0.00  0.00     0.037 H 
ATOM     92  H22 non d ame     -11.926  10.181  69.215  0.00  0.00     0.037 H 
BRANCH  90  93
ATOM     93  C17 non d ame     -11.561   9.749  71.281  0.00  0.00    -0.059 C 
ATOM     94  H23 non d ame     -10.964  10.197  72.076  0.00  0.00     0.038 H 
BRANCH  93  95
ATOM     95  C18 non d ame     -13.067   9.983  71.626  0.00  0.00    -0.073 C 
ATOM     96  H24 non d ame     -13.680   9.740  70.758  0.00  0.00     0.028 H 
ATOM     97  H25 non d ame     -13.351   9.344  72.462  0.00  0.00     0.028 H 
ATOM     98  H26 non d ame     -13.219  11.028  71.898  0.00  0.00     0.028 H 
ENDBRANCH  93  95
BRANCH  93  99
ATOM     99  C19 non d ame     -11.234   8.254  71.255  0.00  0.00    -0.073 C 
ATOM    100  H27 non d ame     -10.984   7.918  72.262  0.00  0.00     0.028 H 
ATOM    101  H28 non d ame     -12.100   7.699  70.892  0.00  0.00     0.028 H 
ATOM    102  H29 non d ame     -10.387   8.078  70.593  0.00  0.00     0.028 H 
ENDBRANCH  93  99
ENDBRANCH  90  93
ENDBRANCH   1  90
TORSDOF 26
ENDMDL
MODEL 7
REMARK VINA RESULT:      -6.4      3.353      7.781
REMARK  26 active torsions:
REMARK  status: ('A' for Active; 'I' for Inactive)
REMARK    1  A    between atoms: C2_2  and  C3_3 
REMARK    2  A    between atoms: C4_6  and  C5_7 
REMARK       I    between atoms: C5_7  and  N2_9 
REMARK    3  A    between atoms: N2_9  and  C6_10 
REMARK    4  A    between atoms: C6_10  and  C7_11 
REMARK    5  A    between atoms: C6_10  and  C8_13 
REMARK       I    between atoms: C7_11  and  N3_14 
REMARK    6  A    between atoms: N3_14  and  C9_15 
REMARK    7  A    between atoms: C9_15  and  C10_16 
REMARK    8  A    between atoms: C9_15  and  C11_18 
REMARK       I    between atoms: C10_16  and  N4_21 
REMARK    9  A    between atoms: C11_18  and  C12_19 
REMARK   10  A    between atoms: C11_18  and  C13_20 
REMARK   11  A    between atoms: N4_21  and  C14_22 
REMARK   12  A    between atoms: C14_22  and  C15_23 
REMARK   13  A    between atoms: C14_22  and  C16_25 
REMARK       I    between atoms: C15_23  and  N6_40 
REMARK   14  A    between atoms: C16_25  and  C17_26 
REMARK   15  A    between atoms: C17_26  and  C18_27 
REMARK   16  A    between atoms: C17_26  and  C19_28 
REMARK   17  A    between atoms: C20_29  and  C21_30 
REMARK   18  A    between atoms: C20_29  and  C24_33 
REMARK   19  A    between atoms: C20_29  and  N6_40 
REMARK   20  A    between atoms: C21_30  and  C22_31 
REMARK   21  A    between atoms: C22_31  and  C23_32 
REMARK   22  A    between atoms: C23_32  and  O8_43 
REMARK   23  A    between atoms: C24_33  and  C25_34 
REMARK   24  A    between atoms: C28_38  and  O6_39 
REMARK   25  A    between atoms: C29_42  and  O8_43 
REMARK   26  A    between atoms: C29_42  and  C35_49 
ROOT
ATOM      1  C14 non d ame      -6.745  13.186  68.172  0.00  0.00     0.089 C 
ATOM      2  H20 non d ame      -6.024  13.142  67.355  0.00  0.00     0.087 H 
ENDROOT
BRANCH   1   3
ATOM      3  N4  non d ame      -7.037  14.589  68.424  0.00  0.00    -0.346 N 
ATOM      4  C10 non d ame      -6.200  15.668  67.785  0.00  0.00     0.241 C 
ATOM      5  O4  non d ame      -5.294  15.383  67.074  0.00  0.00    -0.271 OA
ATOM      6  H19 non d ame      -7.812  14.811  69.034  0.00  0.00     0.163 HD
BRANCH   4   7
ATOM      7  C9  non d ame      -6.521  17.116  68.052  0.00  0.00     0.092 C 
ATOM      8  H11 non d ame      -6.193  17.718  67.204  0.00  0.00     0.088 H 
BRANCH   7   9
ATOM      9  N3  non d ame      -7.973  17.282  68.165  0.00  0.00    -0.346 N 
ATOM     10  C7  non d ame      -8.756  17.592  66.994  0.00  0.00     0.240 C 
ATOM     11  O3  non d ame      -8.234  17.712  65.953  0.00  0.00    -0.271 OA
ATOM     12  H10 non d ame      -8.438  17.183  69.056  0.00  0.00     0.163 HD
BRANCH  10  13
ATOM     13  C6  non d ame     -10.301  17.771  67.121  0.00  0.00     0.086 C 
ATOM     14  H6  non d ame     -10.854  17.210  66.367  0.00  0.00     0.086 H 
BRANCH  13  15
ATOM     15  N2  non d ame     -10.730  17.263  68.414  0.00  0.00    -0.343 N 
ATOM     16  C5  non d ame     -11.338  15.934  68.501  0.00  0.00     0.273 C 
ATOM     17  O2  non d ame     -11.482  15.282  67.526  0.00  0.00    -0.266 OA
ATOM     18  H5  non d ame     -10.606  17.828  69.242  0.00  0.00     0.163 HD
BRANCH  16  19
ATOM     19  C4  non d ame     -11.795  15.385  69.862  0.00  0.00     0.154 A 
ATOM     20  C1  non d ame     -11.674  16.023  71.137  0.00  0.00    -0.017 A 
ATOM     21  C2  non d ame     -12.240  15.111  72.055  0.00  0.00     0.077 A 
ATOM     22  H1  non d ame     -11.242  16.999  71.361  0.00  0.00     0.091 H 
ATOM     23  O1  non d ame     -12.637  14.075  71.377  0.00  0.00    -0.218 OA
ATOM     24  N1  non d ame     -12.388  14.211  70.095  0.00  0.00    -0.123 NA
BRANCH  21  25
ATOM     25  C3  non d ame     -12.362  15.307  73.561  0.00  0.00    -0.029 C 
ATOM     26  H2  non d ame     -13.366  15.657  73.802  0.00  0.00     0.036 H 
ATOM     27  H3  non d ame     -12.177  14.359  74.066  0.00  0.00     0.036 H 
ATOM     28  H4  non d ame     -11.631  16.044  73.893  0.00  0.00     0.036 H 
ENDBRANCH  21  25
ENDBRANCH  16  19
ENDBRANCH  13  15
BRANCH  13  29
ATOM     29  C8  non d ame     -10.652  19.231  66.997  0.00  0.00    -0.049 C 
ATOM     30  H7  non d ame      -9.824  19.766  66.532  0.00  0.00     0.030 H 
ATOM     31  H8  non d ame     -11.546  19.339  66.382  0.00  0.00     0.030 H 
ATOM     32  H9  non d ame     -10.840  19.645  67.987  0.00  0.00     0.030 H 
ENDBRANCH  13  29
ENDBRANCH  10  13
ENDBRANCH   7   9
BRANCH   7  33
ATOM     33  C11 non d ame      -5.846  17.559  69.382  0.00  0.00    -0.033 C 
ATOM     34  H12 non d ame      -6.272  16.957  70.184  0.00  0.00     0.042 H 
BRANCH  33  35
ATOM     35  C12 non d ame      -4.309  17.289  69.358  0.00  0.00    -0.071 C 
ATOM     36  H13 non d ame      -3.999  17.044  68.341  0.00  0.00     0.028 H 
ATOM     37  H14 non d ame      -3.778  18.179  69.695  0.00  0.00     0.028 H 
ATOM     38  H15 non d ame      -4.077  16.454  70.019  0.00  0.00     0.028 H 
ENDBRANCH  33  35
BRANCH  33  39
ATOM     39  C13 non d ame      -6.152  19.060  69.691  0.00  0.00    -0.071 C 
ATOM     40  H16 non d ame      -5.256  19.657  69.519  0.00  0.00     0.028 H 
ATOM     41  H17 non d ame      -6.952  19.410  69.039  0.00  0.00     0.028 H 
ATOM     42  H18 non d ame      -6.461  19.161  70.732  0.00  0.00     0.028 H 
ENDBRANCH  33  39
ENDBRANCH   7  33
ENDBRANCH   4   7
ENDBRANCH   1   3
BRANCH   1  43
ATOM     43  C15 non d ame      -8.074  12.458  67.823  0.00  0.00     0.240 C 
ATOM     44  O5  non d ame      -9.108  12.897  68.210  0.00  0.00    -0.271 OA
ATOM     45  N6  non d ame      -8.059  11.216  66.998  0.00  0.00    -0.355 N 
ATOM     46  H46 non d ame      -7.187  10.836  66.660  0.00  0.00     0.162 HD
BRANCH  45  47
ATOM     47  C20 non d ame      -9.331  10.536  66.673  0.00  0.00     0.013 C 
ATOM     48  H30 non d ame     -10.138  11.087  67.155  0.00  0.00     0.072 H 
BRANCH  47  49
ATOM     49  C21 non d ame      -9.288   9.118  67.198  0.00  0.00    -0.038 C 
ATOM     50  H31 non d ame      -8.407   8.663  66.745  0.00  0.00     0.036 H 
ATOM     51  H32 non d ame      -9.362   9.204  68.282  0.00  0.00     0.036 H 
BRANCH  49  52
ATOM     52  C22 non d ame     -10.498   8.274  66.742  0.00  0.00     0.018 C 
ATOM     53  H33 non d ame     -11.359   8.682  67.273  0.00  0.00     0.048 H 
ATOM     54  H34 non d ame     -10.474   8.286  65.652  0.00  0.00     0.048 H 
BRANCH  52  55
ATOM     55  C23 non d ame     -10.409   6.779  67.156  0.00  0.00     0.259 C 
ATOM     56  O7  non d ame     -10.791   6.424  68.224  0.00  0.00    -0.265 OA
BRANCH  55  57
ATOM     57  O8  non d ame      -9.854   5.836  66.246  0.00  0.00    -0.317 OA
BRANCH  57  58
ATOM     58  C29 non d ame      -8.555   5.366  66.616  0.00  0.00     0.052 C 
ATOM     59  H47 non d ame      -8.211   6.037  67.402  0.00  0.00     0.082 H 
ATOM     60  H48 non d ame      -8.674   4.302  66.821  0.00  0.00     0.082 H 
BRANCH  58  61
ATOM     61  C35 non d ame      -7.620   5.528  65.388  0.00  0.00    -0.034 A 
ATOM     62  C30 non d ame      -6.240   5.464  65.550  0.00  0.00    -0.075 A 
ATOM     63  C31 non d ame      -5.399   5.610  64.447  0.00  0.00    -0.082 A 
ATOM     64  H49 non d ame      -5.816   5.299  66.541  0.00  0.00     0.084 H 
ATOM     65  C32 non d ame      -5.944   5.823  63.178  0.00  0.00    -0.083 A 
ATOM     66  H50 non d ame      -4.318   5.556  64.578  0.00  0.00     0.083 H 
ATOM     67  C33 non d ame      -7.322   5.889  63.022  0.00  0.00    -0.082 A 
ATOM     68  H51 non d ame      -5.294   5.937  62.311  0.00  0.00     0.083 H 
ATOM     69  C34 non d ame      -8.166   5.742  64.121  0.00  0.00    -0.075 A 
ATOM     70  H52 non d ame      -7.744   6.058  62.031  0.00  0.00     0.083 H 
ATOM     71  H53 non d ame      -9.247   5.795  63.990  0.00  0.00     0.084 H 
ENDBRANCH  58  61
ENDBRANCH  57  58
ENDBRANCH  55  57
ENDBRANCH  52  55
ENDBRANCH  49  52
ENDBRANCH  47  49
BRANCH  47  72
ATOM     72  C24 non d ame      -9.533  10.514  65.160  0.00  0.00    -0.039 C 
ATOM     73  H35 non d ame      -8.534  10.412  64.735  0.00  0.00     0.036 H 
ATOM     74  H36 non d ame     -10.284   9.744  64.978  0.00  0.00     0.036 H 
BRANCH  72  75
ATOM     75  C25 non d ame     -10.136  11.897  64.622  0.00  0.00    -0.001 C 
ATOM     76  C26 non d ame     -11.427  12.340  65.540  0.00  0.00    -0.035 C 
ATOM     77  C27 non d ame     -12.472  12.611  64.722  0.00  0.00     0.085 C 
ATOM     78  H38 non d ame     -11.777  11.491  66.127  0.00  0.00     0.036 H 
ATOM     79  H39 non d ame     -11.230  13.295  66.027  0.00  0.00     0.036 H 
ATOM     80  N5  non d ame     -12.112  12.081  63.355  0.00  0.00    -0.049 N 
ATOM     81  H40 non d ame     -13.309  12.036  65.117  0.00  0.00     0.075 H 
ATOM     82  H41 non d ame     -12.531  13.698  64.676  0.00  0.00     0.075 H 
ATOM     83  C28 non d ame     -10.524  11.793  63.395  0.00  0.00     0.193 C 
ATOM     84  H42 non d ame     -12.596  11.200  63.253  0.00  0.00     0.280 HD
ATOM     85  H43 non d ame     -12.286  12.831  62.702  0.00  0.00     0.280 HD
ATOM     86  H44 non d ame      -9.825  12.474  62.908  0.00  0.00     0.129 H 
ATOM     87  H37 non d ame      -9.364  12.649  64.458  0.00  0.00     0.046 H 
BRANCH  83  88
ATOM     88  O6  non d ame     -10.243  10.503  62.849  0.00  0.00    -0.369 OA
ATOM     89  H45 non d ame      -9.587  10.586  62.153  0.00  0.00     0.212 HD
ENDBRANCH  83  88
ENDBRANCH  72  75
ENDBRANCH  47  72
ENDBRANCH  45  47
ENDBRANCH   1  43
BRANCH   1  90
ATOM     90  C16 non d ame      -6.140  12.573  69.425  0.00  0.00    -0.035 C 
ATOM     91  H21 non d ame      -5.806  13.418  70.028  0.00  0.00     0.037 H 
ATOM     92  H22 non d ame      -6.902  11.896  69.812  0.00  0.00     0.037 H 
BRANCH  90  93
ATOM     93  C17 non d ame      -4.874  11.701  69.148  0.00  0.00    -0.059 C 
ATOM     94  H23 non d ame      -4.119  11.970  69.886  0.00  0.00     0.038 H 
BRANCH  93  95
ATOM     95  C18 non d ame      -5.165  10.174  69.299  0.00  0.00    -0.073 C 
ATOM     96  H24 non d ame      -5.032   9.682  68.336  0.00  0.00     0.028 H 
ATOM     97  H25 non d ame      -4.477   9.743  70.027  0.00  0.00     0.028 H 
ATOM     98  H26 non d ame      -6.191  10.032  69.641  0.00  0.00     0.028 H 
ENDBRANCH  93  95
BRANCH  93  99
ATOM     99  C19 non d ame      -4.290  12.010  67.767  0.00  0.00    -0.073 C 
ATOM    100  H27 non d ame      -5.006  11.724  66.997  0.00  0.00     0.028 H 
ATOM    101  H28 non d ame      -4.081  13.077  67.691  0.00  0.00     0.028 H 
ATOM    102  H29 non d ame      -3.365  11.449  67.630  0.00  0.00     0.028 H 
ENDBRANCH  93  99
ENDBRANCH  90  93
ENDBRANCH   1  90
TORSDOF 26
ENDMDL
MODEL 8
REMARK VINA RESULT:      -6.4      2.565      3.564
REMARK  26 active torsions:
REMARK  status: ('A' for Active; 'I' for Inactive)
REMARK    1  A    between atoms: C2_2  and  C3_3 
REMARK    2  A    between atoms: C4_6  and  C5_7 
REMARK       I    between atoms: C5_7  and  N2_9 
REMARK    3  A    between atoms: N2_9  and  C6_10 
REMARK    4  A    between atoms: C6_10  and  C7_11 
REMARK    5  A    between atoms: C6_10  and  C8_13 
REMARK       I    between atoms: C7_11  and  N3_14 
REMARK    6  A    between atoms: N3_14  and  C9_15 
REMARK    7  A    between atoms: C9_15  and  C10_16 
REMARK    8  A    between atoms: C9_15  and  C11_18 
REMARK       I    between atoms: C10_16  and  N4_21 
REMARK    9  A    between atoms: C11_18  and  C12_19 
REMARK   10  A    between atoms: C11_18  and  C13_20 
REMARK   11  A    between atoms: N4_21  and  C14_22 
REMARK   12  A    between atoms: C14_22  and  C15_23 
REMARK   13  A    between atoms: C14_22  and  C16_25 
REMARK       I    between atoms: C15_23  and  N6_40 
REMARK   14  A    between atoms: C16_25  and  C17_26 
REMARK   15  A    between atoms: C17_26  and  C18_27 
REMARK   16  A    between atoms: C17_26  and  C19_28 
REMARK   17  A    between atoms: C20_29  and  C21_30 
REMARK   18  A    between atoms: C20_29  and  C24_33 
REMARK   19  A    between atoms: C20_29  and  N6_40 
REMARK   20  A    between atoms: C21_30  and  C22_31 
REMARK   21  A    between atoms: C22_31  and  C23_32 
REMARK   22  A    between atoms: C23_32  and  O8_43 
REMARK   23  A    between atoms: C24_33  and  C25_34 
REMARK   24  A    between atoms: C28_38  and  O6_39 
REMARK   25  A    between atoms: C29_42  and  O8_43 
REMARK   26  A    between atoms: C29_42  and  C35_49 
ROOT
ATOM      1  C14 non d ame      -9.092   6.971  66.202  0.00  0.00     0.089 C 
ATOM      2  H20 non d ame      -9.414   6.384  65.342  0.00  0.00     0.087 H 
ENDROOT
BRANCH   1   3
ATOM      3  N4  non d ame      -8.698   8.285  65.714  0.00  0.00    -0.346 N 
ATOM      4  C10 non d ame      -8.072   8.434  64.350  0.00  0.00     0.241 C 
ATOM      5  O4  non d ame      -7.893   7.481  63.665  0.00  0.00    -0.271 OA
ATOM      6  H19 non d ame      -8.857   9.082  66.314  0.00  0.00     0.163 HD
BRANCH   4   7
ATOM      7  C9  non d ame      -7.676   9.801  63.858  0.00  0.00     0.092 C 
ATOM      8  H11 non d ame      -7.799   9.842  62.776  0.00  0.00     0.088 H 
BRANCH   7   9
ATOM      9  N3  non d ame      -8.572  10.807  64.435  0.00  0.00    -0.346 N 
ATOM     10  C7  non d ame      -9.795  11.157  63.756  0.00  0.00     0.240 C 
ATOM     11  O3  non d ame     -10.073  10.639  62.743  0.00  0.00    -0.271 OA
ATOM     12  H10 non d ame      -8.345  11.263  65.307  0.00  0.00     0.163 HD
BRANCH  10  13
ATOM     13  C6  non d ame     -10.744  12.231  64.373  0.00  0.00     0.086 C 
ATOM     14  H6  non d ame     -11.134  11.939  65.348  0.00  0.00     0.086 H 
BRANCH  13  15
ATOM     15  N2  non d ame      -9.995  13.460  64.576  0.00  0.00    -0.343 N 
ATOM     16  C5  non d ame     -10.416  14.397  65.620  0.00  0.00     0.273 C 
ATOM     17  O2  non d ame     -11.359  14.153  66.290  0.00  0.00    -0.266 OA
ATOM     18  H5  non d ame      -9.192  13.661  63.997  0.00  0.00     0.163 HD
BRANCH  16  19
ATOM     19  C4  non d ame      -9.633  15.699  65.847  0.00  0.00     0.154 A 
ATOM     20  C1  non d ame      -8.314  15.833  66.386  0.00  0.00    -0.017 A 
ATOM     21  C2  non d ame      -8.060  17.223  66.385  0.00  0.00     0.077 A 
ATOM     22  H1  non d ame      -7.644  15.043  66.726  0.00  0.00     0.091 H 
ATOM     23  O1  non d ame      -9.115  17.809  65.899  0.00  0.00    -0.218 OA
ATOM     24  N1  non d ame     -10.046  16.941  65.578  0.00  0.00    -0.123 NA
BRANCH  21  25
ATOM     25  C3  non d ame      -6.786  17.907  66.864  0.00  0.00    -0.029 C 
ATOM     26  H2  non d ame      -6.895  18.987  66.767  0.00  0.00     0.036 H 
ATOM     27  H3  non d ame      -6.608  17.652  67.908  0.00  0.00     0.036 H 
ATOM     28  H4  non d ame      -5.943  17.570  66.259  0.00  0.00     0.036 H 
ENDBRANCH  21  25
ENDBRANCH  16  19
ENDBRANCH  13  15
BRANCH  13  29
ATOM     29  C8  non d ame     -11.902  12.479  63.440  0.00  0.00    -0.049 C 
ATOM     30  H7  non d ame     -12.701  12.988  63.979  0.00  0.00     0.030 H 
ATOM     31  H8  non d ame     -11.571  13.101  62.608  0.00  0.00     0.030 H 
ATOM     32  H9  non d ame     -12.270  11.527  63.058  0.00  0.00     0.030 H 
ENDBRANCH  13  29
ENDBRANCH  10  13
ENDBRANCH   7   9
BRANCH   7  33
ATOM     33  C11 non d ame      -6.212  10.104  64.293  0.00  0.00    -0.033 C 
ATOM     34  H12 non d ame      -6.109  11.186  64.368  0.00  0.00     0.042 H 
BRANCH  33  35
ATOM     35  C12 non d ame      -5.902   9.505  65.701  0.00  0.00    -0.071 C 
ATOM     36  H13 non d ame      -6.498  10.020  66.454  0.00  0.00     0.028 H 
ATOM     37  H14 non d ame      -6.148   8.444  65.706  0.00  0.00     0.028 H 
ATOM     38  H15 non d ame      -4.843   9.634  65.925  0.00  0.00     0.028 H 
ENDBRANCH  33  35
BRANCH  33  39
ATOM     39  C13 non d ame      -5.194   9.594  63.224  0.00  0.00    -0.071 C 
ATOM     40  H16 non d ame      -5.734   9.245  62.344  0.00  0.00     0.028 H 
ATOM     41  H17 non d ame      -4.526  10.408  62.940  0.00  0.00     0.028 H 
ATOM     42  H18 non d ame      -4.610   8.773  63.641  0.00  0.00     0.028 H 
ENDBRANCH  33  39
ENDBRANCH   7  33
ENDBRANCH   4   7
ENDBRANCH   1   3
BRANCH   1  43
ATOM     43  C15 non d ame     -10.230   7.153  67.248  0.00  0.00     0.240 C 
ATOM     44  O5  non d ame     -11.340   6.824  66.977  0.00  0.00    -0.271 OA
ATOM     45  N6  non d ame      -9.935   7.728  68.591  0.00  0.00    -0.355 N 
ATOM     46  H46 non d ame      -8.995   8.007  68.834  0.00  0.00     0.162 HD
BRANCH  45  47
ATOM     47  C20 non d ame     -11.027   7.893  69.574  0.00  0.00     0.013 C 
ATOM     48  H30 non d ame     -11.956   8.035  69.022  0.00  0.00     0.072 H 
BRANCH  47  49
ATOM     49  C21 non d ame     -10.746   9.104  70.434  0.00  0.00    -0.038 C 
ATOM     50  H31 non d ame     -11.689   9.339  70.929  0.00  0.00     0.036 H 
ATOM     51  H32 non d ame      -9.868   8.847  71.027  0.00  0.00     0.036 H 
BRANCH  49  52
ATOM     52  C22 non d ame     -10.365  10.351  69.608  0.00  0.00     0.018 C 
ATOM     53  H33 non d ame      -9.806  10.996  70.286  0.00  0.00     0.048 H 
ATOM     54  H34 non d ame      -9.891   9.972  68.702  0.00  0.00     0.048 H 
BRANCH  52  55
ATOM     55  C23 non d ame     -11.587  11.186  69.134  0.00  0.00     0.259 C 
ATOM     56  O7  non d ame     -12.016  11.056  68.033  0.00  0.00    -0.265 OA
BRANCH  55  57
ATOM     57  O8  non d ame     -12.183  12.119  70.027  0.00  0.00    -0.317 OA
BRANCH  57  58
ATOM     58  C29 non d ame     -11.830  13.481  69.767  0.00  0.00     0.052 C 
ATOM     59  H47 non d ame     -10.741  13.514  69.796  0.00  0.00     0.082 H 
ATOM     60  H48 non d ame     -12.360  13.753  68.855  0.00  0.00     0.082 H 
BRANCH  58  61
ATOM     61  C35 non d ame     -12.380  14.348  70.931  0.00  0.00    -0.034 A 
ATOM     62  C30 non d ame     -13.723  14.268  71.286  0.00  0.00    -0.075 A 
ATOM     63  C31 non d ame     -14.216  15.048  72.331  0.00  0.00    -0.082 A 
ATOM     64  H49 non d ame     -14.388  13.595  70.745  0.00  0.00     0.084 H 
ATOM     65  C32 non d ame     -13.362  15.912  73.021  0.00  0.00    -0.083 A 
ATOM     66  H50 non d ame     -15.269  14.981  72.608  0.00  0.00     0.083 H 
ATOM     67  C33 non d ame     -12.023  15.991  72.661  0.00  0.00    -0.082 A 
ATOM     68  H51 non d ame     -13.739  16.524  73.840  0.00  0.00     0.083 H 
ATOM     69  C34 non d ame     -11.525  15.212  71.619  0.00  0.00    -0.075 A 
ATOM     70  H52 non d ame     -11.360  16.667  73.200  0.00  0.00     0.083 H 
ATOM     71  H53 non d ame     -10.472  15.279  71.343  0.00  0.00     0.084 H 
ENDBRANCH  58  61
ENDBRANCH  57  58
ENDBRANCH  55  57
ENDBRANCH  52  55
ENDBRANCH  49  52
ENDBRANCH  47  49
BRANCH  47  72
ATOM     72  C24 non d ame     -11.119   6.650  70.457  0.00  0.00    -0.039 C 
ATOM     73  H35 non d ame     -11.395   7.017  71.446  0.00  0.00     0.036 H 
ATOM     74  H36 non d ame     -11.780   5.965  69.926  0.00  0.00     0.036 H 
BRANCH  72  75
ATOM     75  C25 non d ame      -9.700   5.920  70.602  0.00  0.00    -0.001 C 
ATOM     76  C26 non d ame      -9.775   4.415  69.944  0.00  0.00    -0.035 C 
ATOM     77  C27 non d ame      -9.310   3.520  70.847  0.00  0.00     0.085 C 
ATOM     78  H38 non d ame     -10.815   4.119  69.805  0.00  0.00     0.036 H 
ATOM     79  H39 non d ame      -9.070   4.333  69.117  0.00  0.00     0.036 H 
ATOM     80  N5  non d ame      -9.231   4.233  72.175  0.00  0.00    -0.049 N 
ATOM     81  H40 non d ame     -10.072   2.742  70.907  0.00  0.00     0.075 H 
ATOM     82  H41 non d ame      -8.301   3.271  70.518  0.00  0.00     0.075 H 
ATOM     83  C28 non d ame      -9.357   5.808  71.842  0.00  0.00     0.193 C 
ATOM     84  H42 non d ame     -10.045   3.950  72.701  0.00  0.00     0.280 HD
ATOM     85  H43 non d ame      -8.306   4.056  72.541  0.00  0.00     0.280 HD
ATOM     86  H44 non d ame      -8.477   6.451  71.862  0.00  0.00     0.129 H 
ATOM     87  H37 non d ame      -8.874   6.558  70.288  0.00  0.00     0.046 H 
BRANCH  83  88
ATOM     88  O6  non d ame     -10.300   6.424  72.720  0.00  0.00    -0.369 OA
ATOM     89  H45 non d ame     -10.949   5.774  73.000  0.00  0.00     0.212 HD
ENDBRANCH  83  88
ENDBRANCH  72  75
ENDBRANCH  47  72
ENDBRANCH  45  47
ENDBRANCH   1  43
BRANCH   1  90
ATOM     90  C16 non d ame      -7.894   6.307  66.861  0.00  0.00    -0.035 C 
ATOM     91  H21 non d ame      -7.050   6.966  66.657  0.00  0.00     0.037 H 
ATOM     92  H22 non d ame      -8.199   6.116  67.890  0.00  0.00     0.037 H 
BRANCH  90  93
ATOM     93  C17 non d ame      -7.530   4.919  66.244  0.00  0.00    -0.059 C 
ATOM     94  H23 non d ame      -7.502   5.035  65.161  0.00  0.00     0.038 H 
BRANCH  93  95
ATOM     95  C18 non d ame      -6.123   4.420  66.706  0.00  0.00    -0.073 C 
ATOM     96  H24 non d ame      -6.221   3.439  67.170  0.00  0.00     0.028 H 
ATOM     97  H25 non d ame      -5.462   4.349  65.842  0.00  0.00     0.028 H 
ATOM     98  H26 non d ame      -5.707   5.124  67.426  0.00  0.00     0.028 H 
ENDBRANCH  93  95
BRANCH  93  99
ATOM     99  C19 non d ame      -8.608   3.880  66.562  0.00  0.00    -0.073 C 
ATOM    100  H27 non d ame      -9.165   4.192  67.447  0.00  0.00     0.028 H 
ATOM    101  H28 non d ame      -9.290   3.793  65.716  0.00  0.00     0.028 H 
ATOM    102  H29 non d ame      -8.138   2.914  66.750  0.00  0.00     0.028 H 
ENDBRANCH  93  99
ENDBRANCH  90  93
ENDBRANCH   1  90
TORSDOF 26
ENDMDL
MODEL 9
REMARK VINA RESULT:      -6.3      2.952      9.752
REMARK  26 active torsions:
REMARK  status: ('A' for Active; 'I' for Inactive)
REMARK    1  A    between atoms: C2_2  and  C3_3 
REMARK    2  A    between atoms: C4_6  and  C5_7 
REMARK       I    between atoms: C5_7  and  N2_9 
REMARK    3  A    between atoms: N2_9  and  C6_10 
REMARK    4  A    between atoms: C6_10  and  C7_11 
REMARK    5  A    between atoms: C6_10  and  C8_13 
REMARK       I    between atoms: C7_11  and  N3_14 
REMARK    6  A    between atoms: N3_14  and  C9_15 
REMARK    7  A    between atoms: C9_15  and  C10_16 
REMARK    8  A    between atoms: C9_15  and  C11_18 
REMARK       I    between atoms: C10_16  and  N4_21 
REMARK    9  A    between atoms: C11_18  and  C12_19 
REMARK   10  A    between atoms: C11_18  and  C13_20 
REMARK   11  A    between atoms: N4_21  and  C14_22 
REMARK   12  A    between atoms: C14_22  and  C15_23 
REMARK   13  A    between atoms: C14_22  and  C16_25 
REMARK       I    between atoms: C15_23  and  N6_40 
REMARK   14  A    between atoms: C16_25  and  C17_26 
REMARK   15  A    between atoms: C17_26  and  C18_27 
REMARK   16  A    between atoms: C17_26  and  C19_28 
REMARK   17  A    between atoms: C20_29  and  C21_30 
REMARK   18  A    between atoms: C20_29  and  C24_33 
REMARK   19  A    between atoms: C20_29  and  N6_40 
REMARK   20  A    between atoms: C21_30  and  C22_31 
REMARK   21  A    between atoms: C22_31  and  C23_32 
REMARK   22  A    between atoms: C23_32  and  O8_43 
REMARK   23  A    between atoms: C24_33  and  C25_34 
REMARK   24  A    between atoms: C28_38  and  O6_39 
REMARK   25  A    between atoms: C29_42  and  O8_43 
REMARK   26  A    between atoms: C29_42  and  C35_49 
ROOT
ATOM      1  C14 non d ame     -10.161  10.470  67.917  0.00  0.00     0.089 C 
ATOM      2  H20 non d ame      -9.242  10.514  68.501  0.00  0.00     0.087 H 
ENDROOT
BRANCH   1   3
ATOM      3  N4  non d ame     -10.732   9.144  68.099  0.00  0.00    -0.346 N 
ATOM      4  C10 non d ame     -10.112   8.175  69.074  0.00  0.00     0.241 C 
ATOM      5  O4  non d ame      -9.152   8.484  69.699  0.00  0.00    -0.271 OA
ATOM      6  H19 non d ame     -11.548   8.899  67.555  0.00  0.00     0.163 HD
BRANCH   4   7
ATOM      7  C9  non d ame     -10.720   6.808  69.253  0.00  0.00     0.092 C 
ATOM      8  H11 non d ame     -11.751   6.825  68.900  0.00  0.00     0.088 H 
BRANCH   7   9
ATOM      9  N3  non d ame      -9.994   5.838  68.428  0.00  0.00    -0.346 N 
ATOM     10  C7  non d ame     -10.354   5.659  67.043  0.00  0.00     0.240 C 
ATOM     11  O3  non d ame     -11.226   6.286  66.577  0.00  0.00    -0.271 OA
ATOM     12  H10 non d ame      -9.241   5.289  68.816  0.00  0.00     0.163 HD
BRANCH  10  13
ATOM     13  C6  non d ame      -9.580   4.623  66.170  0.00  0.00     0.086 C 
ATOM     14  H6  non d ame     -10.124   4.340  65.269  0.00  0.00     0.086 H 
BRANCH  13  15
ATOM     15  N2  non d ame      -8.328   5.217  65.731  0.00  0.00    -0.343 N 
ATOM     16  C5  non d ame      -8.084   5.410  64.300  0.00  0.00     0.273 C 
ATOM     17  O2  non d ame      -8.900   5.081  63.510  0.00  0.00    -0.266 OA
ATOM     18  H5  non d ame      -7.636   5.493  66.413  0.00  0.00     0.163 HD
BRANCH  16  19
ATOM     19  C4  non d ame      -6.766   6.039  63.821  0.00  0.00     0.154 A 
ATOM     20  C1  non d ame      -6.245   7.325  64.172  0.00  0.00    -0.017 A 
ATOM     21  C2  non d ame      -5.020   7.423  63.475  0.00  0.00     0.077 A 
ATOM     22  H1  non d ame      -6.687   8.072  64.831  0.00  0.00     0.091 H 
ATOM     23  O1  non d ame      -4.865   6.317  62.806  0.00  0.00    -0.218 OA
ATOM     24  N1  non d ame      -5.872   5.494  62.992  0.00  0.00    -0.123 NA
BRANCH  21  25
ATOM     25  C3  non d ame      -4.059   8.603  63.502  0.00  0.00    -0.029 C 
ATOM     26  H2  non d ame      -4.250   9.248  62.643  0.00  0.00     0.036 H 
ATOM     27  H3  non d ame      -4.205   9.170  64.421  0.00  0.00     0.036 H 
ATOM     28  H4  non d ame      -3.032   8.238  63.460  0.00  0.00     0.036 H 
ENDBRANCH  21  25
ENDBRANCH  16  19
ENDBRANCH  13  15
BRANCH  13  29
ATOM     29  C8  non d ame      -9.306   3.383  66.982  0.00  0.00    -0.049 C 
ATOM     30  H7  non d ame      -8.863   2.619  66.342  0.00  0.00     0.030 H 
ATOM     31  H8  non d ame      -8.616   3.623  67.791  0.00  0.00     0.030 H 
ATOM     32  H9  non d ame     -10.240   3.008  67.400  0.00  0.00     0.030 H 
ENDBRANCH  13  29
ENDBRANCH  10  13
ENDBRANCH   7   9
BRANCH   7  33
ATOM     33  C11 non d ame     -10.620   6.389  70.749  0.00  0.00    -0.033 C 
ATOM     34  H12 non d ame      -9.878   7.032  71.222  0.00  0.00     0.042 H 
BRANCH  33  35
ATOM     35  C12 non d ame     -11.974   6.610  71.493  0.00  0.00    -0.071 C 
ATOM     36  H13 non d ame     -12.243   5.704  72.036  0.00  0.00     0.028 H 
ATOM     37  H14 non d ame     -11.872   7.437  72.195  0.00  0.00     0.028 H 
ATOM     38  H15 non d ame     -12.753   6.844  70.767  0.00  0.00     0.028 H 
ENDBRANCH  33  35
BRANCH  33  39
ATOM     39  C13 non d ame     -10.135   4.910  70.885  0.00  0.00    -0.071 C 
ATOM     40  H16 non d ame      -9.220   4.774  70.310  0.00  0.00     0.028 H 
ATOM     41  H17 non d ame      -9.942   4.685  71.934  0.00  0.00     0.028 H 
ATOM     42  H18 non d ame     -10.906   4.239  70.506  0.00  0.00     0.028 H 
ENDBRANCH  33  39
ENDBRANCH   7  33
ENDBRANCH   4   7
ENDBRANCH   1   3
BRANCH   1  43
ATOM     43  C15 non d ame     -11.204  11.526  68.382  0.00  0.00     0.240 C 
ATOM     44  O5  non d ame     -12.360  11.248  68.401  0.00  0.00    -0.271 OA
ATOM     45  N6  non d ame     -10.762  12.883  68.813  0.00  0.00    -0.355 N 
ATOM     46  H46 non d ame      -9.783  13.130  68.806  0.00  0.00     0.162 HD
BRANCH  45  47
ATOM     47  C20 non d ame     -11.766  13.876  69.254  0.00  0.00     0.013 C 
ATOM     48  H30 non d ame     -12.671  13.336  69.532  0.00  0.00     0.072 H 
BRANCH  47  49
ATOM     49  C21 non d ame     -12.060  14.828  68.117  0.00  0.00    -0.038 C 
ATOM     50  H31 non d ame     -12.111  14.209  67.220  0.00  0.00     0.036 H 
ATOM     51  H32 non d ame     -12.930  15.403  68.433  0.00  0.00     0.036 H 
BRANCH  49  52
ATOM     52  C22 non d ame     -10.924  15.847  67.880  0.00  0.00     0.018 C 
ATOM     53  H33 non d ame     -11.413  16.817  67.784  0.00  0.00     0.048 H 
ATOM     54  H34 non d ame     -10.203  15.677  68.679  0.00  0.00     0.048 H 
BRANCH  52  55
ATOM     55  C23 non d ame     -10.151  15.625  66.551  0.00  0.00     0.259 C 
ATOM     56  O7  non d ame     -10.089  14.543  66.062  0.00  0.00    -0.265 OA
BRANCH  55  57
ATOM     57  O8  non d ame      -9.504  16.728  65.928  0.00  0.00    -0.317 OA
BRANCH  57  58
ATOM     58  C29 non d ame      -9.992  18.004  66.352  0.00  0.00     0.052 C 
ATOM     59  H47 non d ame     -10.311  18.514  65.443  0.00  0.00     0.082 H 
ATOM     60  H48 non d ame     -10.713  17.797  67.142  0.00  0.00     0.082 H 
BRANCH  58  61
ATOM     61  C35 non d ame      -8.804  18.792  66.966  0.00  0.00    -0.034 A 
ATOM     62  C30 non d ame      -8.436  18.577  68.290  0.00  0.00    -0.075 A 
ATOM     63  C31 non d ame      -7.369  19.285  68.842  0.00  0.00    -0.082 A 
ATOM     64  H49 non d ame      -8.983  17.854  68.895  0.00  0.00     0.084 H 
ATOM     65  C32 non d ame      -6.671  20.212  68.064  0.00  0.00    -0.083 A 
ATOM     66  H50 non d ame      -7.081  19.112  69.879  0.00  0.00     0.083 H 
ATOM     67  C33 non d ame      -7.044  20.426  66.744  0.00  0.00    -0.082 A 
ATOM     68  H51 non d ame      -5.835  20.770  68.488  0.00  0.00     0.083 H 
ATOM     69  C34 non d ame      -8.108  19.719  66.188  0.00  0.00    -0.075 A 
ATOM     70  H52 non d ame      -6.498  21.152  66.141  0.00  0.00     0.083 H 
ATOM     71  H53 non d ame      -8.394  19.892  65.150  0.00  0.00     0.084 H 
ENDBRANCH  58  61
ENDBRANCH  57  58
ENDBRANCH  55  57
ENDBRANCH  52  55
ENDBRANCH  49  52
ENDBRANCH  47  49
BRANCH  47  72
ATOM     72  C24 non d ame     -11.227  14.659  70.449  0.00  0.00    -0.039 C 
ATOM     73  H35 non d ame     -10.259  14.211  70.677  0.00  0.00     0.036 H 
ATOM     74  H36 non d ame     -11.286  15.708  70.159  0.00  0.00     0.036 H 
BRANCH  72  75
ATOM     75  C25 non d ame     -12.151  14.474  71.745  0.00  0.00    -0.001 C 
ATOM     76  C26 non d ame     -13.617  13.874  71.305  0.00  0.00    -0.035 C 
ATOM     77  C27 non d ame     -14.586  14.654  71.841  0.00  0.00     0.085 C 
ATOM     78  H38 non d ame     -13.762  13.989  70.231  0.00  0.00     0.036 H 
ATOM     79  H39 non d ame     -13.781  12.904  71.776  0.00  0.00     0.036 H 
ATOM     80  N5  non d ame     -13.917  15.915  72.332  0.00  0.00    -0.049 N 
ATOM     81  H40 non d ame     -15.251  14.903  71.013  0.00  0.00     0.075 H 
ATOM     82  H41 non d ame     -14.967  14.098  72.697  0.00  0.00     0.075 H 
ATOM     83  C28 non d ame     -12.334  15.598  72.353  0.00  0.00     0.193 C 
ATOM     84  H42 non d ame     -14.094  16.623  71.634  0.00  0.00     0.280 HD
ATOM     85  H43 non d ame     -14.229  16.053  73.282  0.00  0.00     0.280 HD
ATOM     86  H44 non d ame     -11.821  15.400  73.294  0.00  0.00     0.129 H 
ATOM     87  H37 non d ame     -11.629  13.964  72.555  0.00  0.00     0.046 H 
BRANCH  83  88
ATOM     88  O6  non d ame     -11.610  16.667  71.740  0.00  0.00    -0.369 OA
ATOM     89  H45 non d ame     -10.981  17.028  72.369  0.00  0.00     0.212 HD
ENDBRANCH  83  88
ENDBRANCH  72  75
ENDBRANCH  47  72
ENDBRANCH  45  47
ENDBRANCH   1  43
BRANCH   1  90
ATOM     90  C16 non d ame      -9.846  10.677  66.444  0.00  0.00    -0.035 C 
ATOM     91  H21 non d ame     -10.778  10.467  65.917  0.00  0.00     0.037 H 
ATOM     92  H22 non d ame      -9.397  11.668  66.382  0.00  0.00     0.037 H 
BRANCH  90  93
ATOM     93  C17 non d ame      -8.787   9.676  65.883  0.00  0.00    -0.059 C 
ATOM     94  H23 non d ame      -8.973   8.705  66.344  0.00  0.00     0.038 H 
BRANCH  93  95
ATOM     95  C18 non d ame      -8.905   9.499  64.335  0.00  0.00    -0.073 C 
ATOM     96  H24 non d ame      -9.356  10.391  63.902  0.00  0.00     0.028 H 
ATOM     97  H25 non d ame      -7.912   9.350  63.910  0.00  0.00     0.028 H 
ATOM     98  H26 non d ame      -9.528   8.632  64.115  0.00  0.00     0.028 H 
ENDBRANCH  93  95
BRANCH  93  99
ATOM     99  C19 non d ame      -7.370  10.101  66.277  0.00  0.00    -0.073 C 
ATOM    100  H27 non d ame      -7.312  10.215  67.360  0.00  0.00     0.028 H 
ATOM    101  H28 non d ame      -6.659   9.341  65.952  0.00  0.00     0.028 H 
ATOM    102  H29 non d ame      -7.130  11.050  65.798  0.00  0.00     0.028 H 
ENDBRANCH  93  99
ENDBRANCH  90  93
ENDBRANCH   1  90
TORSDOF 26
ENDMDL
MODEL 10
REMARK VINA RESULT:      -6.2      2.522      5.775
REMARK  26 active torsions:
REMARK  status: ('A' for Active; 'I' for Inactive)
REMARK    1  A    between atoms: C2_2  and  C3_3 
REMARK    2  A    between atoms: C4_6  and  C5_7 
REMARK       I    between atoms: C5_7  and  N2_9 
REMARK    3  A    between atoms: N2_9  and  C6_10 
REMARK    4  A    between atoms: C6_10  and  C7_11 
REMARK    5  A    between atoms: C6_10  and  C8_13 
REMARK       I    between atoms: C7_11  and  N3_14 
REMARK    6  A    between atoms: N3_14  and  C9_15 
REMARK    7  A    between atoms: C9_15  and  C10_16 
REMARK    8  A    between atoms: C9_15  and  C11_18 
REMARK       I    between atoms: C10_16  and  N4_21 
REMARK    9  A    between atoms: C11_18  and  C12_19 
REMARK   10  A    between atoms: C11_18  and  C13_20 
REMARK   11  A    between atoms: N4_21  and  C14_22 
REMARK   12  A    between atoms: C14_22  and  C15_23 
REMARK   13  A    between atoms: C14_22  and  C16_25 
REMARK       I    between atoms: C15_23  and  N6_40 
REMARK   14  A    between atoms: C16_25  and  C17_26 
REMARK   15  A    between atoms: C17_26  and  C18_27 
REMARK   16  A    between atoms: C17_26  and  C19_28 
REMARK   17  A    between atoms: C20_29  and  C21_30 
REMARK   18  A    between atoms: C20_29  and  C24_33 
REMARK   19  A    between atoms: C20_29  and  N6_40 
REMARK   20  A    between atoms: C21_30  and  C22_31 
REMARK   21  A    between atoms: C22_31  and  C23_32 
REMARK   22  A    between atoms: C23_32  and  O8_43 
REMARK   23  A    between atoms: C24_33  and  C25_34 
REMARK   24  A    between atoms: C28_38  and  O6_39 
REMARK   25  A    between atoms: C29_42  and  O8_43 
REMARK   26  A    between atoms: C29_42  and  C35_49 
ROOT
ATOM      1  C14 non d ame     -10.331  10.925  64.630  0.00  0.00     0.089 C 
ATOM      2  H20 non d ame     -11.376  10.622  64.703  0.00  0.00     0.087 H 
ENDROOT
BRANCH   1   3
ATOM      3  N4  non d ame      -9.813  11.039  65.986  0.00  0.00    -0.346 N 
ATOM      4  C10 non d ame     -10.752  11.272  67.143  0.00  0.00     0.241 C 
ATOM      5  O4  non d ame     -11.920  11.367  66.958  0.00  0.00    -0.271 OA
ATOM      6  H19 non d ame      -8.815  10.958  66.121  0.00  0.00     0.163 HD
BRANCH   4   7
ATOM      7  C9  non d ame     -10.198  11.382  68.539  0.00  0.00     0.092 C 
ATOM      8  H11 non d ame      -9.114  11.276  68.505  0.00  0.00     0.088 H 
BRANCH   7   9
ATOM      9  N3  non d ame     -10.486  12.716  69.076  0.00  0.00    -0.346 N 
ATOM     10  C7  non d ame      -9.951  13.886  68.422  0.00  0.00     0.240 C 
ATOM     11  O3  non d ame      -9.287  13.772  67.466  0.00  0.00    -0.271 OA
ATOM     12  H10 non d ame     -11.056  12.830  69.901  0.00  0.00     0.163 HD
BRANCH  10  13
ATOM     13  C6  non d ame     -10.258  15.303  69.000  0.00  0.00     0.086 C 
ATOM     14  H6  non d ame      -9.758  15.488  69.950  0.00  0.00     0.086 H 
BRANCH  13  15
ATOM     15  N2  non d ame      -9.770  16.307  68.069  0.00  0.00    -0.343 N 
ATOM     16  C5  non d ame      -8.442  16.891  68.270  0.00  0.00     0.273 C 
ATOM     17  O2  non d ame      -7.776  16.549  69.185  0.00  0.00    -0.266 OA
ATOM     18  H5  non d ame     -10.346  16.595  67.291  0.00  0.00     0.163 HD
BRANCH  16  19
ATOM     19  C4  non d ame      -7.912  17.953  67.294  0.00  0.00     0.154 A 
ATOM     20  C1  non d ame      -7.143  19.116  67.615  0.00  0.00    -0.017 A 
ATOM     21  C2  non d ame      -6.912  19.753  66.375  0.00  0.00     0.077 A 
ATOM     22  H1  non d ame      -6.803  19.447  68.596  0.00  0.00     0.091 H 
ATOM     23  O1  non d ame      -7.485  19.031  65.456  0.00  0.00    -0.218 OA
ATOM     24  N1  non d ame      -8.075  17.976  65.968  0.00  0.00    -0.123 NA
BRANCH  21  25
ATOM     25  C3  non d ame      -6.136  21.044  66.155  0.00  0.00    -0.029 C 
ATOM     26  H2  non d ame      -6.831  21.851  65.921  0.00  0.00     0.036 H 
ATOM     27  H3  non d ame      -5.582  21.293  67.060  0.00  0.00     0.036 H 
ATOM     28  H4  non d ame      -5.439  20.914  65.327  0.00  0.00     0.036 H 
ENDBRANCH  21  25
ENDBRANCH  16  19
ENDBRANCH  13  15
BRANCH  13  29
ATOM     29  C8  non d ame     -11.745  15.458  69.193  0.00  0.00    -0.049 C 
ATOM     30  H7  non d ame     -12.116  14.650  69.823  0.00  0.00     0.030 H 
ATOM     31  H8  non d ame     -11.951  16.415  69.672  0.00  0.00     0.030 H 
ATOM     32  H9  non d ame     -12.243  15.420  68.225  0.00  0.00     0.030 H 
ENDBRANCH  13  29
ENDBRANCH  10  13
ENDBRANCH   7   9
BRANCH   7  33
ATOM     33  C11 non d ame     -10.864  10.307  69.447  0.00  0.00    -0.033 C 
ATOM     34  H12 non d ame     -11.355   9.584  68.795  0.00  0.00     0.042 H 
BRANCH  33  35
ATOM     35  C12 non d ame      -9.800   9.534  70.287  0.00  0.00    -0.071 C 
ATOM     36  H13 non d ame      -9.501  10.141  71.142  0.00  0.00     0.028 H 
ATOM     37  H14 non d ame     -10.227   8.596  70.640  0.00  0.00     0.028 H 
ATOM     38  H15 non d ame      -8.929   9.326  69.666  0.00  0.00     0.028 H 
ENDBRANCH  33  35
BRANCH  33  39
ATOM     39  C13 non d ame     -11.954  10.947  70.365  0.00  0.00    -0.071 C 
ATOM     40  H16 non d ame     -12.278  10.218  71.107  0.00  0.00     0.028 H 
ATOM     41  H17 non d ame     -11.537  11.819  70.871  0.00  0.00     0.028 H 
ATOM     42  H18 non d ame     -12.806  11.252  69.758  0.00  0.00     0.028 H 
ENDBRANCH  33  39
ENDBRANCH   7  33
ENDBRANCH   4   7
ENDBRANCH   1   3
BRANCH   1  43
ATOM     43  C15 non d ame      -9.471   9.885  63.857  0.00  0.00     0.240 C 
ATOM     44  O5  non d ame      -9.274  10.029  62.694  0.00  0.00    -0.271 OA
ATOM     45  N6  non d ame      -8.886   8.713  64.569  0.00  0.00    -0.355 N 
ATOM     46  H46 non d ame      -9.042   8.583  65.558  0.00  0.00     0.162 HD
BRANCH  45  47
ATOM     47  C20 non d ame      -8.069   7.734  63.820  0.00  0.00     0.013 C 
ATOM     48  H30 non d ame      -8.690   7.316  63.028  0.00  0.00     0.072 H 
BRANCH  47  49
ATOM     49  C21 non d ame      -7.620   6.637  64.758  0.00  0.00    -0.038 C 
ATOM     50  H31 non d ame      -7.860   5.701  64.254  0.00  0.00     0.036 H 
ATOM     51  H32 non d ame      -6.585   6.870  65.011  0.00  0.00     0.036 H 
BRANCH  49  52
ATOM     52  C22 non d ame      -8.402   6.628  66.089  0.00  0.00     0.018 C 
ATOM     53  H33 non d ame      -7.659   6.457  66.868  0.00  0.00     0.048 H 
ATOM     54  H34 non d ame      -8.992   7.546  66.091  0.00  0.00     0.048 H 
BRANCH  52  55
ATOM     55  C23 non d ame      -9.424   5.463  66.208  0.00  0.00     0.259 C 
ATOM     56  O7  non d ame      -9.480   4.622  65.370  0.00  0.00    -0.265 OA
BRANCH  55  57
ATOM     57  O8  non d ame     -10.303   5.418  67.325  0.00  0.00    -0.317 OA
BRANCH  57  58
ATOM     58  C29 non d ame      -9.743   4.789  68.482  0.00  0.00     0.052 C 
ATOM     59  H47 non d ame     -10.023   3.738  68.410  0.00  0.00     0.082 H 
ATOM     60  H48 non d ame      -8.691   5.073  68.492  0.00  0.00     0.082 H 
BRANCH  58  61
ATOM     61  C35 non d ame     -10.427   5.395  69.736  0.00  0.00    -0.034 A 
ATOM     62  C30 non d ame     -11.458   6.318  69.589  0.00  0.00    -0.075 A 
ATOM     63  C31 non d ame     -12.072   6.863  70.715  0.00  0.00    -0.082 A 
ATOM     64  H49 non d ame     -11.785   6.613  68.592  0.00  0.00     0.084 H 
ATOM     65  C32 non d ame     -11.650   6.484  71.993  0.00  0.00    -0.083 A 
ATOM     66  H50 non d ame     -12.882   7.584  70.597  0.00  0.00     0.083 H 
ATOM     67  C33 non d ame     -10.619   5.566  72.134  0.00  0.00    -0.082 A 
ATOM     68  H51 non d ame     -12.126   6.905  72.879  0.00  0.00     0.083 H 
ATOM     69  C34 non d ame     -10.004   5.017  71.011  0.00  0.00    -0.075 A 
ATOM     70  H52 non d ame     -10.291   5.274  73.132  0.00  0.00     0.083 H 
ATOM     71  H53 non d ame      -9.195   4.295  71.130  0.00  0.00     0.084 H 
ENDBRANCH  58  61
ENDBRANCH  57  58
ENDBRANCH  55  57
ENDBRANCH  52  55
ENDBRANCH  49  52
ENDBRANCH  47  49
BRANCH  47  72
ATOM     72  C24 non d ame      -6.846   8.429  63.225  0.00  0.00    -0.039 C 
ATOM     73  H35 non d ame      -6.465   7.746  62.465  0.00  0.00     0.036 H 
ATOM     74  H36 non d ame      -7.187   9.424  62.941  0.00  0.00     0.036 H 
BRANCH  72  75
ATOM     75  C25 non d ame      -5.685   8.620  64.313  0.00  0.00    -0.001 C 
ATOM     76  C26 non d ame      -5.681  10.170  64.861  0.00  0.00    -0.035 C 
ATOM     77  C27 non d ame      -4.423  10.664  64.761  0.00  0.00     0.085 C 
ATOM     78  H38 non d ame      -6.258  10.805  64.190  0.00  0.00     0.036 H 
ATOM     79  H39 non d ame      -5.878  10.189  65.933  0.00  0.00     0.036 H 
ATOM     80  N5  non d ame      -3.640   9.708  63.894  0.00  0.00    -0.049 N 
ATOM     81  H40 non d ame      -4.525  11.616  64.239  0.00  0.00     0.075 H 
ATOM     82  H41 non d ame      -4.020  10.638  65.773  0.00  0.00     0.075 H 
ATOM     83  C28 non d ame      -4.525   8.360  63.809  0.00  0.00     0.193 C 
ATOM     84  H42 non d ame      -3.598  10.124  62.975  0.00  0.00     0.280 HD
ATOM     85  H43 non d ame      -2.788   9.501  64.395  0.00  0.00     0.280 HD
ATOM     86  H44 non d ame      -4.249   7.479  64.389  0.00  0.00     0.129 H 
ATOM     87  H37 non d ame      -5.688   7.829  65.063  0.00  0.00     0.046 H 
BRANCH  83  88
ATOM     88  O6  non d ame      -4.613   7.914  62.455  0.00  0.00    -0.369 OA
ATOM     89  H45 non d ame      -3.891   7.310  62.269  0.00  0.00     0.212 HD
ENDBRANCH  83  88
ENDBRANCH  72  75
ENDBRANCH  47  72
ENDBRANCH  45  47
ENDBRANCH   1  43
BRANCH   1  90
ATOM     90  C16 non d ame     -10.234  12.279  63.946  0.00  0.00    -0.035 C 
ATOM     91  H21 non d ame      -9.782  12.943  64.683  0.00  0.00     0.037 H 
ATOM     92  H22 non d ame      -9.725  12.089  63.001  0.00  0.00     0.037 H 
BRANCH  90  93
ATOM     93  C17 non d ame     -11.620  12.900  63.584  0.00  0.00    -0.059 C 
ATOM     94  H23 non d ame     -11.521  13.389  62.615  0.00  0.00     0.038 H 
BRANCH  93  95
ATOM     95  C18 non d ame     -12.737  11.814  63.457  0.00  0.00    -0.073 C 
ATOM     96  H24 non d ame     -13.413  11.888  64.309  0.00  0.00     0.028 H 
ATOM     97  H25 non d ame     -13.296  11.974  62.535  0.00  0.00     0.028 H 
ATOM     98  H26 non d ame     -12.281  10.824  63.439  0.00  0.00     0.028 H 
ENDBRANCH  93  95
BRANCH  93  99
ATOM     99  C19 non d ame     -12.019  13.975  64.598  0.00  0.00    -0.073 C 
ATOM    100  H27 non d ame     -11.372  14.845  64.479  0.00  0.00     0.028 H 
ATOM    101  H28 non d ame     -13.056  14.267  64.428  0.00  0.00     0.028 H 
ATOM    102  H29 non d ame     -11.914  13.580  65.608  0.00  0.00     0.028 H 
ENDBRANCH  93  99
ENDBRANCH  90  93
ENDBRANCH   1  90
TORSDOF 26
ENDMDL
MODEL 11
REMARK VINA RESULT:      -6.2      2.253      5.725
REMARK  26 active torsions:
REMARK  status: ('A' for Active; 'I' for Inactive)
REMARK    1  A    between atoms: C2_2  and  C3_3 
REMARK    2  A    between atoms: C4_6  and  C5_7 
REMARK       I    between atoms: C5_7  and  N2_9 
REMARK    3  A    between atoms: N2_9  and  C6_10 
REMARK    4  A    between atoms: C6_10  and  C7_11 
REMARK    5  A    between atoms: C6_10  and  C8_13 
REMARK       I    between atoms: C7_11  and  N3_14 
REMARK    6  A    between atoms: N3_14  and  C9_15 
REMARK    7  A    between atoms: C9_15  and  C10_16 
REMARK    8  A    between atoms: C9_15  and  C11_18 
REMARK       I    between atoms: C10_16  and  N4_21 
REMARK    9  A    between atoms: C11_18  and  C12_19 
REMARK   10  A    between atoms: C11_18  and  C13_20 
REMARK   11  A    between atoms: N4_21  and  C14_22 
REMARK   12  A    between atoms: C14_22  and  C15_23 
REMARK   13  A    between atoms: C14_22  and  C16_25 
REMARK       I    between atoms: C15_23  and  N6_40 
REMARK   14  A    between atoms: C16_25  and  C17_26 
REMARK   15  A    between atoms: C17_26  and  C18_27 
REMARK   16  A    between atoms: C17_26  and  C19_28 
REMARK   17  A    between atoms: C20_29  and  C21_30 
REMARK   18  A    between atoms: C20_29  and  C24_33 
REMARK   19  A    between atoms: C20_29  and  N6_40 
REMARK   20  A    between atoms: C21_30  and  C22_31 
REMARK   21  A    between atoms: C22_31  and  C23_32 
REMARK   22  A    between atoms: C23_32  and  O8_43 
REMARK   23  A    between atoms: C24_33  and  C25_34 
REMARK   24  A    between atoms: C28_38  and  O6_39 
REMARK   25  A    between atoms: C29_42  and  O8_43 
REMARK   26  A    between atoms: C29_42  and  C35_49 
ROOT
ATOM      1  C14 non d ame      -7.766   9.164  66.687  0.00  0.00     0.089 C 
ATOM      2  H20 non d ame      -7.433   9.126  65.649  0.00  0.00     0.087 H 
ENDROOT
BRANCH   1   3
ATOM      3  N4  non d ame      -8.913  10.057  66.746  0.00  0.00    -0.346 N 
ATOM      4  C10 non d ame      -9.630  10.462  65.482  0.00  0.00     0.241 C 
ATOM      5  O4  non d ame      -9.262  10.058  64.429  0.00  0.00    -0.271 OA
ATOM      6  H19 non d ame      -9.209  10.392  67.652  0.00  0.00     0.163 HD
BRANCH   4   7
ATOM      7  C9  non d ame     -10.819  11.383  65.563  0.00  0.00     0.092 C 
ATOM      8  H11 non d ame     -11.699  10.808  65.852  0.00  0.00     0.088 H 
BRANCH   7   9
ATOM      9  N3  non d ame     -10.593  12.384  66.610  0.00  0.00    -0.346 N 
ATOM     10  C7  non d ame     -11.298  12.287  67.864  0.00  0.00     0.240 C 
ATOM     11  O3  non d ame     -12.053  11.411  68.047  0.00  0.00    -0.271 OA
ATOM     12  H10 non d ame      -9.946  13.146  66.466  0.00  0.00     0.163 HD
BRANCH  10  13
ATOM     13  C6  non d ame     -11.056  13.357  68.973  0.00  0.00     0.086 C 
ATOM     14  H6  non d ame     -10.130  13.191  69.524  0.00  0.00     0.086 H 
BRANCH  13  15
ATOM     15  N2  non d ame     -10.940  14.665  68.349  0.00  0.00    -0.343 N 
ATOM     16  C5  non d ame      -9.642  15.107  67.836  0.00  0.00     0.273 C 
ATOM     17  O2  non d ame      -8.696  14.404  67.932  0.00  0.00    -0.266 OA
ATOM     18  H5  non d ame     -11.753  15.260  68.274  0.00  0.00     0.163 HD
BRANCH  16  19
ATOM     19  C4  non d ame      -9.505  16.486  67.173  0.00  0.00     0.154 A 
ATOM     20  C1  non d ame     -10.173  17.695  67.547  0.00  0.00    -0.017 A 
ATOM     21  C2  non d ame      -9.707  18.666  66.632  0.00  0.00     0.077 A 
ATOM     22  H1  non d ame     -10.886  17.845  68.358  0.00  0.00     0.091 H 
ATOM     23  O1  non d ame      -8.870  18.073  65.832  0.00  0.00    -0.218 OA
ATOM     24  N1  non d ame      -8.736  16.801  66.127  0.00  0.00    -0.123 NA
BRANCH  21  25
ATOM     25  C3  non d ame     -10.110  20.134  66.592  0.00  0.00    -0.029 C 
ATOM     26  H2  non d ame     -10.036  20.559  67.593  0.00  0.00     0.036 H 
ATOM     27  H3  non d ame      -9.447  20.674  65.917  0.00  0.00     0.036 H 
ATOM     28  H4  non d ame     -11.138  20.219  66.236  0.00  0.00     0.036 H 
ENDBRANCH  21  25
ENDBRANCH  16  19
ENDBRANCH  13  15
BRANCH  13  29
ATOM     29  C8  non d ame     -12.208  13.348  69.945  0.00  0.00    -0.049 C 
ATOM     30  H7  non d ame     -11.846  13.599  70.942  0.00  0.00     0.030 H 
ATOM     31  H8  non d ame     -12.952  14.081  69.633  0.00  0.00     0.030 H 
ATOM     32  H9  non d ame     -12.660  12.357  69.963  0.00  0.00     0.030 H 
ENDBRANCH  13  29
ENDBRANCH  10  13
ENDBRANCH   7   9
BRANCH   7  33
ATOM     33  C11 non d ame     -11.012  12.101  64.195  0.00  0.00    -0.033 C 
ATOM     34  H12 non d ame     -10.254  11.718  63.513  0.00  0.00     0.042 H 
BRANCH  33  35
ATOM     35  C12 non d ame     -12.408  11.778  63.576  0.00  0.00    -0.071 C 
ATOM     36  H13 non d ame     -12.289  11.537  62.519  0.00  0.00     0.028 H 
ATOM     37  H14 non d ame     -12.847  10.927  64.095  0.00  0.00     0.028 H 
ATOM     38  H15 non d ame     -13.060  12.644  63.680  0.00  0.00     0.028 H 
ENDBRANCH  33  35
BRANCH  33  39
ATOM     39  C13 non d ame     -10.799  13.642  64.338  0.00  0.00    -0.071 C 
ATOM     40  H16 non d ame     -10.032  13.969  63.637  0.00  0.00     0.028 H 
ATOM     41  H17 non d ame     -11.734  14.160  64.121  0.00  0.00     0.028 H 
ATOM     42  H18 non d ame     -10.483  13.872  65.356  0.00  0.00     0.028 H 
ENDBRANCH  33  39
ENDBRANCH   7  33
ENDBRANCH   4   7
ENDBRANCH   1   3
BRANCH   1  43
ATOM     43  C15 non d ame      -8.198   7.767  67.217  0.00  0.00     0.240 C 
ATOM     44  O5  non d ame      -7.407   6.880  67.258  0.00  0.00    -0.271 OA
ATOM     45  N6  non d ame      -9.596   7.537  67.681  0.00  0.00    -0.355 N 
ATOM     46  H46 non d ame     -10.275   8.283  67.655  0.00  0.00     0.162 HD
BRANCH  45  47
ATOM     47  C20 non d ame      -9.990   6.203  68.184  0.00  0.00     0.013 C 
ATOM     48  H30 non d ame      -9.081   5.632  68.370  0.00  0.00     0.072 H 
BRANCH  47  49
ATOM     49  C21 non d ame     -10.834   5.505  67.141  0.00  0.00    -0.038 C 
ATOM     50  H31 non d ame     -11.702   5.119  67.674  0.00  0.00     0.036 H 
ATOM     51  H32 non d ame     -10.965   6.230  66.336  0.00  0.00     0.036 H 
BRANCH  49  52
ATOM     52  C22 non d ame     -10.125   4.283  66.516  0.00  0.00     0.018 C 
ATOM     53  H33 non d ame      -9.193   4.167  67.070  0.00  0.00     0.048 H 
ATOM     54  H34 non d ame     -10.864   3.481  66.518  0.00  0.00     0.048 H 
BRANCH  52  55
ATOM     55  C23 non d ame      -9.718   4.487  65.030  0.00  0.00     0.259 C 
ATOM     56  O7  non d ame     -10.272   3.889  64.166  0.00  0.00    -0.265 OA
BRANCH  55  57
ATOM     57  O8  non d ame      -8.665   5.390  64.714  0.00  0.00    -0.317 OA
BRANCH  57  58
ATOM     58  C29 non d ame      -8.300   5.397  63.331  0.00  0.00     0.052 C 
ATOM     59  H47 non d ame      -7.870   4.415  63.135  0.00  0.00     0.082 H 
ATOM     60  H48 non d ame      -9.191   5.719  62.792  0.00  0.00     0.082 H 
BRANCH  58  61
ATOM     61  C35 non d ame      -7.194   6.467  63.133  0.00  0.00    -0.034 A 
ATOM     62  C30 non d ame      -7.530   7.745  62.699  0.00  0.00    -0.075 A 
ATOM     63  C31 non d ame      -6.536   8.706  62.521  0.00  0.00    -0.082 A 
ATOM     64  H49 non d ame      -8.572   7.994  62.499  0.00  0.00     0.084 H 
ATOM     65  C32 non d ame      -5.200   8.384  62.776  0.00  0.00    -0.083 A 
ATOM     66  H50 non d ame      -6.803   9.707  62.183  0.00  0.00     0.083 H 
ATOM     67  C33 non d ame      -4.869   7.106  63.206  0.00  0.00    -0.082 A 
ATOM     68  H51 non d ame      -4.417   9.130  62.640  0.00  0.00     0.083 H 
ATOM     69  C34 non d ame      -5.860   6.143  63.387  0.00  0.00    -0.075 A 
ATOM     70  H52 non d ame      -3.826   6.858  63.402  0.00  0.00     0.083 H 
ATOM     71  H53 non d ame      -5.592   5.142  63.726  0.00  0.00     0.084 H 
ENDBRANCH  58  61
ENDBRANCH  57  58
ENDBRANCH  55  57
ENDBRANCH  52  55
ENDBRANCH  49  52
ENDBRANCH  47  49
BRANCH  47  72
ATOM     72  C24 non d ame     -10.795   6.354  69.473  0.00  0.00    -0.039 C 
ATOM     73  H35 non d ame     -11.838   6.234  69.179  0.00  0.00     0.036 H 
ATOM     74  H36 non d ame     -10.345   5.657  70.180  0.00  0.00     0.036 H 
BRANCH  72  75
ATOM     75  C25 non d ame     -10.646   7.822  70.096  0.00  0.00    -0.001 C 
ATOM     76  C26 non d ame      -9.374   7.862  71.137  0.00  0.00    -0.035 C 
ATOM     77  C27 non d ame      -9.789   8.389  72.314  0.00  0.00     0.085 C 
ATOM     78  H38 non d ame      -9.077   6.848  71.403  0.00  0.00     0.036 H 
ATOM     79  H39 non d ame      -8.627   8.575  70.788  0.00  0.00     0.036 H 
ATOM     80  N5  non d ame     -11.298   8.409  72.281  0.00  0.00    -0.049 N 
ATOM     81  H40 non d ame      -9.460   7.686  73.080  0.00  0.00     0.075 H 
ATOM     82  H41 non d ame      -9.420   9.414  72.320  0.00  0.00     0.075 H 
ATOM     83  C28 non d ame     -11.711   8.168  70.739  0.00  0.00     0.193 C 
ATOM     84  H42 non d ame     -11.607   7.616  72.824  0.00  0.00     0.280 HD
ATOM     85  H43 non d ame     -11.578   9.343  72.546  0.00  0.00     0.280 HD
ATOM     86  H44 non d ame     -12.055   8.998  70.121  0.00  0.00     0.129 H 
ATOM     87  H37 non d ame     -10.688   8.600  69.334  0.00  0.00     0.046 H 
BRANCH  83  88
ATOM     88  O6  non d ame     -12.738   7.178  70.653  0.00  0.00    -0.369 OA
ATOM     89  H45 non d ame     -13.293   7.358  69.891  0.00  0.00     0.212 HD
ENDBRANCH  83  88
ENDBRANCH  72  75
ENDBRANCH  47  72
ENDBRANCH  45  47
ENDBRANCH   1  43
BRANCH   1  90
ATOM     90  C16 non d ame      -6.657   9.723  67.564  0.00  0.00    -0.035 C 
ATOM     91  H21 non d ame      -7.017  10.695  67.902  0.00  0.00     0.037 H 
ATOM     92  H22 non d ame      -6.441   8.939  68.290  0.00  0.00     0.037 H 
BRANCH  90  93
ATOM     93  C17 non d ame      -5.324   9.990  66.794  0.00  0.00    -0.059 C 
ATOM     94  H23 non d ame      -4.698  10.620  67.426  0.00  0.00     0.038 H 
BRANCH  93  95
ATOM     95  C18 non d ame      -4.536   8.673  66.503  0.00  0.00    -0.073 C 
ATOM     96  H24 non d ame      -5.185   7.815  66.684  0.00  0.00     0.028 H 
ATOM     97  H25 non d ame      -4.208   8.667  65.464  0.00  0.00     0.028 H 
ATOM     98  H26 non d ame      -3.668   8.617  67.160  0.00  0.00     0.028 H 
ENDBRANCH  93  95
BRANCH  93  99
ATOM     99  C19 non d ame      -5.587  10.764  65.499  0.00  0.00    -0.073 C 
ATOM    100  H27 non d ame      -6.638  10.668  65.225  0.00  0.00     0.028 H 
ATOM    101  H28 non d ame      -5.345  11.817  65.650  0.00  0.00     0.028 H 
ATOM    102  H29 non d ame      -4.964  10.360  64.701  0.00  0.00     0.028 H 
ENDBRANCH  93  99
ENDBRANCH  90  93
ENDBRANCH   1  90
TORSDOF 26
ENDMDL
MODEL 12
REMARK VINA RESULT:      -6.2      2.713      8.318
REMARK  26 active torsions:
REMARK  status: ('A' for Active; 'I' for Inactive)
REMARK    1  A    between atoms: C2_2  and  C3_3 
REMARK    2  A    between atoms: C4_6  and  C5_7 
REMARK       I    between atoms: C5_7  and  N2_9 
REMARK    3  A    between atoms: N2_9  and  C6_10 
REMARK    4  A    between atoms: C6_10  and  C7_11 
REMARK    5  A    between atoms: C6_10  and  C8_13 
REMARK       I    between atoms: C7_11  and  N3_14 
REMARK    6  A    between atoms: N3_14  and  C9_15 
REMARK    7  A    between atoms: C9_15  and  C10_16 
REMARK    8  A    between atoms: C9_15  and  C11_18 
REMARK       I    between atoms: C10_16  and  N4_21 
REMARK    9  A    between atoms: C11_18  and  C12_19 
REMARK   10  A    between atoms: C11_18  and  C13_20 
REMARK   11  A    between atoms: N4_21  and  C14_22 
REMARK   12  A    between atoms: C14_22  and  C15_23 
REMARK   13  A    between atoms: C14_22  and  C16_25 
REMARK       I    between atoms: C15_23  and  N6_40 
REMARK   14  A    between atoms: C16_25  and  C17_26 
REMARK   15  A    between atoms: C17_26  and  C18_27 
REMARK   16  A    between atoms: C17_26  and  C19_28 
REMARK   17  A    between atoms: C20_29  and  C21_30 
REMARK   18  A    between atoms: C20_29  and  C24_33 
REMARK   19  A    between atoms: C20_29  and  N6_40 
REMARK   20  A    between atoms: C21_30  and  C22_31 
REMARK   21  A    between atoms: C22_31  and  C23_32 
REMARK   22  A    between atoms: C23_32  and  O8_43 
REMARK   23  A    between atoms: C24_33  and  C25_34 
REMARK   24  A    between atoms: C28_38  and  O6_39 
REMARK   25  A    between atoms: C29_42  and  O8_43 
REMARK   26  A    between atoms: C29_42  and  C35_49 
ROOT
ATOM      1  C14 non d ame      -7.558   9.901  68.964  0.00  0.00     0.089 C 
ATOM      2  H20 non d ame      -7.773  10.359  69.930  0.00  0.00     0.087 H 
ENDROOT
BRANCH   1   3
ATOM      3  N4  non d ame      -8.302   8.651  68.896  0.00  0.00    -0.346 N 
ATOM      4  C10 non d ame      -9.628   8.515  69.600  0.00  0.00     0.241 C 
ATOM      5  O4  non d ame     -10.076   9.424  70.218  0.00  0.00    -0.271 OA
ATOM      6  H19 non d ame      -7.902   7.889  68.367  0.00  0.00     0.163 HD
BRANCH   4   7
ATOM      7  C9  non d ame     -10.386   7.216  69.515  0.00  0.00     0.092 C 
ATOM      8  H11 non d ame     -11.374   7.405  69.095  0.00  0.00     0.088 H 
BRANCH   7   9
ATOM      9  N3  non d ame      -9.693   6.305  68.600  0.00  0.00    -0.346 N 
ATOM     10  C7  non d ame     -10.238   6.048  67.289  0.00  0.00     0.240 C 
ATOM     11  O3  non d ame     -11.234   6.565  66.955  0.00  0.00    -0.271 OA
ATOM     12  H10 non d ame      -8.834   5.850  68.874  0.00  0.00     0.163 HD
BRANCH  10  13
ATOM     13  C6  non d ame      -9.498   5.074  66.321  0.00  0.00     0.086 C 
ATOM     14  H6  non d ame     -10.106   4.789  65.462  0.00  0.00     0.086 H 
BRANCH  13  15
ATOM     15  N2  non d ame      -8.319   5.740  65.792  0.00  0.00    -0.343 N 
ATOM     16  C5  non d ame      -8.017   5.647  64.362  0.00  0.00     0.273 C 
ATOM     17  O2  non d ame      -8.728   5.031  63.646  0.00  0.00    -0.266 OA
ATOM     18  H5  non d ame      -7.716   6.262  66.412  0.00  0.00     0.163 HD
BRANCH  16  19
ATOM     19  C4  non d ame      -6.775   6.348  63.790  0.00  0.00     0.154 A 
ATOM     20  C1  non d ame      -6.501   7.752  63.784  0.00  0.00    -0.017 A 
ATOM     21  C2  non d ame      -5.245   7.874  63.149  0.00  0.00     0.077 A 
ATOM     22  H1  non d ame      -7.118   8.559  64.180  0.00  0.00     0.091 H 
ATOM     23  O1  non d ame      -4.852   6.675  62.833  0.00  0.00    -0.218 OA
ATOM     24  N1  non d ame      -5.729   5.767  63.196  0.00  0.00    -0.123 NA
BRANCH  21  25
ATOM     25  C3  non d ame      -4.490   9.171  62.885  0.00  0.00    -0.029 C 
ATOM     26  H2  non d ame      -4.959   9.703  62.057  0.00  0.00     0.036 H 
ATOM     27  H3  non d ame      -4.516   9.794  63.779  0.00  0.00     0.036 H 
ATOM     28  H4  non d ame      -3.454   8.943  62.631  0.00  0.00     0.036 H 
ENDBRANCH  21  25
ENDBRANCH  16  19
ENDBRANCH  13  15
BRANCH  13  29
ATOM     29  C8  non d ame      -9.095   3.827  67.067  0.00  0.00    -0.049 C 
ATOM     30  H7  non d ame      -8.570   3.152  66.392  0.00  0.00     0.030 H 
ATOM     31  H8  non d ame      -8.440   4.096  67.896  0.00  0.00     0.030 H 
ATOM     32  H9  non d ame      -9.986   3.333  67.454  0.00  0.00     0.030 H 
ENDBRANCH  13  29
ENDBRANCH  10  13
ENDBRANCH   7   9
BRANCH   7  33
ATOM     33  C11 non d ame     -10.465   6.568  70.928  0.00  0.00    -0.033 C 
ATOM     34  H12 non d ame      -9.833   7.154  71.594  0.00  0.00     0.042 H 
BRANCH  33  35
ATOM     35  C12 non d ame     -11.918   6.617  71.495  0.00  0.00    -0.071 C 
ATOM     36  H13 non d ame     -11.938   7.239  72.390  0.00  0.00     0.028 H 
ATOM     37  H14 non d ame     -12.587   7.039  70.746  0.00  0.00     0.028 H 
ATOM     38  H15 non d ame     -12.244   5.608  71.747  0.00  0.00     0.028 H 
ENDBRANCH  33  35
BRANCH  33  39
ATOM     39  C13 non d ame      -9.916   5.105  70.903  0.00  0.00    -0.071 C 
ATOM     40  H16 non d ame      -9.153   5.017  70.130  0.00  0.00     0.028 H 
ATOM     41  H17 non d ame      -9.480   4.864  71.873  0.00  0.00     0.028 H 
ATOM     42  H18 non d ame     -10.731   4.415  70.690  0.00  0.00     0.028 H 
ENDBRANCH  33  39
ENDBRANCH   7  33
ENDBRANCH   4   7
ENDBRANCH   1   3
BRANCH   1  43
ATOM     43  C15 non d ame      -7.997  10.803  67.775  0.00  0.00     0.240 C 
ATOM     44  O5  non d ame      -7.633  10.548  66.673  0.00  0.00    -0.271 OA
ATOM     45  N6  non d ame      -8.879  11.982  68.010  0.00  0.00    -0.355 N 
ATOM     46  H46 non d ame      -9.198  12.207  68.941  0.00  0.00     0.162 HD
BRANCH  45  47
ATOM     47  C20 non d ame      -9.288  12.830  66.870  0.00  0.00     0.013 C 
ATOM     48  H30 non d ame      -8.949  12.347  65.954  0.00  0.00     0.072 H 
BRANCH  47  49
ATOM     49  C21 non d ame      -8.646  14.192  67.004  0.00  0.00    -0.038 C 
ATOM     50  H31 non d ame      -7.895  14.088  67.787  0.00  0.00     0.036 H 
ATOM     51  H32 non d ame      -8.346  14.476  65.995  0.00  0.00     0.036 H 
BRANCH  49  52
ATOM     52  C22 non d ame      -9.635  15.276  67.487  0.00  0.00     0.018 C 
ATOM     53  H33 non d ame      -9.386  16.175  66.923  0.00  0.00     0.048 H 
ATOM     54  H34 non d ame     -10.626  14.832  67.396  0.00  0.00     0.048 H 
BRANCH  52  55
ATOM     55  C23 non d ame      -9.469  15.651  68.986  0.00  0.00     0.259 C 
ATOM     56  O7  non d ame      -8.466  15.386  69.566  0.00  0.00    -0.265 OA
BRANCH  55  57
ATOM     57  O8  non d ame     -10.536  16.303  69.663  0.00  0.00    -0.317 OA
BRANCH  57  58
ATOM     58  C29 non d ame     -11.836  15.900  69.226  0.00  0.00     0.052 C 
ATOM     59  H47 non d ame     -12.436  16.810  69.204  0.00  0.00     0.082 H 
ATOM     60  H48 non d ame     -11.677  15.331  68.310  0.00  0.00     0.082 H 
BRANCH  58  61
ATOM     61  C35 non d ame     -12.428  14.946  70.298  0.00  0.00    -0.034 A 
ATOM     62  C30 non d ame     -12.206  13.576  70.210  0.00  0.00    -0.075 A 
ATOM     63  C31 non d ame     -12.737  12.719  71.173  0.00  0.00    -0.082 A 
ATOM     64  H49 non d ame     -11.615  13.173  69.388  0.00  0.00     0.084 H 
ATOM     65  C32 non d ame     -13.496  13.238  72.226  0.00  0.00    -0.083 A 
ATOM     66  H50 non d ame     -12.559  11.646  71.103  0.00  0.00     0.083 H 
ATOM     67  C33 non d ame     -13.718  14.606  72.308  0.00  0.00    -0.082 A 
ATOM     68  H51 non d ame     -13.914  12.576  72.984  0.00  0.00     0.083 H 
ATOM     69  C34 non d ame     -13.187  15.466  71.348  0.00  0.00    -0.075 A 
ATOM     70  H52 non d ame     -14.312  15.007  73.129  0.00  0.00     0.083 H 
ATOM     71  H53 non d ame     -13.365  16.539  71.420  0.00  0.00     0.084 H 
ENDBRANCH  58  61
ENDBRANCH  57  58
ENDBRANCH  55  57
ENDBRANCH  52  55
ENDBRANCH  49  52
ENDBRANCH  47  49
BRANCH  47  72
ATOM     72  C24 non d ame     -10.808  12.981  66.858  0.00  0.00    -0.039 C 
ATOM     73  H35 non d ame     -11.152  12.525  67.786  0.00  0.00     0.036 H 
ATOM     74  H36 non d ame     -10.993  14.039  66.670  0.00  0.00     0.036 H 
BRANCH  72  75
ATOM     75  C25 non d ame     -11.476  12.163  65.653  0.00  0.00    -0.001 C 
ATOM     76  C26 non d ame     -10.305  11.473  64.728  0.00  0.00    -0.035 C 
ATOM     77  C27 non d ame     -10.526  11.797  63.431  0.00  0.00     0.085 C 
ATOM     78  H38 non d ame      -9.340  11.931  64.944  0.00  0.00     0.036 H 
ATOM     79  H39 non d ame     -10.408  10.388  64.741  0.00  0.00     0.036 H 
ATOM     80  N5  non d ame     -11.547  12.909  63.422  0.00  0.00    -0.049 N 
ATOM     81  H40 non d ame      -9.576  12.183  63.061  0.00  0.00     0.075 H 
ATOM     82  H41 non d ame     -10.966  10.907  62.981  0.00  0.00     0.075 H 
ATOM     83  C28 non d ame     -12.189  12.935  64.903  0.00  0.00     0.193 C 
ATOM     84  H42 non d ame     -11.034  13.767  63.278  0.00  0.00     0.280 HD
ATOM     85  H43 non d ame     -12.264  12.633  62.766  0.00  0.00     0.280 HD
ATOM     86  H44 non d ame     -13.182  12.524  65.083  0.00  0.00     0.129 H 
ATOM     87  H37 non d ame     -12.285  11.516  65.992  0.00  0.00     0.046 H 
BRANCH  83  88
ATOM     88  O6  non d ame     -12.234  14.275  65.397  0.00  0.00    -0.369 OA
ATOM     89  H45 non d ame     -11.804  14.315  66.253  0.00  0.00     0.212 HD
ENDBRANCH  83  88
ENDBRANCH  72  75
ENDBRANCH  47  72
ENDBRANCH  45  47
ENDBRANCH   1  43
BRANCH   1  90
ATOM     90  C16 non d ame      -6.072   9.600  68.856  0.00  0.00    -0.035 C 
ATOM     91  H21 non d ame      -5.906   8.731  69.493  0.00  0.00     0.037 H 
ATOM     92  H22 non d ame      -5.867   9.539  67.787  0.00  0.00     0.037 H 
BRANCH  90  93
ATOM     93  C17 non d ame      -5.160  10.738  69.416  0.00  0.00    -0.059 C 
ATOM     94  H23 non d ame      -4.390  10.273  70.031  0.00  0.00     0.038 H 
BRANCH  93  95
ATOM     95  C18 non d ame      -4.445  11.534  68.277  0.00  0.00    -0.073 C 
ATOM     96  H24 non d ame      -4.422  10.929  67.371  0.00  0.00     0.028 H 
ATOM     97  H25 non d ame      -4.989  12.459  68.084  0.00  0.00     0.028 H 
ATOM     98  H26 non d ame      -3.426  11.769  68.584  0.00  0.00     0.028 H 
ENDBRANCH  93  95
BRANCH  93  99
ATOM     99  C19 non d ame      -5.957  11.681  70.322  0.00  0.00    -0.073 C 
ATOM    100  H27 non d ame      -6.557  12.354  69.708  0.00  0.00     0.028 H 
ATOM    101  H28 non d ame      -6.612  11.096  70.968  0.00  0.00     0.028 H 
ATOM    102  H29 non d ame      -5.269  12.263  70.934  0.00  0.00     0.028 H 
ENDBRANCH  93  99
ENDBRANCH  90  93
ENDBRANCH   1  90
TORSDOF 26
ENDMDL
MODEL 13
REMARK VINA RESULT:      -6.2      3.539      7.052
REMARK  26 active torsions:
REMARK  status: ('A' for Active; 'I' for Inactive)
REMARK    1  A    between atoms: C2_2  and  C3_3 
REMARK    2  A    between atoms: C4_6  and  C5_7 
REMARK       I    between atoms: C5_7  and  N2_9 
REMARK    3  A    between atoms: N2_9  and  C6_10 
REMARK    4  A    between atoms: C6_10  and  C7_11 
REMARK    5  A    between atoms: C6_10  and  C8_13 
REMARK       I    between atoms: C7_11  and  N3_14 
REMARK    6  A    between atoms: N3_14  and  C9_15 
REMARK    7  A    between atoms: C9_15  and  C10_16 
REMARK    8  A    between atoms: C9_15  and  C11_18 
REMARK       I    between atoms: C10_16  and  N4_21 
REMARK    9  A    between atoms: C11_18  and  C12_19 
REMARK   10  A    between atoms: C11_18  and  C13_20 
REMARK   11  A    between atoms: N4_21  and  C14_22 
REMARK   12  A    between atoms: C14_22  and  C15_23 
REMARK   13  A    between atoms: C14_22  and  C16_25 
REMARK       I    between atoms: C15_23  and  N6_40 
REMARK   14  A    between atoms: C16_25  and  C17_26 
REMARK   15  A    between atoms: C17_26  and  C18_27 
REMARK   16  A    between atoms: C17_26  and  C19_28 
REMARK   17  A    between atoms: C20_29  and  C21_30 
REMARK   18  A    between atoms: C20_29  and  C24_33 
REMARK   19  A    between atoms: C20_29  and  N6_40 
REMARK   20  A    between atoms: C21_30  and  C22_31 
REMARK   21  A    between atoms: C22_31  and  C23_32 
REMARK   22  A    between atoms: C23_32  and  O8_43 
REMARK   23  A    between atoms: C24_33  and  C25_34 
REMARK   24  A    between atoms: C28_38  and  O6_39 
REMARK   25  A    between atoms: C29_42  and  O8_43 
REMARK   26  A    between atoms: C29_42  and  C35_49 
ROOT
ATOM      1  C14 non d ame      -6.300  11.918  69.448  0.00  0.00     0.089 C 
ATOM      2  H20 non d ame      -5.535  11.796  68.680  0.00  0.00     0.087 H 
ENDROOT
BRANCH   1   3
ATOM      3  N4  non d ame      -7.277  12.872  68.945  0.00  0.00    -0.346 N 
ATOM      4  C10 non d ame      -6.950  13.745  67.760  0.00  0.00     0.241 C 
ATOM      5  O4  non d ame      -5.891  13.664  67.229  0.00  0.00    -0.271 OA
ATOM      6  H19 non d ame      -8.171  12.928  69.412  0.00  0.00     0.163 HD
BRANCH   4   7
ATOM      7  C9  non d ame      -7.975  14.723  67.249  0.00  0.00     0.092 C 
ATOM      8  H11 non d ame      -7.842  14.855  66.175  0.00  0.00     0.088 H 
BRANCH   7   9
ATOM      9  N3  non d ame      -9.319  14.174  67.454  0.00  0.00    -0.346 N 
ATOM     10  C7  non d ame     -10.290  14.229  66.389  0.00  0.00     0.240 C 
ATOM     11  O3  non d ame     -10.008  14.713  65.361  0.00  0.00    -0.271 OA
ATOM     12  H10 non d ame      -9.578  13.755  68.336  0.00  0.00     0.163 HD
BRANCH  10  13
ATOM     13  C6  non d ame     -11.720  13.646  66.614  0.00  0.00     0.086 C 
ATOM     14  H6  non d ame     -11.737  12.556  66.604  0.00  0.00     0.086 H 
BRANCH  13  15
ATOM     15  N2  non d ame     -12.195  14.056  67.925  0.00  0.00    -0.343 N 
ATOM     16  C5  non d ame     -11.967  13.185  69.080  0.00  0.00     0.273 C 
ATOM     17  O2  non d ame     -11.403  12.156  68.944  0.00  0.00    -0.266 OA
ATOM     18  H5  non d ame     -12.679  14.937  68.032  0.00  0.00     0.163 HD
BRANCH  16  19
ATOM     19  C4  non d ame     -12.463  13.608  70.472  0.00  0.00     0.154 A 
ATOM     20  C1  non d ame     -12.519  14.935  71.004  0.00  0.00    -0.017 A 
ATOM     21  C2  non d ame     -13.046  14.783  72.306  0.00  0.00     0.077 A 
ATOM     22  H1  non d ame     -12.223  15.866  70.520  0.00  0.00     0.091 H 
ATOM     23  O1  non d ame     -13.265  13.513  72.489  0.00  0.00    -0.218 OA
ATOM     24  N1  non d ame     -12.933  12.807  71.433  0.00  0.00    -0.123 NA
BRANCH  21  25
ATOM     25  C3  non d ame     -13.310  15.899  73.308  0.00  0.00    -0.029 C 
ATOM     26  H2  non d ame     -12.569  16.688  73.178  0.00  0.00     0.036 H 
ATOM     27  H3  non d ame     -14.307  16.306  73.144  0.00  0.00     0.036 H 
ATOM     28  H4  non d ame     -13.243  15.501  74.322  0.00  0.00     0.036 H 
ENDBRANCH  21  25
ENDBRANCH  16  19
ENDBRANCH  13  15
BRANCH  13  29
ATOM     29  C8  non d ame     -12.649  14.158  65.544  0.00  0.00    -0.049 C 
ATOM     30  H7  non d ame     -12.873  13.355  64.841  0.00  0.00     0.030 H 
ATOM     31  H8  non d ame     -13.574  14.508  66.002  0.00  0.00     0.030 H 
ATOM     32  H9  non d ame     -12.172  14.982  65.013  0.00  0.00     0.030 H 
ENDBRANCH  13  29
ENDBRANCH  10  13
ENDBRANCH   7   9
BRANCH   7  33
ATOM     33  C11 non d ame      -7.843  16.066  68.025  0.00  0.00    -0.033 C 
ATOM     34  H12 non d ame      -6.854  16.085  68.484  0.00  0.00     0.042 H 
BRANCH  33  35
ATOM     35  C12 non d ame      -7.936  17.290  67.062  0.00  0.00    -0.071 C 
ATOM     36  H13 non d ame      -7.175  18.023  67.331  0.00  0.00     0.028 H 
ATOM     37  H14 non d ame      -7.774  16.959  66.037  0.00  0.00     0.028 H 
ATOM     38  H15 non d ame      -8.924  17.744  67.146  0.00  0.00     0.028 H 
ENDBRANCH  33  35
BRANCH  33  39
ATOM     39  C13 non d ame      -8.906  16.160  69.166  0.00  0.00    -0.071 C 
ATOM     40  H16 non d ame      -8.664  15.441  69.949  0.00  0.00     0.028 H 
ATOM     41  H17 non d ame      -8.903  17.167  69.584  0.00  0.00     0.028 H 
ATOM     42  H18 non d ame      -9.894  15.938  68.761  0.00  0.00     0.028 H 
ENDBRANCH  33  39
ENDBRANCH   7  33
ENDBRANCH   4   7
ENDBRANCH   1   3
BRANCH   1  43
ATOM     43  C15 non d ame      -7.030  10.582  69.767  0.00  0.00     0.240 C 
ATOM     44  O5  non d ame      -6.743   9.971  70.745  0.00  0.00    -0.271 OA
ATOM     45  N6  non d ame      -8.094  10.070  68.857  0.00  0.00    -0.355 N 
ATOM     46  H46 non d ame      -8.350  10.583  68.026  0.00  0.00     0.162 HD
BRANCH  45  47
ATOM     47  C20 non d ame      -8.780   8.799  69.175  0.00  0.00     0.013 C 
ATOM     48  H30 non d ame      -8.252   8.331  70.006  0.00  0.00     0.072 H 
BRANCH  47  49
ATOM     49  C21 non d ame      -8.742   7.894  67.965  0.00  0.00    -0.038 C 
ATOM     50  H31 non d ame      -8.650   8.556  67.104  0.00  0.00     0.036 H 
ATOM     51  H32 non d ame      -7.965   7.158  68.172  0.00  0.00     0.036 H 
BRANCH  49  52
ATOM     52  C22 non d ame     -10.052   7.101  67.767  0.00  0.00     0.018 C 
ATOM     53  H33 non d ame     -10.758   7.513  68.489  0.00  0.00     0.048 H 
ATOM     54  H34 non d ame     -10.271   7.154  66.700  0.00  0.00     0.048 H 
BRANCH  52  55
ATOM     55  C23 non d ame      -9.927   5.590  68.105  0.00  0.00     0.259 C 
ATOM     56  O7  non d ame     -10.423   5.148  69.090  0.00  0.00    -0.265 OA
BRANCH  55  57
ATOM     57  O8  non d ame      -9.200   4.738  67.228  0.00  0.00    -0.317 OA
BRANCH  57  58
ATOM     58  C29 non d ame      -9.645   4.785  65.869  0.00  0.00     0.052 C 
ATOM     59  H47 non d ame      -9.918   3.761  65.612  0.00  0.00     0.082 H 
ATOM     60  H48 non d ame     -10.395   5.574  65.831  0.00  0.00     0.082 H 
BRANCH  58  61
ATOM     61  C35 non d ame      -8.442   5.209  64.986  0.00  0.00    -0.034 A 
ATOM     62  C30 non d ame      -8.610   5.385  63.616  0.00  0.00    -0.075 A 
ATOM     63  C31 non d ame      -7.530   5.766  62.822  0.00  0.00    -0.082 A 
ATOM     64  H49 non d ame      -9.589   5.224  63.164  0.00  0.00     0.084 H 
ATOM     65  C32 non d ame      -6.275   5.969  63.403  0.00  0.00    -0.083 A 
ATOM     66  H50 non d ame      -7.666   5.905  61.750  0.00  0.00     0.083 H 
ATOM     67  C33 non d ame      -6.110   5.790  64.770  0.00  0.00    -0.082 A 
ATOM     68  H51 non d ame      -5.425   6.268  62.790  0.00  0.00     0.083 H 
ATOM     69  C34 non d ame      -7.188   5.411  65.567  0.00  0.00    -0.075 A 
ATOM     70  H52 non d ame      -5.130   5.947  65.219  0.00  0.00     0.083 H 
ATOM     71  H53 non d ame      -7.052   5.273  66.640  0.00  0.00     0.084 H 
ENDBRANCH  58  61
ENDBRANCH  57  58
ENDBRANCH  55  57
ENDBRANCH  52  55
ENDBRANCH  49  52
ENDBRANCH  47  49
BRANCH  47  72
ATOM     72  C24 non d ame     -10.232   9.077  69.558  0.00  0.00    -0.039 C 
ATOM     73  H35 non d ame     -10.454  10.066  69.155  0.00  0.00     0.036 H 
ATOM     74  H36 non d ame     -10.795   8.210  69.213  0.00  0.00     0.036 H 
BRANCH  72  75
ATOM     75  C25 non d ame     -10.420   9.161  71.147  0.00  0.00    -0.001 C 
ATOM     76  C26 non d ame     -10.128   7.691  71.824  0.00  0.00    -0.035 C 
ATOM     77  C27 non d ame     -11.169   7.366  72.628  0.00  0.00     0.085 C 
ATOM     78  H38 non d ame     -10.147   6.917  71.058  0.00  0.00     0.036 H 
ATOM     79  H39 non d ame      -9.286   7.757  72.513  0.00  0.00     0.036 H 
ATOM     80  N5  non d ame     -12.290   8.326  72.308  0.00  0.00    -0.049 N 
ATOM     81  H40 non d ame     -11.466   6.361  72.328  0.00  0.00     0.075 H 
ATOM     82  H41 non d ame     -10.822   7.552  73.643  0.00  0.00     0.075 H 
ATOM     83  C28 non d ame     -11.620   9.523  71.457  0.00  0.00     0.193 C 
ATOM     84  H42 non d ame     -12.932   7.826  71.709  0.00  0.00     0.280 HD
ATOM     85  H43 non d ame     -12.609   8.698  73.191  0.00  0.00     0.280 HD
ATOM     86  H44 non d ame     -11.422  10.489  71.922  0.00  0.00     0.129 H 
ATOM     87  H37 non d ame      -9.903  10.018  71.579  0.00  0.00     0.046 H 
BRANCH  83  88
ATOM     88  O6  non d ame     -12.412   9.811  70.303  0.00  0.00    -0.369 OA
ATOM     89  H45 non d ame     -13.342   9.740  70.528  0.00  0.00     0.212 HD
ENDBRANCH  83  88
ENDBRANCH  72  75
ENDBRANCH  47  72
ENDBRANCH  45  47
ENDBRANCH   1  43
BRANCH   1  90
ATOM     90  C16 non d ame      -5.672  12.473  70.716  0.00  0.00    -0.035 C 
ATOM     91  H21 non d ame      -6.263  13.354  70.970  0.00  0.00     0.037 H 
ATOM     92  H22 non d ame      -5.625  11.632  71.407  0.00  0.00     0.037 H 
BRANCH  90  93
ATOM     93  C17 non d ame      -4.203  12.968  70.523  0.00  0.00    -0.059 C 
ATOM     94  H23 non d ame      -3.673  12.804  71.461  0.00  0.00     0.038 H 
BRANCH  93  95
ATOM     95  C18 non d ame      -3.455  12.172  69.407  0.00  0.00    -0.073 C 
ATOM     96  H24 non d ame      -3.456  11.111  69.654  0.00  0.00     0.028 H 
ATOM     97  H25 non d ame      -3.959  12.324  68.452  0.00  0.00     0.028 H 
ATOM     98  H26 non d ame      -2.426  12.528  69.335  0.00  0.00     0.028 H 
ENDBRANCH  93  95
BRANCH  93  99
ATOM     99  C19 non d ame      -4.166  14.472  70.238  0.00  0.00    -0.073 C 
ATOM    100  H27 non d ame      -4.758  14.999  70.987  0.00  0.00     0.028 H 
ATOM    101  H28 non d ame      -3.135  14.824  70.277  0.00  0.00     0.028 H 
ATOM    102  H29 non d ame      -4.578  14.664  69.248  0.00  0.00     0.028 H 
ENDBRANCH  93  99
ENDBRANCH  90  93
ENDBRANCH   1  90
TORSDOF 26
ENDMDL
MODEL 14
REMARK VINA RESULT:      -6.1      2.869      6.789
REMARK  26 active torsions:
REMARK  status: ('A' for Active; 'I' for Inactive)
REMARK    1  A    between atoms: C2_2  and  C3_3 
REMARK    2  A    between atoms: C4_6  and  C5_7 
REMARK       I    between atoms: C5_7  and  N2_9 
REMARK    3  A    between atoms: N2_9  and  C6_10 
REMARK    4  A    between atoms: C6_10  and  C7_11 
REMARK    5  A    between atoms: C6_10  and  C8_13 
REMARK       I    between atoms: C7_11  and  N3_14 
REMARK    6  A    between atoms: N3_14  and  C9_15 
REMARK    7  A    between atoms: C9_15  and  C10_16 
REMARK    8  A    between atoms: C9_15  and  C11_18 
REMARK       I    between atoms: C10_16  and  N4_21 
REMARK    9  A    between atoms: C11_18  and  C12_19 
REMARK   10  A    between atoms: C11_18  and  C13_20 
REMARK   11  A    between atoms: N4_21  and  C14_22 
REMARK   12  A    between atoms: C14_22  and  C15_23 
REMARK   13  A    between atoms: C14_22  and  C16_25 
REMARK       I    between atoms: C15_23  and  N6_40 
REMARK   14  A    between atoms: C16_25  and  C17_26 
REMARK   15  A    between atoms: C17_26  and  C18_27 
REMARK   16  A    between atoms: C17_26  and  C19_28 
REMARK   17  A    between atoms: C20_29  and  C21_30 
REMARK   18  A    between atoms: C20_29  and  C24_33 
REMARK   19  A    between atoms: C20_29  and  N6_40 
REMARK   20  A    between atoms: C21_30  and  C22_31 
REMARK   21  A    between atoms: C22_31  and  C23_32 
REMARK   22  A    between atoms: C23_32  and  O8_43 
REMARK   23  A    between atoms: C24_33  and  C25_34 
REMARK   24  A    between atoms: C28_38  and  O6_39 
REMARK   25  A    between atoms: C29_42  and  O8_43 
REMARK   26  A    between atoms: C29_42  and  C35_49 
ROOT
ATOM      1  C14 non d ame     -10.181   9.917  69.874  0.00  0.00     0.089 C 
ATOM      2  H20 non d ame      -9.559  10.725  70.261  0.00  0.00     0.087 H 
ENDROOT
BRANCH   1   3
ATOM      3  N4  non d ame     -10.988  10.465  68.793  0.00  0.00    -0.346 N 
ATOM      4  C10 non d ame     -10.445  11.569  67.922  0.00  0.00     0.241 C 
ATOM      5  O4  non d ame      -9.357  12.003  68.111  0.00  0.00    -0.271 OA
ATOM      6  H19 non d ame     -11.912  10.083  68.650  0.00  0.00     0.163 HD
BRANCH   4   7
ATOM      7  C9  non d ame     -11.291  12.120  66.804  0.00  0.00     0.092 C 
ATOM      8  H11 non d ame     -12.314  12.246  67.158  0.00  0.00     0.088 H 
BRANCH   7   9
ATOM      9  N3  non d ame     -10.797  13.447  66.425  0.00  0.00    -0.346 N 
ATOM     10  C7  non d ame     -11.402  14.629  66.988  0.00  0.00     0.240 C 
ATOM     11  O3  non d ame     -12.288  14.531  67.747  0.00  0.00    -0.271 OA
ATOM     12  H10 non d ame     -10.035  13.548  65.770  0.00  0.00     0.163 HD
BRANCH  10  13
ATOM     13  C6  non d ame     -10.874  16.039  66.578  0.00  0.00     0.086 C 
ATOM     14  H6  non d ame     -11.514  16.848  66.929  0.00  0.00     0.086 H 
BRANCH  13  15
ATOM     15  N2  non d ame      -9.570  16.248  67.185  0.00  0.00    -0.343 N 
ATOM     16  C5  non d ame      -9.337  17.443  67.999  0.00  0.00     0.273 C 
ATOM     17  O2  non d ame     -10.204  18.231  68.157  0.00  0.00    -0.266 OA
ATOM     18  H5  non d ame      -8.834  15.571  67.042  0.00  0.00     0.163 HD
BRANCH  16  19
ATOM     19  C4  non d ame      -7.963  17.677  68.648  0.00  0.00     0.154 A 
ATOM     20  C1  non d ame      -7.078  16.686  69.179  0.00  0.00    -0.017 A 
ATOM     21  C2  non d ame      -5.962  17.411  69.653  0.00  0.00     0.077 A 
ATOM     22  H1  non d ame      -7.224  15.606  69.216  0.00  0.00     0.091 H 
ATOM     23  O1  non d ame      -6.190  18.670  69.415  0.00  0.00    -0.218 OA
ATOM     24  N1  non d ame      -7.351  18.850  68.830  0.00  0.00    -0.123 NA
BRANCH  21  25
ATOM     25  C3  non d ame      -4.723  16.827  70.318  0.00  0.00    -0.029 C 
ATOM     26  H2  non d ame      -4.986  16.443  71.303  0.00  0.00     0.036 H 
ATOM     27  H3  non d ame      -4.330  16.016  69.704  0.00  0.00     0.036 H 
ATOM     28  H4  non d ame      -3.965  17.604  70.421  0.00  0.00     0.036 H 
ENDBRANCH  21  25
ENDBRANCH  16  19
ENDBRANCH  13  15
BRANCH  13  29
ATOM     29  C8  non d ame     -10.764  16.120  65.077  0.00  0.00    -0.049 C 
ATOM     30  H7  non d ame      -9.813  16.579  64.806  0.00  0.00     0.030 H 
ATOM     31  H8  non d ame     -10.817  15.117  64.654  0.00  0.00     0.030 H 
ATOM     32  H9  non d ame     -11.582  16.724  64.685  0.00  0.00     0.030 H 
ENDBRANCH  13  29
ENDBRANCH  10  13
ENDBRANCH   7   9
BRANCH   7  33
ATOM     33  C11 non d ame     -11.210  11.168  65.575  0.00  0.00    -0.033 C 
ATOM     34  H12 non d ame     -11.767  10.264  65.821  0.00  0.00     0.042 H 
BRANCH  33  35
ATOM     35  C12 non d ame     -11.881  11.805  64.318  0.00  0.00    -0.071 C 
ATOM     36  H13 non d ame     -12.098  12.855  64.515  0.00  0.00     0.028 H 
ATOM     37  H14 non d ame     -11.205  11.727  63.467  0.00  0.00     0.028 H 
ATOM     38  H15 non d ame     -12.808  11.278  64.096  0.00  0.00     0.028 H 
ENDBRANCH  33  35
BRANCH  33  39
ATOM     39  C13 non d ame      -9.731  10.759  65.281  0.00  0.00    -0.071 C 
ATOM     40  H16 non d ame      -9.155  11.645  65.016  0.00  0.00     0.028 H 
ATOM     41  H17 non d ame      -9.299  10.296  66.169  0.00  0.00     0.028 H 
ATOM     42  H18 non d ame      -9.708  10.050  64.454  0.00  0.00     0.028 H 
ENDBRANCH  33  39
ENDBRANCH   7  33
ENDBRANCH   4   7
ENDBRANCH   1   3
BRANCH   1  43
ATOM     43  C15 non d ame      -9.333   8.741  69.312  0.00  0.00     0.240 C 
ATOM     44  O5  non d ame      -9.332   7.692  69.873  0.00  0.00    -0.271 OA
ATOM     45  N6  non d ame      -8.529   8.918  68.070  0.00  0.00    -0.355 N 
ATOM     46  H46 non d ame      -8.525   9.802  67.582  0.00  0.00     0.162 HD
BRANCH  45  47
ATOM     47  C20 non d ame      -7.729   7.789  67.547  0.00  0.00     0.013 C 
ATOM     48  H30 non d ame      -7.587   7.074  68.358  0.00  0.00     0.072 H 
BRANCH  47  49
ATOM     49  C21 non d ame      -6.389   8.303  67.073  0.00  0.00    -0.038 C 
ATOM     50  H31 non d ame      -5.723   8.230  67.933  0.00  0.00     0.036 H 
ATOM     51  H32 non d ame      -6.166   7.747  66.162  0.00  0.00     0.036 H 
BRANCH  49  52
ATOM     52  C22 non d ame      -6.426   9.795  66.675  0.00  0.00     0.018 C 
ATOM     53  H33 non d ame      -7.367   9.935  66.143  0.00  0.00     0.048 H 
ATOM     54  H34 non d ame      -6.231  10.350  67.593  0.00  0.00     0.048 H 
BRANCH  52  55
ATOM     55  C23 non d ame      -5.306  10.206  65.680  0.00  0.00     0.259 C 
ATOM     56  O7  non d ame      -5.086  11.353  65.459  0.00  0.00    -0.265 OA
BRANCH  55  57
ATOM     57  O8  non d ame      -4.552   9.195  65.023  0.00  0.00    -0.317 OA
BRANCH  57  58
ATOM     58  C29 non d ame      -4.761   9.138  63.609  0.00  0.00     0.052 C 
ATOM     59  H47 non d ame      -5.139  10.121  63.327  0.00  0.00     0.082 H 
ATOM     60  H48 non d ame      -3.825   8.773  63.187  0.00  0.00     0.082 H 
BRANCH  58  61
ATOM     61  C35 non d ame      -5.868   8.087  63.330  0.00  0.00    -0.034 A 
ATOM     62  C30 non d ame      -7.149   8.501  62.978  0.00  0.00    -0.075 A 
ATOM     63  C31 non d ame      -8.144   7.557  62.728  0.00  0.00    -0.082 A 
ATOM     64  H49 non d ame      -7.373   9.565  62.897  0.00  0.00     0.084 H 
ATOM     65  C32 non d ame      -7.855   6.194  62.834  0.00  0.00    -0.083 A 
ATOM     66  H50 non d ame      -9.146   7.885  62.449  0.00  0.00     0.083 H 
ATOM     67  C33 non d ame      -6.577   5.786  63.189  0.00  0.00    -0.082 A 
ATOM     68  H51 non d ame      -8.627   5.450  62.640  0.00  0.00     0.083 H 
ATOM     69  C34 non d ame      -5.579   6.726  63.438  0.00  0.00    -0.075 A 
ATOM     70  H52 non d ame      -6.355   4.722  63.274  0.00  0.00     0.083 H 
ATOM     71  H53 non d ame      -4.577   6.397  63.716  0.00  0.00     0.084 H 
ENDBRANCH  58  61
ENDBRANCH  57  58
ENDBRANCH  55  57
ENDBRANCH  52  55
ENDBRANCH  49  52
ENDBRANCH  47  49
BRANCH  47  72
ATOM     72  C24 non d ame      -8.464   7.130  66.382  0.00  0.00    -0.039 C 
ATOM     73  H35 non d ame      -9.213   7.856  66.064  0.00  0.00     0.036 H 
ATOM     74  H36 non d ame      -7.685   6.812  65.690  0.00  0.00     0.036 H 
BRANCH  72  75
ATOM     75  C25 non d ame      -9.250   5.814  66.846  0.00  0.00    -0.001 C 
ATOM     76  C26 non d ame      -8.957   4.586  65.792  0.00  0.00    -0.035 C 
ATOM     77  C27 non d ame     -10.140   4.056  65.399  0.00  0.00     0.085 C 
ATOM     78  H38 non d ame      -8.535   4.980  64.868  0.00  0.00     0.036 H 
ATOM     79  H39 non d ame      -8.467   3.760  66.307  0.00  0.00     0.036 H 
ATOM     80  N5  non d ame     -11.220   5.018  65.832  0.00  0.00    -0.049 N 
ATOM     81  H40 non d ame     -10.101   4.033  64.309  0.00  0.00     0.075 H 
ATOM     82  H41 non d ame     -10.245   3.129  65.961  0.00  0.00     0.075 H 
ATOM     83  C28 non d ame     -10.524   6.020  66.889  0.00  0.00     0.193 C 
ATOM     84  H42 non d ame     -11.479   5.546  65.011  0.00  0.00     0.280 HD
ATOM     85  H43 non d ame     -11.914   4.469  66.319  0.00  0.00     0.280 HD
ATOM     86  H44 non d ame     -10.707   5.912  67.958  0.00  0.00     0.129 H 
ATOM     87  H37 non d ame      -9.111   5.601  67.906  0.00  0.00     0.046 H 
BRANCH  83  88
ATOM     88  O6  non d ame     -10.861   7.374  66.580  0.00  0.00    -0.369 OA
ATOM     89  H45 non d ame     -10.527   7.952  67.269  0.00  0.00     0.212 HD
ENDBRANCH  83  88
ENDBRANCH  72  75
ENDBRANCH  47  72
ENDBRANCH  45  47
ENDBRANCH   1  43
BRANCH   1  90
ATOM     90  C16 non d ame     -11.102   9.406  70.970  0.00  0.00    -0.035 C 
ATOM     91  H21 non d ame     -11.134   8.324  70.840  0.00  0.00     0.037 H 
ATOM     92  H22 non d ame     -10.713   9.832  71.896  0.00  0.00     0.037 H 
BRANCH  90  93
ATOM     93  C17 non d ame     -12.574   9.910  70.838  0.00  0.00    -0.059 C 
ATOM     94  H23 non d ame     -12.798  10.003  69.775  0.00  0.00     0.038 H 
BRANCH  93  95
ATOM     95  C18 non d ame     -13.599   8.904  71.454  0.00  0.00    -0.073 C 
ATOM     96  H24 non d ame     -13.187   8.481  72.369  0.00  0.00     0.028 H 
ATOM     97  H25 non d ame     -14.529   9.427  71.681  0.00  0.00     0.028 H 
ATOM     98  H26 non d ame     -13.797   8.104  70.740  0.00  0.00     0.028 H 
ENDBRANCH  93  95
BRANCH  93  99
ATOM     99  C19 non d ame     -12.735  11.300  71.459  0.00  0.00    -0.073 C 
ATOM    100  H27 non d ame     -13.794  11.510  71.611  0.00  0.00     0.028 H 
ATOM    101  H28 non d ame     -12.217  11.331  72.418  0.00  0.00     0.028 H 
ATOM    102  H29 non d ame     -12.308  12.048  70.791  0.00  0.00     0.028 H 
ENDBRANCH  93  99
ENDBRANCH  90  93
ENDBRANCH   1  90
TORSDOF 26
ENDMDL
MODEL 15
REMARK VINA RESULT:      -6.1      2.636      6.317
REMARK  26 active torsions:
REMARK  status: ('A' for Active; 'I' for Inactive)
REMARK    1  A    between atoms: C2_2  and  C3_3 
REMARK    2  A    between atoms: C4_6  and  C5_7 
REMARK       I    between atoms: C5_7  and  N2_9 
REMARK    3  A    between atoms: N2_9  and  C6_10 
REMARK    4  A    between atoms: C6_10  and  C7_11 
REMARK    5  A    between atoms: C6_10  and  C8_13 
REMARK       I    between atoms: C7_11  and  N3_14 
REMARK    6  A    between atoms: N3_14  and  C9_15 
REMARK    7  A    between atoms: C9_15  and  C10_16 
REMARK    8  A    between atoms: C9_15  and  C11_18 
REMARK       I    between atoms: C10_16  and  N4_21 
REMARK    9  A    between atoms: C11_18  and  C12_19 
REMARK   10  A    between atoms: C11_18  and  C13_20 
REMARK   11  A    between atoms: N4_21  and  C14_22 
REMARK   12  A    between atoms: C14_22  and  C15_23 
REMARK   13  A    between atoms: C14_22  and  C16_25 
REMARK       I    between atoms: C15_23  and  N6_40 
REMARK   14  A    between atoms: C16_25  and  C17_26 
REMARK   15  A    between atoms: C17_26  and  C18_27 
REMARK   16  A    between atoms: C17_26  and  C19_28 
REMARK   17  A    between atoms: C20_29  and  C21_30 
REMARK   18  A    between atoms: C20_29  and  C24_33 
REMARK   19  A    between atoms: C20_29  and  N6_40 
REMARK   20  A    between atoms: C21_30  and  C22_31 
REMARK   21  A    between atoms: C22_31  and  C23_32 
REMARK   22  A    between atoms: C23_32  and  O8_43 
REMARK   23  A    between atoms: C24_33  and  C25_34 
REMARK   24  A    between atoms: C28_38  and  O6_39 
REMARK   25  A    between atoms: C29_42  and  O8_43 
REMARK   26  A    between atoms: C29_42  and  C35_49 
ROOT
ATOM      1  C14 non d ame      -9.612  10.020  66.352  0.00  0.00     0.089 C 
ATOM      2  H20 non d ame     -10.543  10.027  65.786  0.00  0.00     0.087 H 
ENDROOT
BRANCH   1   3
ATOM      3  N4  non d ame      -9.695  11.080  67.346  0.00  0.00    -0.346 N 
ATOM      4  C10 non d ame     -11.005  11.781  67.604  0.00  0.00     0.241 C 
ATOM      5  O4  non d ame     -11.979  11.476  66.997  0.00  0.00    -0.271 OA
ATOM      6  H19 non d ame      -8.855  11.325  67.851  0.00  0.00     0.163 HD
BRANCH   4   7
ATOM      7  C9  non d ame     -11.075  12.871  68.641  0.00  0.00     0.092 C 
ATOM      8  H11 non d ame     -10.103  12.969  69.124  0.00  0.00     0.088 H 
BRANCH   7   9
ATOM      9  N3  non d ame     -11.365  14.150  67.986  0.00  0.00    -0.346 N 
ATOM     10  C7  non d ame     -10.335  14.825  67.235  0.00  0.00     0.240 C 
ATOM     11  O3  non d ame      -9.267  14.354  67.149  0.00  0.00    -0.271 OA
ATOM     12  H10 non d ame     -12.281  14.570  68.054  0.00  0.00     0.163 HD
BRANCH  10  13
ATOM     13  C6  non d ame     -10.649  16.188  66.544  0.00  0.00     0.086 C 
ATOM     14  H6  non d ame     -11.528  16.680  66.960  0.00  0.00     0.086 H 
BRANCH  13  15
ATOM     15  N2  non d ame      -9.529  17.091  66.752  0.00  0.00    -0.343 N 
ATOM     16  C5  non d ame      -9.762  18.396  67.375  0.00  0.00     0.273 C 
ATOM     17  O2  non d ame     -10.853  18.711  67.702  0.00  0.00    -0.266 OA
ATOM     18  H5  non d ame      -8.600  16.816  66.467  0.00  0.00     0.163 HD
BRANCH  16  19
ATOM     19  C4  non d ame      -8.587  19.361  67.603  0.00  0.00     0.154 A 
ATOM     20  C1  non d ame      -7.584  19.276  68.619  0.00  0.00    -0.017 A 
ATOM     21  C2  non d ame      -6.745  20.391  68.396  0.00  0.00     0.077 A 
ATOM     22  H1  non d ame      -7.480  18.521  69.399  0.00  0.00     0.091 H 
ATOM     23  O1  non d ame      -7.219  21.033  67.369  0.00  0.00    -0.218 OA
ATOM     24  N1  non d ame      -8.294  20.451  66.889  0.00  0.00    -0.123 NA
BRANCH  21  25
ATOM     25  C3  non d ame      -5.513  20.769  69.208  0.00  0.00    -0.029 C 
ATOM     26  H2  non d ame      -4.624  20.345  68.739  0.00  0.00     0.036 H 
ATOM     27  H3  non d ame      -5.422  21.855  69.244  0.00  0.00     0.036 H 
ATOM     28  H4  non d ame      -5.611  20.379  70.221  0.00  0.00     0.036 H 
ENDBRANCH  21  25
ENDBRANCH  16  19
ENDBRANCH  13  15
BRANCH  13  29
ATOM     29  C8  non d ame     -10.867  15.968  65.068  0.00  0.00    -0.049 C 
ATOM     30  H7  non d ame     -11.584  15.160  64.923  0.00  0.00     0.030 H 
ATOM     31  H8  non d ame     -11.252  16.882  64.617  0.00  0.00     0.030 H 
ATOM     32  H9  non d ame      -9.921  15.701  64.598  0.00  0.00     0.030 H 
ENDBRANCH  13  29
ENDBRANCH  10  13
ENDBRANCH   7   9
BRANCH   7  33
ATOM     33  C11 non d ame     -12.205  12.546  69.661  0.00  0.00    -0.033 C 
ATOM     34  H12 non d ame     -13.140  12.476  69.105  0.00  0.00     0.042 H 
BRANCH  33  35
ATOM     35  C12 non d ame     -11.967  11.167  70.352  0.00  0.00    -0.071 C 
ATOM     36  H13 non d ame     -12.422  11.174  71.343  0.00  0.00     0.028 H 
ATOM     37  H14 non d ame     -12.418  10.377  69.752  0.00  0.00     0.028 H 
ATOM     38  H15 non d ame     -10.896  10.987  70.445  0.00  0.00     0.028 H 
ENDBRANCH  33  35
BRANCH  33  39
ATOM     39  C13 non d ame     -12.354  13.689  70.715  0.00  0.00    -0.071 C 
ATOM     40  H16 non d ame     -12.493  14.641  70.202  0.00  0.00     0.028 H 
ATOM     41  H17 non d ame     -13.218  13.489  71.349  0.00  0.00     0.028 H 
ATOM     42  H18 non d ame     -11.455  13.736  71.330  0.00  0.00     0.028 H 
ENDBRANCH  33  39
ENDBRANCH   7  33
ENDBRANCH   4   7
ENDBRANCH   1   3
BRANCH   1  43
ATOM     43  C15 non d ame      -9.381   8.669  67.087  0.00  0.00     0.240 C 
ATOM     44  O5  non d ame      -8.277   8.250  67.222  0.00  0.00    -0.271 OA
ATOM     45  N6  non d ame     -10.538   7.900  67.629  0.00  0.00    -0.355 N 
ATOM     46  H46 non d ame     -11.480   8.247  67.525  0.00  0.00     0.162 HD
BRANCH  45  47
ATOM     47  C20 non d ame     -10.302   6.617  68.327  0.00  0.00     0.013 C 
ATOM     48  H30 non d ame      -9.282   6.626  68.710  0.00  0.00     0.072 H 
BRANCH  47  49
ATOM     49  C21 non d ame     -10.476   5.477  67.349  0.00  0.00    -0.038 C 
ATOM     50  H31 non d ame     -11.135   4.763  67.843  0.00  0.00     0.036 H 
ATOM     51  H32 non d ame     -10.779   5.940  66.409  0.00  0.00     0.036 H 
BRANCH  49  52
ATOM     52  C22 non d ame      -9.157   4.728  67.061  0.00  0.00     0.018 C 
ATOM     53  H33 non d ame      -8.434   5.116  67.778  0.00  0.00     0.048 H 
ATOM     54  H34 non d ame      -9.413   3.668  67.065  0.00  0.00     0.048 H 
BRANCH  52  55
ATOM     55  C23 non d ame      -8.565   5.020  65.654  0.00  0.00     0.259 C 
ATOM     56  O7  non d ame      -9.196   4.789  64.674  0.00  0.00    -0.265 OA
BRANCH  55  57
ATOM     57  O8  non d ame      -7.251   5.556  65.549  0.00  0.00    -0.317 OA
BRANCH  57  58
ATOM     58  C29 non d ame      -6.783   5.690  64.204  0.00  0.00     0.052 C 
ATOM     59  H47 non d ame      -6.138   4.829  64.029  0.00  0.00     0.082 H 
ATOM     60  H48 non d ame      -7.675   5.836  63.594  0.00  0.00     0.082 H 
BRANCH  58  61
ATOM     61  C35 non d ame      -5.918   6.976  64.124  0.00  0.00    -0.034 A 
ATOM     62  C30 non d ame      -5.679   7.728  65.270  0.00  0.00    -0.075 A 
ATOM     63  C31 non d ame      -4.902   8.883  65.198  0.00  0.00    -0.082 A 
ATOM     64  H49 non d ame      -6.100   7.411  66.224  0.00  0.00     0.084 H 
ATOM     65  C32 non d ame      -4.366   9.288  63.973  0.00  0.00    -0.083 A 
ATOM     66  H50 non d ame      -4.715   9.468  66.098  0.00  0.00     0.083 H 
ATOM     67  C33 non d ame      -4.610   8.537  62.831  0.00  0.00    -0.082 A 
ATOM     68  H51 non d ame      -3.757  10.189  63.908  0.00  0.00     0.083 H 
ATOM     69  C34 non d ame      -5.384   7.380  62.899  0.00  0.00    -0.075 A 
ATOM     70  H52 non d ame      -4.192   8.856  61.876  0.00  0.00     0.083 H 
ATOM     71  H53 non d ame      -5.570   6.795  61.998  0.00  0.00     0.084 H 
ENDBRANCH  58  61
ENDBRANCH  57  58
ENDBRANCH  55  57
ENDBRANCH  52  55
ENDBRANCH  49  52
ENDBRANCH  47  49
BRANCH  47  72
ATOM     72  C24 non d ame     -11.299   6.462  69.473  0.00  0.00    -0.039 C 
ATOM     73  H35 non d ame     -12.260   6.776  69.067  0.00  0.00     0.036 H 
ATOM     74  H36 non d ame     -11.167   5.442  69.836  0.00  0.00     0.036 H 
BRANCH  72  75
ATOM     75  C25 non d ame     -10.958   7.444  70.692  0.00  0.00    -0.001 C 
ATOM     76  C26 non d ame      -9.945   6.695  71.749  0.00  0.00    -0.035 C 
ATOM     77  C27 non d ame     -10.462   6.798  72.997  0.00  0.00     0.085 C 
ATOM     78  H38 non d ame      -9.939   5.621  71.564  0.00  0.00     0.036 H 
ATOM     79  H39 non d ame      -9.004   7.242  71.817  0.00  0.00     0.036 H 
ATOM     80  N5  non d ame     -11.891   7.261  72.845  0.00  0.00    -0.049 N 
ATOM     81  H40 non d ame     -10.458   5.784  73.399  0.00  0.00     0.075 H 
ATOM     82  H41 non d ame      -9.885   7.581  73.487  0.00  0.00     0.075 H 
ATOM     83  C28 non d ame     -12.028   7.791  71.326  0.00  0.00     0.193 C 
ATOM     84  H42 non d ame     -12.471   6.441  72.953  0.00  0.00     0.280 HD
ATOM     85  H43 non d ame     -12.005   8.046  73.471  0.00  0.00     0.280 HD
ATOM     86  H44 non d ame     -12.047   8.860  71.112  0.00  0.00     0.129 H 
ATOM     87  H37 non d ame     -10.672   8.440  70.352  0.00  0.00     0.046 H 
BRANCH  83  88
ATOM     88  O6  non d ame     -13.208   7.259  70.723  0.00  0.00    -0.369 OA
ATOM     89  H45 non d ame     -13.127   7.303  69.768  0.00  0.00     0.212 HD
ENDBRANCH  83  88
ENDBRANCH  72  75
ENDBRANCH  47  72
ENDBRANCH  45  47
ENDBRANCH   1  43
BRANCH   1  90
ATOM     90  C16 non d ame      -8.442  10.303  65.423  0.00  0.00    -0.035 C 
ATOM     91  H21 non d ame      -8.085  11.295  65.702  0.00  0.00     0.037 H 
ATOM     92  H22 non d ame      -7.783   9.440  65.518  0.00  0.00     0.037 H 
BRANCH  90  93
ATOM     93  C17 non d ame      -8.845  10.387  63.916  0.00  0.00    -0.059 C 
ATOM     94  H23 non d ame      -8.191  11.117  63.439  0.00  0.00     0.038 H 
BRANCH  93  95
ATOM     95  C18 non d ame      -8.654   9.023  63.178  0.00  0.00    -0.073 C 
ATOM     96  H24 non d ame      -8.556   8.224  63.913  0.00  0.00     0.028 H 
ATOM     97  H25 non d ame      -9.519   8.830  62.543  0.00  0.00     0.028 H 
ATOM     98  H26 non d ame      -7.755   9.066  62.564  0.00  0.00     0.028 H 
ENDBRANCH  93  95
BRANCH  93  99
ATOM     99  C19 non d ame     -10.281  10.894  63.762  0.00  0.00    -0.073 C 
ATOM    100  H27 non d ame     -10.883  10.543  64.601  0.00  0.00     0.028 H 
ATOM    101  H28 non d ame     -10.282  11.984  63.744  0.00  0.00     0.028 H 
ATOM    102  H29 non d ame     -10.701  10.516  62.830  0.00  0.00     0.028 H 
ENDBRANCH  93  99
ENDBRANCH  90  93
ENDBRANCH   1  90
TORSDOF 26
ENDMDL
MODEL 16
REMARK VINA RESULT:      -6.1      3.444      7.286
REMARK  26 active torsions:
REMARK  status: ('A' for Active; 'I' for Inactive)
REMARK    1  A    between atoms: C2_2  and  C3_3 
REMARK    2  A    between atoms: C4_6  and  C5_7 
REMARK       I    between atoms: C5_7  and  N2_9 
REMARK    3  A    between atoms: N2_9  and  C6_10 
REMARK    4  A    between atoms: C6_10  and  C7_11 
REMARK    5  A    between atoms: C6_10  and  C8_13 
REMARK       I    between atoms: C7_11  and  N3_14 
REMARK    6  A    between atoms: N3_14  and  C9_15 
REMARK    7  A    between atoms: C9_15  and  C10_16 
REMARK    8  A    between atoms: C9_15  and  C11_18 
REMARK       I    between atoms: C10_16  and  N4_21 
REMARK    9  A    between atoms: C11_18  and  C12_19 
REMARK   10  A    between atoms: C11_18  and  C13_20 
REMARK   11  A    between atoms: N4_21  and  C14_22 
REMARK   12  A    between atoms: C14_22  and  C15_23 
REMARK   13  A    between atoms: C14_22  and  C16_25 
REMARK       I    between atoms: C15_23  and  N6_40 
REMARK   14  A    between atoms: C16_25  and  C17_26 
REMARK   15  A    between atoms: C17_26  and  C18_27 
REMARK   16  A    between atoms: C17_26  and  C19_28 
REMARK   17  A    between atoms: C20_29  and  C21_30 
REMARK   18  A    between atoms: C20_29  and  C24_33 
REMARK   19  A    between atoms: C20_29  and  N6_40 
REMARK   20  A    between atoms: C21_30  and  C22_31 
REMARK   21  A    between atoms: C22_31  and  C23_32 
REMARK   22  A    between atoms: C23_32  and  O8_43 
REMARK   23  A    between atoms: C24_33  and  C25_34 
REMARK   24  A    between atoms: C28_38  and  O6_39 
REMARK   25  A    between atoms: C29_42  and  O8_43 
REMARK   26  A    between atoms: C29_42  and  C35_49 
ROOT
ATOM      1  C14 non d ame      -7.051  13.152  68.259  0.00  0.00     0.089 C 
ATOM      2  H20 non d ame      -6.311  12.971  67.478  0.00  0.00     0.087 H 
ENDROOT
BRANCH   1   3
ATOM      3  N4  non d ame      -7.223  14.593  68.373  0.00  0.00    -0.346 N 
ATOM      4  C10 non d ame      -6.208  15.531  67.770  0.00  0.00     0.241 C 
ATOM      5  O4  non d ame      -5.259  15.104  67.200  0.00  0.00    -0.271 OA
ATOM      6  H19 non d ame      -8.035  14.937  68.865  0.00  0.00     0.163 HD
BRANCH   4   7
ATOM      7  C9  non d ame      -6.405  17.020  67.894  0.00  0.00     0.092 C 
ATOM      8  H11 non d ame      -6.070  17.503  66.976  0.00  0.00     0.088 H 
BRANCH   7   9
ATOM      9  N3  non d ame      -7.833  17.313  68.042  0.00  0.00    -0.346 N 
ATOM     10  C7  non d ame      -8.616  17.684  66.889  0.00  0.00     0.240 C 
ATOM     11  O3  non d ame      -8.113  17.752  65.835  0.00  0.00    -0.271 OA
ATOM     12  H10 non d ame      -8.281  17.261  68.946  0.00  0.00     0.163 HD
BRANCH  10  13
ATOM     13  C6  non d ame     -10.136  17.999  67.054  0.00  0.00     0.086 C 
ATOM     14  H6  non d ame     -10.752  17.511  66.299  0.00  0.00     0.086 H 
BRANCH  13  15
ATOM     15  N2  non d ame     -10.584  17.498  68.343  0.00  0.00    -0.343 N 
ATOM     16  C5  non d ame     -11.229  16.185  68.422  0.00  0.00     0.273 C 
ATOM     17  O2  non d ame     -11.385  15.542  67.443  0.00  0.00    -0.266 OA
ATOM     18  H5  non d ame     -10.448  18.056  69.174  0.00  0.00     0.163 HD
BRANCH  16  19
ATOM     19  C4  non d ame     -11.706  15.643  69.778  0.00  0.00     0.154 A 
ATOM     20  C1  non d ame     -12.400  14.416  70.023  0.00  0.00    -0.017 A 
ATOM     21  C2  non d ame     -12.606  14.387  71.420  0.00  0.00     0.077 A 
ATOM     22  H1  non d ame     -12.708  13.662  69.298  0.00  0.00     0.091 H 
ATOM     23  O1  non d ame     -12.085  15.473  71.911  0.00  0.00    -0.218 OA
ATOM     24  N1  non d ame     -11.554  16.222  70.973  0.00  0.00    -0.123 NA
BRANCH  21  25
ATOM     25  C3  non d ame     -13.306  13.286  72.206  0.00  0.00    -0.029 C 
ATOM     26  H2  non d ame     -14.351  13.229  71.900  0.00  0.00     0.036 H 
ATOM     27  H3  non d ame     -12.817  12.332  72.009  0.00  0.00     0.036 H 
ATOM     28  H4  non d ame     -13.251  13.509  73.272  0.00  0.00     0.036 H 
ENDBRANCH  21  25
ENDBRANCH  16  19
ENDBRANCH  13  15
BRANCH  13  29
ATOM     29  C8  non d ame     -10.355  19.488  66.974  0.00  0.00    -0.049 C 
ATOM     30  H7  non d ame     -10.007  19.957  67.894  0.00  0.00     0.030 H 
ATOM     31  H8  non d ame      -9.800  19.892  66.127  0.00  0.00     0.030 H 
ATOM     32  H9  non d ame     -11.417  19.692  66.843  0.00  0.00     0.030 H 
ENDBRANCH  13  29
ENDBRANCH  10  13
ENDBRANCH   7   9
BRANCH   7  33
ATOM     33  C11 non d ame      -5.638  17.542  69.144  0.00  0.00    -0.033 C 
ATOM     34  H12 non d ame      -5.648  16.749  69.891  0.00  0.00     0.042 H 
BRANCH  33  35
ATOM     35  C12 non d ame      -4.145  17.850  68.807  0.00  0.00    -0.071 C 
ATOM     36  H13 non d ame      -3.705  18.437  69.613  0.00  0.00     0.028 H 
ATOM     37  H14 non d ame      -3.597  16.914  68.698  0.00  0.00     0.028 H 
ATOM     38  H15 non d ame      -4.092  18.413  67.876  0.00  0.00     0.028 H 
ENDBRANCH  33  35
BRANCH  33  39
ATOM     39  C13 non d ame      -6.350  18.792  69.754  0.00  0.00    -0.071 C 
ATOM     40  H16 non d ame      -7.428  18.633  69.752  0.00  0.00     0.028 H 
ATOM     41  H17 non d ame      -6.007  18.941  70.779  0.00  0.00     0.028 H 
ATOM     42  H18 non d ame      -6.110  19.673  69.160  0.00  0.00     0.028 H 
ENDBRANCH  33  39
ENDBRANCH   7  33
ENDBRANCH   4   7
ENDBRANCH   1   3
BRANCH   1  43
ATOM     43  C15 non d ame      -8.429  12.514  67.922  0.00  0.00     0.240 C 
ATOM     44  O5  non d ame      -9.423  12.984  68.372  0.00  0.00    -0.271 OA
ATOM     45  N6  non d ame      -8.509  11.322  67.030  0.00  0.00    -0.355 N 
ATOM     46  H46 non d ame      -7.672  10.918  66.638  0.00  0.00     0.162 HD
BRANCH  45  47
ATOM     47  C20 non d ame      -9.827  10.728  66.718  0.00  0.00     0.013 C 
ATOM     48  H30 non d ame     -10.593  11.346  67.187  0.00  0.00     0.072 H 
BRANCH  47  49
ATOM     49  C21 non d ame      -9.886   9.323  67.274  0.00  0.00    -0.038 C 
ATOM     50  H31 non d ame      -9.052   9.247  67.972  0.00  0.00     0.036 H 
ATOM     51  H32 non d ame     -10.908   9.189  67.628  0.00  0.00     0.036 H 
BRANCH  49  52
ATOM     52  C22 non d ame      -9.652   8.242  66.196  0.00  0.00     0.018 C 
ATOM     53  H33 non d ame     -10.568   8.211  65.605  0.00  0.00     0.048 H 
ATOM     54  H34 non d ame      -8.705   8.500  65.720  0.00  0.00     0.048 H 
BRANCH  52  55
ATOM     55  C23 non d ame      -9.466   6.812  66.773  0.00  0.00     0.259 C 
ATOM     56  O7  non d ame      -8.693   6.057  66.277  0.00  0.00    -0.265 OA
BRANCH  55  57
ATOM     57  O8  non d ame     -10.239   6.408  67.896  0.00  0.00    -0.317 OA
BRANCH  57  58
ATOM     58  C29 non d ame      -9.486   6.273  69.105  0.00  0.00     0.052 C 
ATOM     59  H47 non d ame      -9.417   5.202  69.292  0.00  0.00     0.082 H 
ATOM     60  H48 non d ame      -8.579   6.860  68.954  0.00  0.00     0.082 H 
BRANCH  58  61
ATOM     61  C35 non d ame     -10.304   6.921  70.253  0.00  0.00    -0.034 A 
ATOM     62  C30 non d ame      -9.695   7.826  71.117  0.00  0.00    -0.075 A 
ATOM     63  C31 non d ame     -10.430   8.408  72.150  0.00  0.00    -0.082 A 
ATOM     64  H49 non d ame      -8.643   8.080  70.985  0.00  0.00     0.084 H 
ATOM     65  C32 non d ame     -11.778   8.080  72.318  0.00  0.00    -0.083 A 
ATOM     66  H50 non d ame      -9.951   9.118  72.823  0.00  0.00     0.083 H 
ATOM     67  C33 non d ame     -12.379   7.174  71.455  0.00  0.00    -0.082 A 
ATOM     68  H51 non d ame     -12.359   8.530  73.122  0.00  0.00     0.083 H 
ATOM     69  C34 non d ame     -11.650   6.591  70.421  0.00  0.00    -0.075 A 
ATOM     70  H52 non d ame     -13.431   6.918  71.591  0.00  0.00     0.083 H 
ATOM     71  H53 non d ame     -12.130   5.881  69.747  0.00  0.00     0.084 H 
ENDBRANCH  58  61
ENDBRANCH  57  58
ENDBRANCH  55  57
ENDBRANCH  52  55
ENDBRANCH  49  52
ENDBRANCH  47  49
BRANCH  47  72
ATOM     72  C24 non d ame     -10.030  10.688  65.205  0.00  0.00    -0.039 C 
ATOM     73  H35 non d ame      -9.102  10.285  64.799  0.00  0.00     0.036 H 
ATOM     74  H36 non d ame     -10.969  10.154  65.053  0.00  0.00     0.036 H 
BRANCH  72  75
ATOM     75  C25 non d ame     -10.216  12.156  64.593  0.00  0.00    -0.001 C 
ATOM     76  C26 non d ame     -11.410  12.952  65.397  0.00  0.00    -0.035 C 
ATOM     77  C27 non d ame     -12.289  13.448  64.494  0.00  0.00     0.085 C 
ATOM     78  H38 non d ame     -12.007  12.245  65.973  0.00  0.00     0.036 H 
ATOM     79  H39 non d ame     -11.007  13.844  65.877  0.00  0.00     0.036 H 
ATOM     80  N5  non d ame     -11.984  12.787  63.172  0.00  0.00    -0.049 N 
ATOM     81  H40 non d ame     -13.272  13.122  64.836  0.00  0.00     0.075 H 
ATOM     82  H41 non d ame     -12.062  14.511  64.421  0.00  0.00     0.075 H 
ATOM     83  C28 non d ame     -10.531  12.104  63.341  0.00  0.00     0.193 C 
ATOM     84  H42 non d ame     -12.671  12.056  63.052  0.00  0.00     0.280 HD
ATOM     85  H43 non d ame     -11.912  13.530  62.491  0.00  0.00     0.280 HD
ATOM     86  H44 non d ame      -9.648  12.563  62.896  0.00  0.00     0.129 H 
ATOM     87  H37 non d ame      -9.266  12.677  64.473  0.00  0.00     0.046 H 
BRANCH  83  88
ATOM     88  O6  non d ame     -10.556  10.764  62.847  0.00  0.00    -0.369 OA
ATOM     89  H45 non d ame     -10.755  10.773  61.908  0.00  0.00     0.212 HD
ENDBRANCH  83  88
ENDBRANCH  72  75
ENDBRANCH  47  72
ENDBRANCH  45  47
ENDBRANCH   1  43
BRANCH   1  90
ATOM     90  C16 non d ame      -6.545  12.606  69.584  0.00  0.00    -0.035 C 
ATOM     91  H21 non d ame      -7.370  12.737  70.285  0.00  0.00     0.037 H 
ATOM     92  H22 non d ame      -6.173  11.606  69.361  0.00  0.00     0.037 H 
BRANCH  90  93
ATOM     93  C17 non d ame      -5.338  13.405  70.172  0.00  0.00    -0.059 C 
ATOM     94  H23 non d ame      -5.193  14.289  69.551  0.00  0.00     0.038 H 
BRANCH  93  95
ATOM     95  C18 non d ame      -5.606  13.887  71.634  0.00  0.00    -0.073 C 
ATOM     96  H24 non d ame      -6.153  13.116  72.175  0.00  0.00     0.028 H 
ATOM     97  H25 non d ame      -4.655  14.077  72.133  0.00  0.00     0.028 H 
ATOM     98  H26 non d ame      -6.194  14.804  71.611  0.00  0.00     0.028 H 
ENDBRANCH  93  95
BRANCH  93  99
ATOM     99  C19 non d ame      -4.049  12.582  70.097  0.00  0.00    -0.073 C 
ATOM    100  H27 non d ame      -4.284  11.526  70.236  0.00  0.00     0.028 H 
ATOM    101  H28 non d ame      -3.583  12.725  69.122  0.00  0.00     0.028 H 
ATOM    102  H29 non d ame      -3.364  12.909  70.878  0.00  0.00     0.028 H 
ENDBRANCH  93  99
ENDBRANCH  90  93
ENDBRANCH   1  90
TORSDOF 26
ENDMDL
MODEL 17
REMARK VINA RESULT:      -6.1      2.087      3.170
REMARK  26 active torsions:
REMARK  status: ('A' for Active; 'I' for Inactive)
REMARK    1  A    between atoms: C2_2  and  C3_3 
REMARK    2  A    between atoms: C4_6  and  C5_7 
REMARK       I    between atoms: C5_7  and  N2_9 
REMARK    3  A    between atoms: N2_9  and  C6_10 
REMARK    4  A    between atoms: C6_10  and  C7_11 
REMARK    5  A    between atoms: C6_10  and  C8_13 
REMARK       I    between atoms: C7_11  and  N3_14 
REMARK    6  A    between atoms: N3_14  and  C9_15 
REMARK    7  A    between atoms: C9_15  and  C10_16 
REMARK    8  A    between atoms: C9_15  and  C11_18 
REMARK       I    between atoms: C10_16  and  N4_21 
REMARK    9  A    between atoms: C11_18  and  C12_19 
REMARK   10  A    between atoms: C11_18  and  C13_20 
REMARK   11  A    between atoms: N4_21  and  C14_22 
REMARK   12  A    between atoms: C14_22  and  C15_23 
REMARK   13  A    between atoms: C14_22  and  C16_25 
REMARK       I    between atoms: C15_23  and  N6_40 
REMARK   14  A    between atoms: C16_25  and  C17_26 
REMARK   15  A    between atoms: C17_26  and  C18_27 
REMARK   16  A    between atoms: C17_26  and  C19_28 
REMARK   17  A    between atoms: C20_29  and  C21_30 
REMARK   18  A    between atoms: C20_29  and  C24_33 
REMARK   19  A    between atoms: C20_29  and  N6_40 
REMARK   20  A    between atoms: C21_30  and  C22_31 
REMARK   21  A    between atoms: C22_31  and  C23_32 
REMARK   22  A    between atoms: C23_32  and  O8_43 
REMARK   23  A    between atoms: C24_33  and  C25_34 
REMARK   24  A    between atoms: C28_38  and  O6_39 
REMARK   25  A    between atoms: C29_42  and  O8_43 
REMARK   26  A    between atoms: C29_42  and  C35_49 
ROOT
ATOM      1  C14 non d ame      -8.103   5.954  66.066  0.00  0.00     0.089 C 
ATOM      2  H20 non d ame      -8.220   5.293  65.207  0.00  0.00     0.087 H 
ENDROOT
BRANCH   1   3
ATOM      3  N4  non d ame      -7.999   7.315  65.561  0.00  0.00    -0.346 N 
ATOM      4  C10 non d ame      -7.959   7.575  64.076  0.00  0.00     0.241 C 
ATOM      5  O4  non d ame      -8.008   6.672  63.307  0.00  0.00    -0.271 OA
ATOM      6  H19 non d ame      -7.956   8.069  66.232  0.00  0.00     0.163 HD
BRANCH   4   7
ATOM      7  C9  non d ame      -7.857   8.990  63.570  0.00  0.00     0.092 C 
ATOM      8  H11 non d ame      -8.052   9.003  62.498  0.00  0.00     0.088 H 
BRANCH   7   9
ATOM      9  N3  non d ame      -8.889   9.813  64.208  0.00  0.00    -0.346 N 
ATOM     10  C7  non d ame      -9.610  10.793  63.433  0.00  0.00     0.240 C 
ATOM     11  O3  non d ame      -9.371  10.934  62.296  0.00  0.00    -0.271 OA
ATOM     12  H10 non d ame      -9.105   9.704  65.189  0.00  0.00     0.163 HD
BRANCH  10  13
ATOM     13  C6  non d ame     -10.706  11.668  64.119  0.00  0.00     0.086 C 
ATOM     14  H6  non d ame     -11.026  11.265  65.079  0.00  0.00     0.086 H 
BRANCH  13  15
ATOM     15  N2  non d ame     -10.158  12.988  64.382  0.00  0.00    -0.343 N 
ATOM     16  C5  non d ame     -10.934  13.946  65.173  0.00  0.00     0.273 C 
ATOM     17  O2  non d ame     -11.998  13.646  65.589  0.00  0.00    -0.266 OA
ATOM     18  H5  non d ame      -9.248  13.237  64.020  0.00  0.00     0.163 HD
BRANCH  16  19
ATOM     19  C4  non d ame     -10.366  15.345  65.461  0.00  0.00     0.154 A 
ATOM     20  C1  non d ame      -9.227  15.667  66.264  0.00  0.00    -0.017 A 
ATOM     21  C2  non d ame      -9.129  17.075  66.207  0.00  0.00     0.077 A 
ATOM     22  H1  non d ame      -8.571  14.984  66.804  0.00  0.00     0.091 H 
ATOM     23  O1  non d ame     -10.102  17.501  65.456  0.00  0.00    -0.218 OA
ATOM     24  N1  non d ame     -10.838  16.510  65.009  0.00  0.00    -0.123 NA
BRANCH  21  25
ATOM     25  C3  non d ame      -8.077  17.934  66.897  0.00  0.00    -0.029 C 
ATOM     26  H2  non d ame      -8.569  18.709  67.485  0.00  0.00     0.036 H 
ATOM     27  H3  non d ame      -7.472  17.310  67.554  0.00  0.00     0.036 H 
ATOM     28  H4  non d ame      -7.437  18.399  66.147  0.00  0.00     0.036 H 
ENDBRANCH  21  25
ENDBRANCH  16  19
ENDBRANCH  13  15
BRANCH  13  29
ATOM     29  C8  non d ame     -11.905  11.778  63.212  0.00  0.00    -0.049 C 
ATOM     30  H7  non d ame     -11.910  12.757  62.732  0.00  0.00     0.030 H 
ATOM     31  H8  non d ame     -11.856  11.000  62.449  0.00  0.00     0.030 H 
ATOM     32  H9  non d ame     -12.815  11.656  63.798  0.00  0.00     0.030 H 
ENDBRANCH  13  29
ENDBRANCH  10  13
ENDBRANCH   7   9
BRANCH   7  33
ATOM     33  C11 non d ame      -6.452   9.565  63.917  0.00  0.00    -0.033 C 
ATOM     34  H12 non d ame      -6.518  10.020  64.905  0.00  0.00     0.042 H 
BRANCH  33  35
ATOM     35  C12 non d ame      -5.378   8.435  63.991  0.00  0.00    -0.071 C 
ATOM     36  H13 non d ame      -5.438   7.941  64.961  0.00  0.00     0.028 H 
ATOM     37  H14 non d ame      -5.562   7.707  63.202  0.00  0.00     0.028 H 
ATOM     38  H15 non d ame      -4.387   8.868  63.864  0.00  0.00     0.028 H 
ENDBRANCH  33  35
BRANCH  33  39
ATOM     39  C13 non d ame      -6.036  10.676  62.900  0.00  0.00    -0.071 C 
ATOM     40  H16 non d ame      -6.266  11.656  63.318  0.00  0.00     0.028 H 
ATOM     41  H17 non d ame      -4.966  10.607  62.704  0.00  0.00     0.028 H 
ATOM     42  H18 non d ame      -6.585  10.539  61.969  0.00  0.00     0.028 H 
ENDBRANCH  33  39
ENDBRANCH   7  33
ENDBRANCH   4   7
ENDBRANCH   1   3
BRANCH   1  43
ATOM     43  C15 non d ame      -9.316   5.877  67.036  0.00  0.00     0.240 C 
ATOM     44  O5  non d ame     -10.371   5.507  66.635  0.00  0.00    -0.271 OA
ATOM     45  N6  non d ame      -9.160   6.257  68.469  0.00  0.00    -0.355 N 
ATOM     46  H46 non d ame      -8.267   6.569  68.823  0.00  0.00     0.162 HD
BRANCH  45  47
ATOM     47  C20 non d ame     -10.323   6.177  69.380  0.00  0.00     0.013 C 
ATOM     48  H30 non d ame     -11.074   5.543  68.909  0.00  0.00     0.072 H 
BRANCH  47  49
ATOM     49  C21 non d ame     -10.882   7.565  69.599  0.00  0.00    -0.038 C 
ATOM     50  H31 non d ame     -11.769   7.628  68.967  0.00  0.00     0.036 H 
ATOM     51  H32 non d ame     -10.974   7.678  70.679  0.00  0.00     0.036 H 
BRANCH  49  52
ATOM     52  C22 non d ame      -9.926   8.679  69.122  0.00  0.00     0.018 C 
ATOM     53  H33 non d ame      -9.842   9.374  69.958  0.00  0.00     0.048 H 
ATOM     54  H34 non d ame      -9.038   8.167  68.749  0.00  0.00     0.048 H 
BRANCH  52  55
ATOM     55  C23 non d ame     -10.475   9.508  67.928  0.00  0.00     0.259 C 
ATOM     56  O7  non d ame      -9.982   9.414  66.851  0.00  0.00    -0.265 OA
BRANCH  55  57
ATOM     57  O8  non d ame     -11.568  10.393  68.139  0.00  0.00    -0.317 OA
BRANCH  57  58
ATOM     58  C29 non d ame     -11.181  11.721  68.504  0.00  0.00     0.052 C 
ATOM     59  H47 non d ame     -10.116  11.664  68.733  0.00  0.00     0.082 H 
ATOM     60  H48 non d ame     -11.531  12.363  67.697  0.00  0.00     0.082 H 
BRANCH  58  61
ATOM     61  C35 non d ame     -11.943  12.102  69.801  0.00  0.00    -0.034 A 
ATOM     62  C30 non d ame     -12.144  13.441  70.123  0.00  0.00    -0.075 A 
ATOM     63  C31 non d ame     -12.828  13.784  71.288  0.00  0.00    -0.082 A 
ATOM     64  H49 non d ame     -11.765  14.221  69.462  0.00  0.00     0.084 H 
ATOM     65  C32 non d ame     -13.311  12.782  72.134  0.00  0.00    -0.083 A 
ATOM     66  H50 non d ame     -12.986  14.834  71.536  0.00  0.00     0.083 H 
ATOM     67  C33 non d ame     -13.105  11.448  71.811  0.00  0.00    -0.082 A 
ATOM     68  H51 non d ame     -13.847  13.041  73.047  0.00  0.00     0.083 H 
ATOM     69  C34 non d ame     -12.423  11.100  70.646  0.00  0.00    -0.075 A 
ATOM     70  H52 non d ame     -13.481  10.669  72.474  0.00  0.00     0.083 H 
ATOM     71  H53 non d ame     -12.267  10.050  70.398  0.00  0.00     0.084 H 
ENDBRANCH  58  61
ENDBRANCH  57  58
ENDBRANCH  55  57
ENDBRANCH  52  55
ENDBRANCH  49  52
ENDBRANCH  47  49
BRANCH  47  72
ATOM     72  C24 non d ame      -9.891   5.584  70.719  0.00  0.00    -0.039 C 
ATOM     73  H35 non d ame     -10.032   4.508  70.619  0.00  0.00     0.036 H 
ATOM     74  H36 non d ame      -8.896   5.987  70.907  0.00  0.00     0.036 H 
BRANCH  72  75
ATOM     75  C25 non d ame     -10.834   6.076  71.917  0.00  0.00    -0.001 C 
ATOM     76  C26 non d ame     -10.067   7.237  72.793  0.00  0.00    -0.035 C 
ATOM     77  C27 non d ame     -10.114   6.896  74.104  0.00  0.00     0.085 C 
ATOM     78  H38 non d ame      -9.002   7.233  72.567  0.00  0.00     0.036 H 
ATOM     79  H39 non d ame     -10.631   8.169  72.753  0.00  0.00     0.036 H 
ATOM     80  N5  non d ame     -10.552   5.453  74.169  0.00  0.00    -0.049 N 
ATOM     81  H40 non d ame      -9.086   6.971  74.461  0.00  0.00     0.075 H 
ATOM     82  H41 non d ame     -10.890   7.523  74.540  0.00  0.00     0.075 H 
ATOM     83  C28 non d ame     -11.135   5.099  72.706  0.00  0.00     0.193 C 
ATOM     84  H42 non d ame      -9.717   4.906  74.324  0.00  0.00     0.280 HD
ATOM     85  H43 non d ame     -11.311   5.414  74.835  0.00  0.00     0.280 HD
ATOM     86  H44 non d ame     -12.210   5.033  72.539  0.00  0.00     0.129 H 
ATOM     87  H37 non d ame     -11.847   6.297  71.580  0.00  0.00     0.046 H 
BRANCH  83  88
ATOM     88  O6  non d ame     -10.601   3.854  72.251  0.00  0.00    -0.369 OA
ATOM     89  H45 non d ame     -10.456   3.275  73.002  0.00  0.00     0.212 HD
ENDBRANCH  83  88
ENDBRANCH  72  75
ENDBRANCH  47  72
ENDBRANCH  45  47
ENDBRANCH   1  43
BRANCH   1  90
ATOM     90  C16 non d ame      -6.826   5.604  66.815  0.00  0.00    -0.035 C 
ATOM     91  H21 non d ame      -6.222   6.512  66.795  0.00  0.00     0.037 H 
ATOM     92  H22 non d ame      -7.155   5.190  67.768  0.00  0.00     0.037 H 
BRANCH  90  93
ATOM     93  C17 non d ame      -5.977   4.493  66.120  0.00  0.00    -0.059 C 
ATOM     94  H23 non d ame      -6.659   3.707  65.799  0.00  0.00     0.038 H 
BRANCH  93  95
ATOM     95  C18 non d ame      -5.234   5.026  64.852  0.00  0.00    -0.073 C 
ATOM     96  H24 non d ame      -4.171   4.802  64.933  0.00  0.00     0.028 H 
ATOM     97  H25 non d ame      -5.641   4.542  63.963  0.00  0.00     0.028 H 
ATOM     98  H26 non d ame      -5.375   6.104  64.775  0.00  0.00     0.028 H 
ENDBRANCH  93  95
BRANCH  93  99
ATOM     99  C19 non d ame      -4.989   3.864  67.105  0.00  0.00    -0.073 C 
ATOM    100  H27 non d ame      -4.149   4.543  67.262  0.00  0.00     0.028 H 
ATOM    101  H28 non d ame      -5.491   3.681  68.056  0.00  0.00     0.028 H 
ATOM    102  H29 non d ame      -4.623   2.921  66.700  0.00  0.00     0.028 H 
ENDBRANCH  93  99
ENDBRANCH  90  93
ENDBRANCH   1  90
TORSDOF 26
ENDMDL
MODEL 18
REMARK VINA RESULT:      -6.1      1.962      3.099
REMARK  26 active torsions:
REMARK  status: ('A' for Active; 'I' for Inactive)
REMARK    1  A    between atoms: C2_2  and  C3_3 
REMARK    2  A    between atoms: C4_6  and  C5_7 
REMARK       I    between atoms: C5_7  and  N2_9 
REMARK    3  A    between atoms: N2_9  and  C6_10 
REMARK    4  A    between atoms: C6_10  and  C7_11 
REMARK    5  A    between atoms: C6_10  and  C8_13 
REMARK       I    between atoms: C7_11  and  N3_14 
REMARK    6  A    between atoms: N3_14  and  C9_15 
REMARK    7  A    between atoms: C9_15  and  C10_16 
REMARK    8  A    between atoms: C9_15  and  C11_18 
REMARK       I    between atoms: C10_16  and  N4_21 
REMARK    9  A    between atoms: C11_18  and  C12_19 
REMARK   10  A    between atoms: C11_18  and  C13_20 
REMARK   11  A    between atoms: N4_21  and  C14_22 
REMARK   12  A    between atoms: C14_22  and  C15_23 
REMARK   13  A    between atoms: C14_22  and  C16_25 
REMARK       I    between atoms: C15_23  and  N6_40 
REMARK   14  A    between atoms: C16_25  and  C17_26 
REMARK   15  A    between atoms: C17_26  and  C18_27 
REMARK   16  A    between atoms: C17_26  and  C19_28 
REMARK   17  A    between atoms: C20_29  and  C21_30 
REMARK   18  A    between atoms: C20_29  and  C24_33 
REMARK   19  A    between atoms: C20_29  and  N6_40 
REMARK   20  A    between atoms: C21_30  and  C22_31 
REMARK   21  A    between atoms: C22_31  and  C23_32 
REMARK   22  A    between atoms: C23_32  and  O8_43 
REMARK   23  A    between atoms: C24_33  and  C25_34 
REMARK   24  A    between atoms: C28_38  and  O6_39 
REMARK   25  A    between atoms: C29_42  and  O8_43 
REMARK   26  A    between atoms: C29_42  and  C35_49 
ROOT
ATOM      1  C14 non d ame      -8.353   8.703  63.009  0.00  0.00     0.089 C 
ATOM      2  H20 non d ame      -9.258   8.973  62.464  0.00  0.00     0.087 H 
ENDROOT
BRANCH   1   3
ATOM      3  N4  non d ame      -8.418   9.346  64.313  0.00  0.00    -0.346 N 
ATOM      4  C10 non d ame      -9.551  10.284  64.643  0.00  0.00     0.241 C 
ATOM      5  O4  non d ame     -10.398  10.509  63.842  0.00  0.00    -0.271 OA
ATOM      6  H19 non d ame      -7.687   9.143  64.979  0.00  0.00     0.163 HD
BRANCH   4   7
ATOM      7  C9  non d ame      -9.606  10.936  66.000  0.00  0.00     0.092 C 
ATOM      8  H11 non d ame      -8.652  11.423  66.202  0.00  0.00     0.088 H 
BRANCH   7   9
ATOM      9  N3  non d ame     -10.634  11.981  65.999  0.00  0.00    -0.346 N 
ATOM     10  C7  non d ame     -10.274  13.346  66.294  0.00  0.00     0.240 C 
ATOM     11  O3  non d ame      -9.163  13.621  66.535  0.00  0.00    -0.271 OA
ATOM     12  H10 non d ame     -11.598  11.759  65.794  0.00  0.00     0.163 HD
BRANCH  10  13
ATOM     13  C6  non d ame     -11.374  14.454  66.294  0.00  0.00     0.086 C 
ATOM     14  H6  non d ame     -11.912  14.513  67.240  0.00  0.00     0.086 H 
BRANCH  13  15
ATOM     15  N2  non d ame     -10.741  15.747  66.094  0.00  0.00    -0.343 N 
ATOM     16  C5  non d ame     -10.660  16.691  67.210  0.00  0.00     0.273 C 
ATOM     17  O2  non d ame     -11.110  16.402  68.265  0.00  0.00    -0.266 OA
ATOM     18  H5  non d ame     -10.362  15.986  65.189  0.00  0.00     0.163 HD
BRANCH  16  19
ATOM     19  C4  non d ame      -9.993  18.061  67.013  0.00  0.00     0.154 A 
ATOM     20  C1  non d ame      -8.724  18.486  67.521  0.00  0.00    -0.017 A 
ATOM     21  C2  non d ame      -8.575  19.813  67.062  0.00  0.00     0.077 A 
ATOM     22  H1  non d ame      -8.020  17.918  68.130  0.00  0.00     0.091 H 
ATOM     23  O1  non d ame      -9.637  20.106  66.371  0.00  0.00    -0.218 OA
ATOM     24  N1  non d ame     -10.479  19.100  66.329  0.00  0.00    -0.123 NA
BRANCH  21  25
ATOM     25  C3  non d ame      -7.388  20.731  67.327  0.00  0.00    -0.029 C 
ATOM     26  H2  non d ame      -6.593  20.166  67.815  0.00  0.00     0.036 H 
ATOM     27  H3  non d ame      -7.022  21.132  66.382  0.00  0.00     0.036 H 
ATOM     28  H4  non d ame      -7.700  21.552  67.974  0.00  0.00     0.036 H 
ENDBRANCH  21  25
ENDBRANCH  16  19
ENDBRANCH  13  15
BRANCH  13  29
ATOM     29  C8  non d ame     -12.362  14.185  65.188  0.00  0.00    -0.049 C 
ATOM     30  H7  non d ame     -13.300  13.831  65.616  0.00  0.00     0.030 H 
ATOM     31  H8  non d ame     -12.541  15.104  64.630  0.00  0.00     0.030 H 
ATOM     32  H9  non d ame     -11.960  13.425  64.519  0.00  0.00     0.030 H 
ENDBRANCH  13  29
ENDBRANCH  10  13
ENDBRANCH   7   9
BRANCH   7  33
ATOM     33  C11 non d ame      -9.958   9.867  67.075  0.00  0.00    -0.033 C 
ATOM     34  H12 non d ame     -10.215   8.946  66.552  0.00  0.00     0.042 H 
BRANCH  33  35
ATOM     35  C12 non d ame      -8.733   9.559  67.992  0.00  0.00    -0.071 C 
ATOM     36  H13 non d ame      -8.163  10.474  68.158  0.00  0.00     0.028 H 
ATOM     37  H14 non d ame      -9.083   9.172  68.948  0.00  0.00     0.028 H 
ATOM     38  H15 non d ame      -8.097   8.817  67.510  0.00  0.00     0.028 H 
ENDBRANCH  33  35
BRANCH  33  39
ATOM     39  C13 non d ame     -11.198  10.308  67.917  0.00  0.00    -0.071 C 
ATOM     40  H16 non d ame     -10.905  10.432  68.959  0.00  0.00     0.028 H 
ATOM     41  H17 non d ame     -11.582  11.253  67.532  0.00  0.00     0.028 H 
ATOM     42  H18 non d ame     -11.974   9.545  67.846  0.00  0.00     0.028 H 
ENDBRANCH  33  39
ENDBRANCH   7  33
ENDBRANCH   4   7
ENDBRANCH   1   3
BRANCH   1  43
ATOM     43  C15 non d ame      -8.232   7.166  63.219  0.00  0.00     0.240 C 
ATOM     44  O5  non d ame      -7.852   6.476  62.330  0.00  0.00    -0.271 OA
ATOM     45  N6  non d ame      -8.581   6.556  64.534  0.00  0.00    -0.355 N 
ATOM     46  H46 non d ame      -8.900   7.133  65.299  0.00  0.00     0.162 HD
BRANCH  45  47
ATOM     47  C20 non d ame      -8.459   5.094  64.719  0.00  0.00     0.013 C 
ATOM     48  H30 non d ame      -8.211   4.653  63.754  0.00  0.00     0.072 H 
BRANCH  47  49
ATOM     49  C21 non d ame      -9.775   4.542  65.217  0.00  0.00    -0.038 C 
ATOM     50  H31 non d ame     -10.510   5.328  65.041  0.00  0.00     0.036 H 
ATOM     51  H32 non d ame      -9.888   3.571  64.733  0.00  0.00     0.036 H 
BRANCH  49  52
ATOM     52  C22 non d ame      -9.776   4.275  66.738  0.00  0.00     0.018 C 
ATOM     53  H33 non d ame     -10.435   3.418  66.887  0.00  0.00     0.048 H 
ATOM     54  H34 non d ame      -8.727   4.212  67.027  0.00  0.00     0.048 H 
BRANCH  52  55
ATOM     55  C23 non d ame     -10.384   5.433  67.576  0.00  0.00     0.259 C 
ATOM     56  O7  non d ame     -10.785   6.417  67.045  0.00  0.00    -0.265 OA
BRANCH  55  57
ATOM     57  O8  non d ame     -10.445   5.310  68.992  0.00  0.00    -0.317 OA
BRANCH  57  58
ATOM     58  C29 non d ame      -9.763   6.352  69.697  0.00  0.00     0.052 C 
ATOM     59  H47 non d ame      -9.103   5.848  70.403  0.00  0.00     0.082 H 
ATOM     60  H48 non d ame      -9.344   7.002  68.929  0.00  0.00     0.082 H 
BRANCH  58  61
ATOM     61  C35 non d ame     -10.819   7.158  70.499  0.00  0.00    -0.034 A 
ATOM     62  C30 non d ame     -10.510   8.427  70.978  0.00  0.00    -0.075 A 
ATOM     63  C31 non d ame     -11.458   9.151  71.699  0.00  0.00    -0.082 A 
ATOM     64  H49 non d ame      -9.525   8.855  70.788  0.00  0.00     0.084 H 
ATOM     65  C32 non d ame     -12.719   8.600  71.944  0.00  0.00    -0.083 A 
ATOM     66  H50 non d ame     -11.214  10.147  72.071  0.00  0.00     0.083 H 
ATOM     67  C33 non d ame     -13.021   7.332  71.467  0.00  0.00    -0.082 A 
ATOM     68  H51 non d ame     -13.466   9.160  72.506  0.00  0.00     0.083 H 
ATOM     69  C34 non d ame     -12.077   6.606  70.744  0.00  0.00    -0.075 A 
ATOM     70  H52 non d ame     -14.005   6.904  71.661  0.00  0.00     0.083 H 
ATOM     71  H53 non d ame     -12.323   5.611  70.372  0.00  0.00     0.084 H 
ENDBRANCH  58  61
ENDBRANCH  57  58
ENDBRANCH  55  57
ENDBRANCH  52  55
ENDBRANCH  49  52
ENDBRANCH  47  49
BRANCH  47  72
ATOM     72  C24 non d ame      -7.361   4.792  65.737  0.00  0.00    -0.039 C 
ATOM     73  H35 non d ame      -7.811   4.978  66.713  0.00  0.00     0.036 H 
ATOM     74  H36 non d ame      -6.998   3.795  65.486  0.00  0.00     0.036 H 
BRANCH  72  75
ATOM     75  C25 non d ame      -6.123   5.797  65.590  0.00  0.00    -0.001 C 
ATOM     76  C26 non d ame      -4.859   5.028  64.871  0.00  0.00    -0.035 C 
ATOM     77  C27 non d ame      -3.750   5.210  65.627  0.00  0.00     0.085 C 
ATOM     78  H38 non d ame      -5.013   3.949  64.900  0.00  0.00     0.036 H 
ATOM     79  H39 non d ame      -4.610   5.518  63.930  0.00  0.00     0.036 H 
ATOM     80  N5  non d ame      -4.208   5.754  66.958  0.00  0.00    -0.049 N 
ATOM     81  H40 non d ame      -3.331   4.214  65.775  0.00  0.00     0.075 H 
ATOM     82  H41 non d ame      -3.169   5.974  65.112  0.00  0.00     0.075 H 
ATOM     83  C28 non d ame      -5.734   6.233  66.741  0.00  0.00     0.193 C 
ATOM     84  H42 non d ame      -4.203   4.976  67.602  0.00  0.00     0.280 HD
ATOM     85  H43 non d ame      -3.640   6.568  67.146  0.00  0.00     0.280 HD
ATOM     86  H44 non d ame      -5.974   7.292  66.643  0.00  0.00     0.129 H 
ATOM     87  H37 non d ame      -6.419   6.760  65.172  0.00  0.00     0.046 H 
BRANCH  83  88
ATOM     88  O6  non d ame      -6.558   5.752  67.805  0.00  0.00    -0.369 OA
ATOM     89  H45 non d ame      -7.457   6.062  67.679  0.00  0.00     0.212 HD
ENDBRANCH  83  88
ENDBRANCH  72  75
ENDBRANCH  47  72
ENDBRANCH  45  47
ENDBRANCH   1  43
BRANCH   1  90
ATOM     90  C16 non d ame      -7.131   9.215  62.264  0.00  0.00    -0.035 C 
ATOM     91  H21 non d ame      -6.937   8.476  61.485  0.00  0.00     0.037 H 
ATOM     92  H22 non d ame      -7.368  10.243  61.992  0.00  0.00     0.037 H 
BRANCH  90  93
ATOM     93  C17 non d ame      -5.841   9.277  63.143  0.00  0.00    -0.059 C 
ATOM     94  H23 non d ame      -6.150   9.224  64.187  0.00  0.00     0.038 H 
BRANCH  93  95
ATOM     95  C18 non d ame      -4.882   8.075  62.869  0.00  0.00    -0.073 C 
ATOM     96  H24 non d ame      -3.934   8.448  62.481  0.00  0.00     0.028 H 
ATOM     97  H25 non d ame      -4.706   7.531  63.797  0.00  0.00     0.028 H 
ATOM     98  H26 non d ame      -5.337   7.407  62.137  0.00  0.00     0.028 H 
ENDBRANCH  93  95
BRANCH  93  99
ATOM     99  C19 non d ame      -5.113  10.610  62.952  0.00  0.00    -0.073 C 
ATOM    100  H27 non d ame      -5.703  11.257  62.302  0.00  0.00     0.028 H 
ATOM    101  H28 non d ame      -4.979  11.093  63.920  0.00  0.00     0.028 H 
ATOM    102  H29 non d ame      -4.139  10.430  62.498  0.00  0.00     0.028 H 
ENDBRANCH  93  99
ENDBRANCH  90  93
ENDBRANCH   1  90
TORSDOF 26
ENDMDL
MODEL 19
REMARK VINA RESULT:      -6.1      3.008      4.579
REMARK  26 active torsions:
REMARK  status: ('A' for Active; 'I' for Inactive)
REMARK    1  A    between atoms: C2_2  and  C3_3 
REMARK    2  A    between atoms: C4_6  and  C5_7 
REMARK       I    between atoms: C5_7  and  N2_9 
REMARK    3  A    between atoms: N2_9  and  C6_10 
REMARK    4  A    between atoms: C6_10  and  C7_11 
REMARK    5  A    between atoms: C6_10  and  C8_13 
REMARK       I    between atoms: C7_11  and  N3_14 
REMARK    6  A    between atoms: N3_14  and  C9_15 
REMARK    7  A    between atoms: C9_15  and  C10_16 
REMARK    8  A    between atoms: C9_15  and  C11_18 
REMARK       I    between atoms: C10_16  and  N4_21 
REMARK    9  A    between atoms: C11_18  and  C12_19 
REMARK   10  A    between atoms: C11_18  and  C13_20 
REMARK   11  A    between atoms: N4_21  and  C14_22 
REMARK   12  A    between atoms: C14_22  and  C15_23 
REMARK   13  A    between atoms: C14_22  and  C16_25 
REMARK       I    between atoms: C15_23  and  N6_40 
REMARK   14  A    between atoms: C16_25  and  C17_26 
REMARK   15  A    between atoms: C17_26  and  C18_27 
REMARK   16  A    between atoms: C17_26  and  C19_28 
REMARK   17  A    between atoms: C20_29  and  C21_30 
REMARK   18  A    between atoms: C20_29  and  C24_33 
REMARK   19  A    between atoms: C20_29  and  N6_40 
REMARK   20  A    between atoms: C21_30  and  C22_31 
REMARK   21  A    between atoms: C22_31  and  C23_32 
REMARK   22  A    between atoms: C23_32  and  O8_43 
REMARK   23  A    between atoms: C24_33  and  C25_34 
REMARK   24  A    between atoms: C28_38  and  O6_39 
REMARK   25  A    between atoms: C29_42  and  O8_43 
REMARK   26  A    between atoms: C29_42  and  C35_49 
ROOT
ATOM      1  C14 non d ame      -9.529   6.436  68.079  0.00  0.00     0.089 C 
ATOM      2  H20 non d ame     -10.063   6.124  67.181  0.00  0.00     0.087 H 
ENDROOT
BRANCH   1   3
ATOM      3  N4  non d ame      -9.005   7.772  67.836  0.00  0.00    -0.346 N 
ATOM      4  C10 non d ame      -9.800   8.766  67.027  0.00  0.00     0.241 C 
ATOM      5  O4  non d ame     -10.857   8.466  66.578  0.00  0.00    -0.271 OA
ATOM      6  H19 non d ame      -8.103   8.007  68.224  0.00  0.00     0.163 HD
BRANCH   4   7
ATOM      7  C9  non d ame      -9.245  10.146  66.790  0.00  0.00     0.092 C 
ATOM      8  H11 non d ame      -8.559  10.117  65.943  0.00  0.00     0.088 H 
BRANCH   7   9
ATOM      9  N3  non d ame     -10.337  11.057  66.432  0.00  0.00    -0.346 N 
ATOM     10  C7  non d ame     -10.481  11.509  65.070  0.00  0.00     0.240 C 
ATOM     11  O3  non d ame      -9.727  11.150  64.250  0.00  0.00    -0.271 OA
ATOM     12  H10 non d ame     -10.994  11.376  67.129  0.00  0.00     0.163 HD
BRANCH  10  13
ATOM     13  C6  non d ame     -11.643  12.481  64.696  0.00  0.00     0.086 C 
ATOM     14  H6  non d ame     -12.507  12.377  65.352  0.00  0.00     0.086 H 
BRANCH  13  15
ATOM     15  N2  non d ame     -11.176  13.850  64.836  0.00  0.00    -0.343 N 
ATOM     16  C5  non d ame     -11.292  14.522  66.132  0.00  0.00     0.273 C 
ATOM     17  O2  non d ame     -11.765  13.954  67.054  0.00  0.00    -0.266 OA
ATOM     18  H5  non d ame     -10.775  14.329  64.042  0.00  0.00     0.163 HD
BRANCH  16  19
ATOM     19  C4  non d ame     -10.801  15.969  66.295  0.00  0.00     0.154 A 
ATOM     20  C1  non d ame     -10.590  16.678  67.520  0.00  0.00    -0.017 A 
ATOM     21  C2  non d ame     -10.141  17.958  67.127  0.00  0.00     0.077 A 
ATOM     22  H1  non d ame     -10.740  16.318  68.539  0.00  0.00     0.091 H 
ATOM     23  O1  non d ame     -10.100  17.972  65.827  0.00  0.00    -0.218 OA
ATOM     24  N1  non d ame     -10.481  16.823  65.319  0.00  0.00    -0.123 NA
BRANCH  21  25
ATOM     25  C3  non d ame      -9.771  19.108  68.055  0.00  0.00    -0.029 C 
ATOM     26  H2  non d ame      -8.780  18.934  68.473  0.00  0.00     0.036 H 
ATOM     27  H3  non d ame      -9.769  20.042  67.492  0.00  0.00     0.036 H 
ATOM     28  H4  non d ame     -10.501  19.173  68.863  0.00  0.00     0.036 H 
ENDBRANCH  21  25
ENDBRANCH  16  19
ENDBRANCH  13  15
BRANCH  13  29
ATOM     29  C8  non d ame     -12.077  12.226  63.275  0.00  0.00    -0.049 C 
ATOM     30  H7  non d ame     -13.110  12.549  63.146  0.00  0.00     0.030 H 
ATOM     31  H8  non d ame     -11.434  12.783  62.593  0.00  0.00     0.030 H 
ATOM     32  H9  non d ame     -12.000  11.161  63.057  0.00  0.00     0.030 H 
ENDBRANCH  13  29
ENDBRANCH  10  13
ENDBRANCH   7   9
BRANCH   7  33
ATOM     33  C11 non d ame      -8.552  10.656  68.088  0.00  0.00    -0.033 C 
ATOM     34  H12 non d ame      -8.801   9.960  68.888  0.00  0.00     0.042 H 
BRANCH  33  35
ATOM     35  C12 non d ame      -6.999  10.663  67.937  0.00  0.00    -0.071 C 
ATOM     36  H13 non d ame      -6.651  11.689  67.811  0.00  0.00     0.028 H 
ATOM     37  H14 non d ame      -6.546  10.234  68.831  0.00  0.00     0.028 H 
ATOM     38  H15 non d ame      -6.716  10.073  67.066  0.00  0.00     0.028 H 
ENDBRANCH  33  35
BRANCH  33  39
ATOM     39  C13 non d ame      -9.089  12.067  68.491  0.00  0.00    -0.071 C 
ATOM     40  H16 non d ame     -10.070  11.964  68.952  0.00  0.00     0.028 H 
ATOM     41  H17 non d ame      -8.401  12.529  69.199  0.00  0.00     0.028 H 
ATOM     42  H18 non d ame      -9.169  12.693  67.602  0.00  0.00     0.028 H 
ENDBRANCH  33  39
ENDBRANCH   7  33
ENDBRANCH   4   7
ENDBRANCH   1   3
BRANCH   1  43
ATOM     43  C15 non d ame     -10.457   6.487  69.326  0.00  0.00     0.240 C 
ATOM     44  O5  non d ame     -11.593   6.151  69.231  0.00  0.00    -0.271 OA
ATOM     45  N6  non d ame      -9.927   6.946  70.641  0.00  0.00    -0.355 N 
ATOM     46  H46 non d ame      -8.962   7.229  70.735  0.00  0.00     0.162 HD
BRANCH  45  47
ATOM     47  C20 non d ame     -10.822   6.987  71.818  0.00  0.00     0.013 C 
ATOM     48  H30 non d ame     -11.818   6.689  71.492  0.00  0.00     0.072 H 
BRANCH  47  49
ATOM     49  C21 non d ame     -10.859   8.395  72.369  0.00  0.00    -0.038 C 
ATOM     50  H31 non d ame     -11.657   8.400  73.112  0.00  0.00     0.036 H 
ATOM     51  H32 non d ame      -9.835   8.621  72.667  0.00  0.00     0.036 H 
BRANCH  49  52
ATOM     52  C22 non d ame     -11.246   9.445  71.305  0.00  0.00     0.018 C 
ATOM     53  H33 non d ame     -10.639  10.324  71.523  0.00  0.00     0.048 H 
ATOM     54  H34 non d ame     -11.150   8.940  70.343  0.00  0.00     0.048 H 
BRANCH  52  55
ATOM     55  C23 non d ame     -12.725   9.913  71.396  0.00  0.00     0.259 C 
ATOM     56  O7  non d ame     -13.576   9.158  71.740  0.00  0.00    -0.265 OA
BRANCH  55  57
ATOM     57  O8  non d ame     -13.055  11.253  71.052  0.00  0.00    -0.317 OA
BRANCH  57  58
ATOM     58  C29 non d ame     -13.480  12.051  72.160  0.00  0.00     0.052 C 
ATOM     59  H47 non d ame     -14.569  12.078  72.103  0.00  0.00     0.082 H 
ATOM     60  H48 non d ame     -12.991  11.626  73.036  0.00  0.00     0.082 H 
BRANCH  58  61
ATOM     61  C35 non d ame     -12.942  13.491  71.948  0.00  0.00    -0.034 A 
ATOM     62  C30 non d ame     -12.304  13.828  70.758  0.00  0.00    -0.075 A 
ATOM     63  C31 non d ame     -11.820  15.121  70.568  0.00  0.00    -0.082 A 
ATOM     64  H49 non d ame     -12.183  13.079  69.976  0.00  0.00     0.084 H 
ATOM     65  C32 non d ame     -11.974  16.079  71.573  0.00  0.00    -0.083 A 
ATOM     66  H50 non d ame     -11.322  15.383  69.634  0.00  0.00     0.083 H 
ATOM     67  C33 non d ame     -12.608  15.738  72.760  0.00  0.00    -0.082 A 
ATOM     68  H51 non d ame     -11.599  17.093  71.432  0.00  0.00     0.083 H 
ATOM     69  C34 non d ame     -13.096  14.447  72.954  0.00  0.00    -0.075 A 
ATOM     70  H52 non d ame     -12.725  16.487  73.544  0.00  0.00     0.083 H 
ATOM     71  H53 non d ame     -13.594  14.186  73.888  0.00  0.00     0.084 H 
ENDBRANCH  58  61
ENDBRANCH  57  58
ENDBRANCH  55  57
ENDBRANCH  52  55
ENDBRANCH  49  52
ENDBRANCH  47  49
BRANCH  47  72
ATOM     72  C24 non d ame     -10.307   6.032  72.893  0.00  0.00    -0.039 C 
ATOM     73  H35 non d ame     -11.192   5.532  73.285  0.00  0.00     0.036 H 
ATOM     74  H36 non d ame      -9.521   5.450  72.411  0.00  0.00     0.036 H 
BRANCH  72  75
ATOM     75  C25 non d ame      -9.630   6.821  74.112  0.00  0.00    -0.001 C 
ATOM     76  C26 non d ame      -8.033   7.065  73.804  0.00  0.00    -0.035 C 
ATOM     77  C27 non d ame      -7.313   6.636  74.868  0.00  0.00     0.085 C 
ATOM     78  H38 non d ame      -7.705   6.413  72.994  0.00  0.00     0.036 H 
ATOM     79  H39 non d ame      -7.818   8.133  73.765  0.00  0.00     0.036 H 
ATOM     80  N5  non d ame      -8.246   5.824  75.733  0.00  0.00    -0.049 N 
ATOM     81  H40 non d ame      -6.548   5.977  74.455  0.00  0.00     0.075 H 
ATOM     82  H41 non d ame      -7.024   7.538  75.406  0.00  0.00     0.075 H 
ATOM     83  C28 non d ame      -9.738   6.159  75.215  0.00  0.00     0.193 C 
ATOM     84  H42 non d ame      -8.047   4.853  75.536  0.00  0.00     0.280 HD
ATOM     85  H43 non d ame      -8.145   6.179  76.674  0.00  0.00     0.280 HD
ATOM     86  H44 non d ame     -10.385   6.826  75.784  0.00  0.00     0.129 H 
ATOM     87  H37 non d ame     -10.214   7.690  74.417  0.00  0.00     0.046 H 
BRANCH  83  88
ATOM     88  O6  non d ame     -10.484   4.952  75.048  0.00  0.00    -0.369 OA
ATOM     89  H45 non d ame     -11.414   5.127  75.205  0.00  0.00     0.212 HD
ENDBRANCH  83  88
ENDBRANCH  72  75
ENDBRANCH  47  72
ENDBRANCH  45  47
ENDBRANCH   1  43
BRANCH   1  90
ATOM     90  C16 non d ame      -8.369   5.489  68.343  0.00  0.00    -0.035 C 
ATOM     91  H21 non d ame      -7.756   5.986  69.095  0.00  0.00     0.037 H 
ATOM     92  H22 non d ame      -8.828   4.525  68.564  0.00  0.00     0.037 H 
BRANCH  90  93
ATOM     93  C17 non d ame      -7.448   5.265  67.102  0.00  0.00    -0.059 C 
ATOM     94  H23 non d ame      -6.948   6.209  66.886  0.00  0.00     0.038 H 
BRANCH  93  95
ATOM     95  C18 non d ame      -6.344   4.193  67.373  0.00  0.00    -0.073 C 
ATOM     96  H24 non d ame      -5.471   4.407  66.757  0.00  0.00     0.028 H 
ATOM     97  H25 non d ame      -6.063   4.220  68.426  0.00  0.00     0.028 H 
ATOM     98  H26 non d ame      -6.730   3.204  67.125  0.00  0.00     0.028 H 
ENDBRANCH  93  95
BRANCH  93  99
ATOM     99  C19 non d ame      -8.275   4.896  65.867  0.00  0.00    -0.073 C 
ATOM    100  H27 non d ame      -7.639   4.384  65.144  0.00  0.00     0.028 H 
ATOM    101  H28 non d ame      -9.093   4.238  66.162  0.00  0.00     0.028 H 
ATOM    102  H29 non d ame      -8.681   5.801  65.418  0.00  0.00     0.028 H 
ENDBRANCH  93  99
ENDBRANCH  90  93
ENDBRANCH   1  90
TORSDOF 26
ENDMDL
MODEL 20
REMARK VINA RESULT:      -6.1      3.266      6.723
REMARK  26 active torsions:
REMARK  status: ('A' for Active; 'I' for Inactive)
REMARK    1  A    between atoms: C2_2  and  C3_3 
REMARK    2  A    between atoms: C4_6  and  C5_7 
REMARK       I    between atoms: C5_7  and  N2_9 
REMARK    3  A    between atoms: N2_9  and  C6_10 
REMARK    4  A    between atoms: C6_10  and  C7_11 
REMARK    5  A    between atoms: C6_10  and  C8_13 
REMARK       I    between atoms: C7_11  and  N3_14 
REMARK    6  A    between atoms: N3_14  and  C9_15 
REMARK    7  A    between atoms: C9_15  and  C10_16 
REMARK    8  A    between atoms: C9_15  and  C11_18 
REMARK       I    between atoms: C10_16  and  N4_21 
REMARK    9  A    between atoms: C11_18  and  C12_19 
REMARK   10  A    between atoms: C11_18  and  C13_20 
REMARK   11  A    between atoms: N4_21  and  C14_22 
REMARK   12  A    between atoms: C14_22  and  C15_23 
REMARK   13  A    between atoms: C14_22  and  C16_25 
REMARK       I    between atoms: C15_23  and  N6_40 
REMARK   14  A    between atoms: C16_25  and  C17_26 
REMARK   15  A    between atoms: C17_26  and  C18_27 
REMARK   16  A    between atoms: C17_26  and  C19_28 
REMARK   17  A    between atoms: C20_29  and  C21_30 
REMARK   18  A    between atoms: C20_29  and  C24_33 
REMARK   19  A    between atoms: C20_29  and  N6_40 
REMARK   20  A    between atoms: C21_30  and  C22_31 
REMARK   21  A    between atoms: C22_31  and  C23_32 
REMARK   22  A    between atoms: C23_32  and  O8_43 
REMARK   23  A    between atoms: C24_33  and  C25_34 
REMARK   24  A    between atoms: C28_38  and  O6_39 
REMARK   25  A    between atoms: C29_42  and  O8_43 
REMARK   26  A    between atoms: C29_42  and  C35_49 
ROOT
ATOM      1  C14 non d ame      -7.344   9.226  68.160  0.00  0.00     0.089 C 
ATOM      2  H20 non d ame      -8.055  10.025  67.947  0.00  0.00     0.087 H 
ENDROOT
BRANCH   1   3
ATOM      3  N4  non d ame      -8.023   8.245  68.992  0.00  0.00    -0.346 N 
ATOM      4  C10 non d ame      -9.363   8.565  69.607  0.00  0.00     0.241 C 
ATOM      5  O4  non d ame      -9.872   9.620  69.420  0.00  0.00    -0.271 OA
ATOM      6  H19 non d ame      -7.572   7.354  69.141  0.00  0.00     0.163 HD
BRANCH   4   7
ATOM      7  C9  non d ame     -10.055   7.535  70.462  0.00  0.00     0.092 C 
ATOM      8  H11 non d ame      -9.546   7.467  71.423  0.00  0.00     0.088 H 
BRANCH   7   9
ATOM      9  N3  non d ame     -11.430   7.966  70.729  0.00  0.00    -0.346 N 
ATOM     10  C7  non d ame     -11.924   8.000  72.084  0.00  0.00     0.240 C 
ATOM     11  O3  non d ame     -11.229   7.682  72.970  0.00  0.00    -0.271 OA
ATOM     12  H10 non d ame     -12.042   8.241  69.974  0.00  0.00     0.163 HD
BRANCH  10  13
ATOM     13  C6  non d ame     -13.390   8.456  72.362  0.00  0.00     0.086 C 
ATOM     14  H6  non d ame     -13.810   8.001  73.258  0.00  0.00     0.086 H 
BRANCH  13  15
ATOM     15  N2  non d ame     -13.403   9.893  72.580  0.00  0.00    -0.343 N 
ATOM     16  C5  non d ame     -13.106  10.794  71.464  0.00  0.00     0.273 C 
ATOM     17  O2  non d ame     -12.855  10.354  70.397  0.00  0.00    -0.266 OA
ATOM     18  H5  non d ame     -13.616  10.261  73.496  0.00  0.00     0.163 HD
BRANCH  16  19
ATOM     19  C4  non d ame     -13.117  12.316  71.680  0.00  0.00     0.154 A 
ATOM     20  C1  non d ame     -12.361  13.297  70.963  0.00  0.00    -0.017 A 
ATOM     21  C2  non d ame     -12.730  14.533  71.539  0.00  0.00     0.077 A 
ATOM     22  H1  non d ame     -11.654  13.136  70.149  0.00  0.00     0.091 H 
ATOM     23  O1  non d ame     -13.597  14.280  72.475  0.00  0.00    -0.218 OA
ATOM     24  N1  non d ame     -13.839  12.994  72.577  0.00  0.00    -0.123 NA
BRANCH  21  25
ATOM     25  C3  non d ame     -12.208  15.906  71.137  0.00  0.00    -0.029 C 
ATOM     26  H2  non d ame     -11.160  15.995  71.425  0.00  0.00     0.036 H 
ATOM     27  H3  non d ame     -12.301  16.028  70.058  0.00  0.00     0.036 H 
ATOM     28  H4  non d ame     -12.790  16.678  71.642  0.00  0.00     0.036 H 
ENDBRANCH  21  25
ENDBRANCH  16  19
ENDBRANCH  13  15
BRANCH  13  29
ATOM     29  C8  non d ame     -14.261   8.104  71.183  0.00  0.00    -0.049 C 
ATOM     30  H7  non d ame     -13.750   8.376  70.259  0.00  0.00     0.030 H 
ATOM     31  H8  non d ame     -14.461   7.033  71.185  0.00  0.00     0.030 H 
ATOM     32  H9  non d ame     -15.201   8.651  71.250  0.00  0.00     0.030 H 
ENDBRANCH  13  29
ENDBRANCH  10  13
ENDBRANCH   7   9
BRANCH   7  33
ATOM     33  C11 non d ame     -10.078   6.171  69.713  0.00  0.00    -0.033 C 
ATOM     34  H12 non d ame      -9.128   6.068  69.187  0.00  0.00     0.042 H 
BRANCH  33  35
ATOM     35  C12 non d ame     -10.193   4.976  70.710  0.00  0.00    -0.071 C 
ATOM     36  H13 non d ame     -11.193   4.547  70.649  0.00  0.00     0.028 H 
ATOM     37  H14 non d ame      -9.456   4.216  70.453  0.00  0.00     0.028 H 
ATOM     38  H15 non d ame     -10.011   5.332  71.724  0.00  0.00     0.028 H 
ENDBRANCH  33  35
BRANCH  33  39
ATOM     39  C13 non d ame     -11.224   6.135  68.651  0.00  0.00    -0.071 C 
ATOM     40  H16 non d ame     -11.872   7.000  68.787  0.00  0.00     0.028 H 
ATOM     41  H17 non d ame     -10.792   6.158  67.650  0.00  0.00     0.028 H 
ATOM     42  H18 non d ame     -11.805   5.221  68.775  0.00  0.00     0.028 H 
ENDBRANCH  33  39
ENDBRANCH   7  33
ENDBRANCH   4   7
ENDBRANCH   1   3
BRANCH   1  43
ATOM     43  C15 non d ame      -6.849   8.520  66.865  0.00  0.00     0.240 C 
ATOM     44  O5  non d ame      -5.736   8.695  66.485  0.00  0.00    -0.271 OA
ATOM     45  N6  non d ame      -7.760   7.619  66.104  0.00  0.00    -0.355 N 
ATOM     46  H46 non d ame      -8.705   7.459  66.419  0.00  0.00     0.162 HD
BRANCH  45  47
ATOM     47  C20 non d ame      -7.274   6.953  64.876  0.00  0.00     0.013 C 
ATOM     48  H30 non d ame      -6.205   7.147  64.790  0.00  0.00     0.072 H 
BRANCH  47  49
ATOM     49  C21 non d ame      -7.999   7.524  63.678  0.00  0.00    -0.038 C 
ATOM     50  H31 non d ame      -8.090   6.700  62.969  0.00  0.00     0.036 H 
ATOM     51  H32 non d ame      -8.894   8.002  64.076  0.00  0.00     0.036 H 
BRANCH  49  52
ATOM     52  C22 non d ame      -7.195   8.630  62.961  0.00  0.00     0.018 C 
ATOM     53  H33 non d ame      -6.704   9.198  63.752  0.00  0.00     0.048 H 
ATOM     54  H34 non d ame      -6.598   8.119  62.206  0.00  0.00     0.048 H 
BRANCH  52  55
ATOM     55  C23 non d ame      -8.081   9.648  62.190  0.00  0.00     0.259 C 
ATOM     56  O7  non d ame      -7.695  10.140  61.180  0.00  0.00    -0.265 OA
BRANCH  55  57
ATOM     57  O8  non d ame      -9.357   9.997  62.712  0.00  0.00    -0.317 OA
BRANCH  57  58
ATOM     58  C29 non d ame      -9.573  11.406  62.830  0.00  0.00     0.052 C 
ATOM     59  H47 non d ame      -8.580  11.853  62.881  0.00  0.00     0.082 H 
ATOM     60  H48 non d ame     -10.248  11.670  62.016  0.00  0.00     0.082 H 
BRANCH  58  61
ATOM     61  C35 non d ame     -10.301  11.669  64.175  0.00  0.00    -0.034 A 
ATOM     62  C30 non d ame     -11.376  12.551  64.225  0.00  0.00    -0.075 A 
ATOM     63  C31 non d ame     -12.029  12.787  65.433  0.00  0.00    -0.082 A 
ATOM     64  H49 non d ame     -11.706  13.057  63.317  0.00  0.00     0.084 H 
ATOM     65  C32 non d ame     -11.603  12.139  66.596  0.00  0.00    -0.083 A 
ATOM     66  H50 non d ame     -12.873  13.477  65.469  0.00  0.00     0.083 H 
ATOM     67  C33 non d ame     -10.528  11.262  66.542  0.00  0.00    -0.082 A 
ATOM     68  H51 non d ame     -12.109  12.318  67.545  0.00  0.00     0.083 H 
ATOM     69  C34 non d ame      -9.873  11.022  65.336  0.00  0.00    -0.075 A 
ATOM     70  H52 non d ame     -10.196  10.760  67.451  0.00  0.00     0.083 H 
ATOM     71  H53 non d ame      -9.030  10.331  65.301  0.00  0.00     0.084 H 
ENDBRANCH  58  61
ENDBRANCH  57  58
ENDBRANCH  55  57
ENDBRANCH  52  55
ENDBRANCH  49  52
ENDBRANCH  47  49
BRANCH  47  72
ATOM     72  C24 non d ame      -7.536   5.451  64.963  0.00  0.00    -0.039 C 
ATOM     73  H35 non d ame      -8.002   5.182  64.015  0.00  0.00     0.036 H 
ATOM     74  H36 non d ame      -6.583   5.006  65.248  0.00  0.00     0.036 H 
BRANCH  72  75
ATOM     75  C25 non d ame      -8.586   5.100  66.121  0.00  0.00    -0.001 C 
ATOM     76  C26 non d ame      -7.894   4.085  67.215  0.00  0.00    -0.035 C 
ATOM     77  C27 non d ame      -8.711   3.020  67.399  0.00  0.00     0.085 C 
ATOM     78  H38 non d ame      -6.991   3.643  66.795  0.00  0.00     0.036 H 
ATOM     79  H39 non d ame      -7.865   4.557  68.197  0.00  0.00     0.036 H 
ATOM     80  N5  non d ame      -9.737   3.054  66.293  0.00  0.00    -0.049 N 
ATOM     81  H40 non d ame      -8.078   2.141  67.270  0.00  0.00     0.075 H 
ATOM     82  H41 non d ame      -9.210   3.197  68.351  0.00  0.00     0.075 H 
ATOM     83  C28 non d ame      -9.638   4.527  65.640  0.00  0.00     0.193 C 
ATOM     84  H42 non d ame      -9.439   2.377  65.605  0.00  0.00     0.280 HD
ATOM     85  H43 non d ame     -10.640   2.959  66.736  0.00  0.00     0.280 HD
ATOM     86  H44 non d ame     -10.393   5.282  65.861  0.00  0.00     0.129 H 
ATOM     87  H37 non d ame      -9.081   5.988  66.514  0.00  0.00     0.046 H 
BRANCH  83  88
ATOM     88  O6  non d ame      -9.597   4.434  64.215  0.00  0.00    -0.369 OA
ATOM     89  H45 non d ame      -9.610   5.315  63.836  0.00  0.00     0.212 HD
ENDBRANCH  83  88
ENDBRANCH  72  75
ENDBRANCH  47  72
ENDBRANCH  45  47
ENDBRANCH   1  43
BRANCH   1  90
ATOM     90  C16 non d ame      -6.154   9.786  68.924  0.00  0.00    -0.035 C 
ATOM     91  H21 non d ame      -6.311   9.489  69.961  0.00  0.00     0.037 H 
ATOM     92  H22 non d ame      -5.274   9.435  68.384  0.00  0.00     0.037 H 
BRANCH  90  93
ATOM     93  C17 non d ame      -6.083  11.346  68.917  0.00  0.00    -0.059 C 
ATOM     94  H23 non d ame      -5.285  11.638  68.234  0.00  0.00     0.038 H 
BRANCH  93  95
ATOM     95  C18 non d ame      -7.409  11.995  68.404  0.00  0.00    -0.073 C 
ATOM     96  H24 non d ame      -7.553  12.959  68.890  0.00  0.00     0.028 H 
ATOM     97  H25 non d ame      -7.350  12.136  67.324  0.00  0.00     0.028 H 
ATOM     98  H26 non d ame      -8.248  11.340  68.640  0.00  0.00     0.028 H 
ENDBRANCH  93  95
BRANCH  93  99
ATOM     99  C19 non d ame      -5.715  11.883  70.303  0.00  0.00    -0.073 C 
ATOM    100  H27 non d ame      -4.747  11.482  70.602  0.00  0.00     0.028 H 
ATOM    101  H28 non d ame      -5.663  12.971  70.268  0.00  0.00     0.028 H 
ATOM    102  H29 non d ame      -6.474  11.578  71.023  0.00  0.00     0.028 H 
ENDBRANCH  93  99
ENDBRANCH  90  93
ENDBRANCH   1  90
TORSDOF 26
ENDMDL
