MODEL 1
REMARK VINA RESULT:      -7.1      0.000      0.000
REMARK  26 active torsions:
REMARK  status: ('A' for Active; 'I' for Inactive)
REMARK    1  A    between atoms: C2_2  and  C3_3 
REMARK    2  A    between atoms: C4_6  and  C5_7 
REMARK       I    between atoms: C5_7  and  N2_9 
REMARK    3  A    between atoms: N2_9  and  C6_10 
REMARK    4  A    between atoms: C6_10  and  C7_11 
REMARK    5  A    between atoms: C6_10  and  C8_13 
REMARK       I    between atoms: C7_11  and  N3_14 
REMARK    6  A    between atoms: N3_14  and  C9_15 
REMARK    7  A    between atoms: C9_15  and  C10_16 
REMARK    8  A    between atoms: C9_15  and  C11_18 
REMARK       I    between atoms: C10_16  and  N4_21 
REMARK    9  A    between atoms: C11_18  and  C12_19 
REMARK   10  A    between atoms: C11_18  and  C13_20 
REMARK   11  A    between atoms: N4_21  and  C14_22 
REMARK   12  A    between atoms: C14_22  and  C15_23 
REMARK   13  A    between atoms: C14_22  and  C16_25 
REMARK       I    between atoms: C15_23  and  N6_40 
REMARK   14  A    between atoms: C16_25  and  C17_26 
REMARK   15  A    between atoms: C17_26  and  C18_27 
REMARK   16  A    between atoms: C17_26  and  C19_28 
REMARK   17  A    between atoms: C20_29  and  C21_30 
REMARK   18  A    between atoms: C20_29  and  C24_33 
REMARK   19  A    between atoms: C20_29  and  N6_40 
REMARK   20  A    between atoms: C21_30  and  C22_31 
REMARK   21  A    between atoms: C22_31  and  C23_32 
REMARK   22  A    between atoms: C23_32  and  O8_43 
REMARK   23  A    between atoms: C24_33  and  C25_34 
REMARK   24  A    between atoms: C28_38  and  O6_39 
REMARK   25  A    between atoms: C29_42  and  O8_43 
REMARK   26  A    between atoms: C29_42  and  C35_49 
ROOT
ATOM      1  C14 non d ame      -8.036   8.730  67.125  0.00  0.00     0.089 C 
ATOM      2  H20 non d ame      -8.052   8.048  66.275  0.00  0.00     0.087 H 
ENDROOT
BRANCH   1   3
ATOM      3  N4  non d ame      -9.060   9.739  66.897  0.00  0.00    -0.346 N 
ATOM      4  C10 non d ame      -9.717   9.864  65.545  0.00  0.00     0.241 C 
ATOM      5  O4  non d ame      -9.403   9.144  64.656  0.00  0.00    -0.271 OA
ATOM      6  H19 non d ame      -9.311  10.344  67.666  0.00  0.00     0.163 HD
BRANCH   4   7
ATOM      7  C9  non d ame     -10.779  10.910  65.328  0.00  0.00     0.092 C 
ATOM      8  H11 non d ame     -11.701  10.592  65.816  0.00  0.00     0.088 H 
BRANCH   7   9
ATOM      9  N3  non d ame     -10.365  12.166  65.961  0.00  0.00    -0.346 N 
ATOM     10  C7  non d ame     -11.115  12.693  67.074  0.00  0.00     0.240 C 
ATOM     11  O3  non d ame     -12.055  12.121  67.473  0.00  0.00    -0.271 OA
ATOM     12  H10 non d ame      -9.558  12.672  65.627  0.00  0.00     0.163 HD
BRANCH  10  13
ATOM     13  C6  non d ame     -10.672  14.032  67.741  0.00  0.00     0.086 C 
ATOM     14  H6  non d ame     -11.040  14.910  67.210  0.00  0.00     0.086 H 
BRANCH  13  15
ATOM     15  N2  non d ame     -11.225  14.096  69.084  0.00  0.00    -0.343 N 
ATOM     16  C5  non d ame     -11.862  15.332  69.543  0.00  0.00     0.273 C 
ATOM     17  O2  non d ame     -11.922  16.270  68.827  0.00  0.00    -0.266 OA
ATOM     18  H5  non d ame     -11.168  13.291  69.691  0.00  0.00     0.163 HD
BRANCH  16  19
ATOM     19  C4  non d ame     -12.453  15.413  70.960  0.00  0.00     0.154 A 
ATOM     20  C1  non d ame     -11.733  15.502  72.193  0.00  0.00    -0.017 A 
ATOM     21  C2  non d ame     -12.730  15.551  73.193  0.00  0.00     0.077 A 
ATOM     22  H1  non d ame     -10.653  15.526  72.340  0.00  0.00     0.091 H 
ATOM     23  O1  non d ame     -13.883  15.498  72.593  0.00  0.00    -0.218 OA
ATOM     24  N1  non d ame     -13.748  15.417  71.290  0.00  0.00    -0.123 NA
BRANCH  21  25
ATOM     25  C3  non d ame     -12.496  15.650  74.695  0.00  0.00    -0.029 C 
ATOM     26  H2  non d ame     -11.479  15.333  74.926  0.00  0.00     0.036 H 
ATOM     27  H3  non d ame     -12.639  16.681  75.018  0.00  0.00     0.036 H 
ATOM     28  H4  non d ame     -13.205  15.005  75.216  0.00  0.00     0.036 H 
ENDBRANCH  21  25
ENDBRANCH  16  19
ENDBRANCH  13  15
BRANCH  13  29
ATOM     29  C8  non d ame      -9.167  14.093  67.800  0.00  0.00    -0.049 C 
ATOM     30  H7  non d ame      -8.746  13.323  67.153  0.00  0.00     0.030 H 
ATOM     31  H8  non d ame      -8.830  15.074  67.464  0.00  0.00     0.030 H 
ATOM     32  H9  non d ame      -8.836  13.927  68.825  0.00  0.00     0.030 H 
ENDBRANCH  13  29
ENDBRANCH  10  13
ENDBRANCH   7   9
BRANCH   7  33
ATOM     33  C11 non d ame     -10.975  11.141  63.801  0.00  0.00    -0.033 C 
ATOM     34  H12 non d ame     -11.005  10.163  63.322  0.00  0.00     0.042 H 
BRANCH  33  35
ATOM     35  C12 non d ame     -12.332  11.852  63.503  0.00  0.00    -0.071 C 
ATOM     36  H13 non d ame     -12.176  12.931  63.464  0.00  0.00     0.028 H 
ATOM     37  H14 non d ame     -12.719  11.507  62.545  0.00  0.00     0.028 H 
ATOM     38  H15 non d ame     -13.046  11.616  64.291  0.00  0.00     0.028 H 
ENDBRANCH  33  35
BRANCH  33  39
ATOM     39  C13 non d ame      -9.773  11.938  63.198  0.00  0.00    -0.071 C 
ATOM     40  H16 non d ame      -9.963  13.007  63.290  0.00  0.00     0.028 H 
ATOM     41  H17 non d ame      -8.861  11.683  63.737  0.00  0.00     0.028 H 
ATOM     42  H18 non d ame      -9.658  11.679  62.146  0.00  0.00     0.028 H 
ENDBRANCH  33  39
ENDBRANCH   7  33
ENDBRANCH   4   7
ENDBRANCH   1   3
BRANCH   1  43
ATOM     43  C15 non d ame      -8.345   8.006  68.467  0.00  0.00     0.240 C 
ATOM     44  O5  non d ame      -7.515   7.323  68.975  0.00  0.00    -0.271 OA
ATOM     45  N6  non d ame      -9.674   8.169  69.123  0.00  0.00    -0.355 N 
ATOM     46  H46 non d ame     -10.385   8.750  68.703  0.00  0.00     0.162 HD
BRANCH  45  47
ATOM     47  C20 non d ame      -9.951   7.475  70.398  0.00  0.00     0.013 C 
ATOM     48  H30 non d ame      -9.011   7.068  70.771  0.00  0.00     0.072 H 
BRANCH  47  49
ATOM     49  C21 non d ame     -10.937   6.355  70.153  0.00  0.00    -0.038 C 
ATOM     50  H31 non d ame     -11.193   5.966  71.139  0.00  0.00     0.036 H 
ATOM     51  H32 non d ame     -11.713   6.780  69.516  0.00  0.00     0.036 H 
BRANCH  49  52
ATOM     52  C22 non d ame     -10.323   5.178  69.365  0.00  0.00     0.018 C 
ATOM     53  H33 non d ame      -9.255   5.202  69.582  0.00  0.00     0.048 H 
ATOM     54  H34 non d ame     -10.914   4.302  69.634  0.00  0.00     0.048 H 
BRANCH  52  55
ATOM     55  C23 non d ame     -10.450   5.322  67.823  0.00  0.00     0.259 C 
ATOM     56  O7  non d ame     -11.159   6.150  67.351  0.00  0.00    -0.265 OA
BRANCH  55  57
ATOM     57  O8  non d ame      -9.717   4.443  66.978  0.00  0.00    -0.317 OA
BRANCH  57  58
ATOM     58  C29 non d ame      -9.788   4.776  65.589  0.00  0.00     0.052 C 
ATOM     59  H47 non d ame     -10.117   3.868  65.084  0.00  0.00     0.082 H 
ATOM     60  H48 non d ame     -10.395   5.680  65.533  0.00  0.00     0.082 H 
BRANCH  58  61
ATOM     61  C35 non d ame      -8.354   5.117  65.104  0.00  0.00    -0.034 A 
ATOM     62  C30 non d ame      -8.148   5.576  63.808  0.00  0.00    -0.075 A 
ATOM     63  C31 non d ame      -6.859   5.882  63.372  0.00  0.00    -0.082 A 
ATOM     64  H49 non d ame      -8.995   5.697  63.133  0.00  0.00     0.084 H 
ATOM     65  C32 non d ame      -5.774   5.724  64.238  0.00  0.00    -0.083 A 
ATOM     66  H50 non d ame      -6.701   6.243  62.356  0.00  0.00     0.083 H 
ATOM     67  C33 non d ame      -5.984   5.263  65.530  0.00  0.00    -0.082 A 
ATOM     68  H51 non d ame      -4.763   5.962  63.906  0.00  0.00     0.083 H 
ATOM     69  C34 non d ame      -7.271   4.958  65.971  0.00  0.00    -0.075 A 
ATOM     70  H52 non d ame      -5.135   5.139  66.203  0.00  0.00     0.083 H 
ATOM     71  H53 non d ame      -7.428   4.597  66.987  0.00  0.00     0.084 H 
ENDBRANCH  58  61
ENDBRANCH  57  58
ENDBRANCH  55  57
ENDBRANCH  52  55
ENDBRANCH  49  52
ENDBRANCH  47  49
BRANCH  47  72
ATOM     72  C24 non d ame     -10.540   8.461  71.406  0.00  0.00    -0.039 C 
ATOM     73  H35 non d ame     -10.754   7.871  72.297  0.00  0.00     0.036 H 
ATOM     74  H36 non d ame      -9.827   9.284  71.456  0.00  0.00     0.036 H 
BRANCH  72  75
ATOM     75  C25 non d ame     -11.931   9.069  70.896  0.00  0.00    -0.001 C 
ATOM     76  C26 non d ame     -11.762  10.677  70.594  0.00  0.00    -0.035 C 
ATOM     77  C27 non d ame     -12.744  11.348  71.242  0.00  0.00     0.085 C 
ATOM     78  H38 non d ame     -10.849  11.050  71.059  0.00  0.00     0.036 H 
ATOM     79  H39 non d ame     -11.962  10.884  69.543  0.00  0.00     0.036 H 
ATOM     80  N5  non d ame     -13.369  10.382  72.219  0.00  0.00    -0.049 N 
ATOM     81  H40 non d ame     -12.239  12.139  71.798  0.00  0.00     0.075 H 
ATOM     82  H41 non d ame     -13.476  11.603  70.477  0.00  0.00     0.075 H 
ATOM     83  C28 non d ame     -12.860   8.914  71.779  0.00  0.00     0.193 C 
ATOM     84  H42 non d ame     -12.979  10.599  73.125  0.00  0.00     0.280 HD
ATOM     85  H43 non d ame     -14.367  10.433  72.073  0.00  0.00     0.280 HD
ATOM     86  H44 non d ame     -13.526   8.234  71.248  0.00  0.00     0.129 H 
ATOM     87  H37 non d ame     -12.385   8.463  70.112  0.00  0.00     0.046 H 
BRANCH  83  88
ATOM     88  O6  non d ame     -12.403   8.188  72.921  0.00  0.00    -0.369 OA
ATOM     89  H45 non d ame     -12.884   7.361  72.988  0.00  0.00     0.212 HD
ENDBRANCH  83  88
ENDBRANCH  72  75
ENDBRANCH  47  72
ENDBRANCH  45  47
ENDBRANCH   1  43
BRANCH   1  90
ATOM     90  C16 non d ame      -6.680   9.412  67.213  0.00  0.00    -0.035 C 
ATOM     91  H21 non d ame      -6.861  10.452  66.941  0.00  0.00     0.037 H 
ATOM     92  H22 non d ame      -6.297   9.166  68.204  0.00  0.00     0.037 H 
BRANCH  90  93
ATOM     93  C17 non d ame      -5.635   8.863  66.189  0.00  0.00    -0.059 C 
ATOM     94  H23 non d ame      -5.740   7.779  66.158  0.00  0.00     0.038 H 
BRANCH  93  95
ATOM     95  C18 non d ame      -5.884   9.407  64.746  0.00  0.00    -0.073 C 
ATOM     96  H24 non d ame      -4.928   9.554  64.243  0.00  0.00     0.028 H 
ATOM     97  H25 non d ame      -6.483   8.688  64.185  0.00  0.00     0.028 H 
ATOM     98  H26 non d ame      -6.416  10.357  64.802  0.00  0.00     0.028 H 
ENDBRANCH  93  95
BRANCH  93  99
ATOM     99  C19 non d ame      -4.207   9.169  66.647  0.00  0.00    -0.073 C 
ATOM    100  H27 non d ame      -4.163  10.183  67.048  0.00  0.00     0.028 H 
ATOM    101  H28 non d ame      -3.915   8.460  67.422  0.00  0.00     0.028 H 
ATOM    102  H29 non d ame      -3.527   9.083  65.800  0.00  0.00     0.028 H 
ENDBRANCH  93  99
ENDBRANCH  90  93
ENDBRANCH   1  90
TORSDOF 26
ENDMDL
MODEL 2
REMARK VINA RESULT:      -6.9      2.114      5.664
REMARK  26 active torsions:
REMARK  status: ('A' for Active; 'I' for Inactive)
REMARK    1  A    between atoms: C2_2  and  C3_3 
REMARK    2  A    between atoms: C4_6  and  C5_7 
REMARK       I    between atoms: C5_7  and  N2_9 
REMARK    3  A    between atoms: N2_9  and  C6_10 
REMARK    4  A    between atoms: C6_10  and  C7_11 
REMARK    5  A    between atoms: C6_10  and  C8_13 
REMARK       I    between atoms: C7_11  and  N3_14 
REMARK    6  A    between atoms: N3_14  and  C9_15 
REMARK    7  A    between atoms: C9_15  and  C10_16 
REMARK    8  A    between atoms: C9_15  and  C11_18 
REMARK       I    between atoms: C10_16  and  N4_21 
REMARK    9  A    between atoms: C11_18  and  C12_19 
REMARK   10  A    between atoms: C11_18  and  C13_20 
REMARK   11  A    between atoms: N4_21  and  C14_22 
REMARK   12  A    between atoms: C14_22  and  C15_23 
REMARK   13  A    between atoms: C14_22  and  C16_25 
REMARK       I    between atoms: C15_23  and  N6_40 
REMARK   14  A    between atoms: C16_25  and  C17_26 
REMARK   15  A    between atoms: C17_26  and  C18_27 
REMARK   16  A    between atoms: C17_26  and  C19_28 
REMARK   17  A    between atoms: C20_29  and  C21_30 
REMARK   18  A    between atoms: C20_29  and  C24_33 
REMARK   19  A    between atoms: C20_29  and  N6_40 
REMARK   20  A    between atoms: C21_30  and  C22_31 
REMARK   21  A    between atoms: C22_31  and  C23_32 
REMARK   22  A    between atoms: C23_32  and  O8_43 
REMARK   23  A    between atoms: C24_33  and  C25_34 
REMARK   24  A    between atoms: C28_38  and  O6_39 
REMARK   25  A    between atoms: C29_42  and  O8_43 
REMARK   26  A    between atoms: C29_42  and  C35_49 
ROOT
ATOM      1  C14 non d ame      -8.175   8.314  62.989  0.00  0.00     0.089 C 
ATOM      2  H20 non d ame      -8.630   8.321  61.998  0.00  0.00     0.087 H 
ENDROOT
BRANCH   1   3
ATOM      3  N4  non d ame      -9.039   9.081  63.873  0.00  0.00    -0.346 N 
ATOM      4  C10 non d ame      -9.535  10.444  63.459  0.00  0.00     0.241 C 
ATOM      5  O4  non d ame      -9.224  10.902  62.409  0.00  0.00    -0.271 OA
ATOM      6  H19 non d ame      -9.290   8.674  64.763  0.00  0.00     0.163 HD
BRANCH   4   7
ATOM      7  C9  non d ame     -10.433  11.222  64.385  0.00  0.00     0.092 C 
ATOM      8  H11 non d ame     -11.123  10.536  64.876  0.00  0.00     0.088 H 
BRANCH   7   9
ATOM      9  N3  non d ame      -9.626  11.851  65.435  0.00  0.00    -0.346 N 
ATOM     10  C7  non d ame      -9.613  11.293  66.765  0.00  0.00     0.240 C 
ATOM     11  O3  non d ame     -10.248  10.340  67.008  0.00  0.00    -0.271 OA
ATOM     12  H10 non d ame      -9.074  12.674  65.240  0.00  0.00     0.163 HD
BRANCH  10  13
ATOM     13  C6  non d ame      -8.754  11.968  67.879  0.00  0.00     0.086 C 
ATOM     14  H6  non d ame      -8.068  12.718  67.486  0.00  0.00     0.086 H 
BRANCH  13  15
ATOM     15  N2  non d ame      -9.639  12.658  68.803  0.00  0.00    -0.343 N 
ATOM     16  C5  non d ame     -10.155  13.984  68.454  0.00  0.00     0.273 C 
ATOM     17  O2  non d ame      -9.850  14.487  67.429  0.00  0.00    -0.266 OA
ATOM     18  H5  non d ame      -9.892  12.221  69.678  0.00  0.00     0.163 HD
BRANCH  16  19
ATOM     19  C4  non d ame     -11.093  14.724  69.421  0.00  0.00     0.154 A 
ATOM     20  C1  non d ame     -12.228  14.186  70.106  0.00  0.00    -0.017 A 
ATOM     21  C2  non d ame     -12.740  15.264  70.863  0.00  0.00     0.077 A 
ATOM     22  H1  non d ame     -12.620  13.170  70.062  0.00  0.00     0.091 H 
ATOM     23  O1  non d ame     -11.980  16.294  70.632  0.00  0.00    -0.218 OA
ATOM     24  N1  non d ame     -11.012  16.004  69.794  0.00  0.00    -0.123 NA
BRANCH  21  25
ATOM     25  C3  non d ame     -13.956  15.225  71.779  0.00  0.00    -0.029 C 
ATOM     26  H2  non d ame     -13.965  16.114  72.410  0.00  0.00     0.036 H 
ATOM     27  H3  non d ame     -14.864  15.198  71.176  0.00  0.00     0.036 H 
ATOM     28  H4  non d ame     -13.910  14.334  72.407  0.00  0.00     0.036 H 
ENDBRANCH  21  25
ENDBRANCH  16  19
ENDBRANCH  13  15
BRANCH  13  29
ATOM     29  C8  non d ame      -7.960  10.917  68.612  0.00  0.00    -0.049 C 
ATOM     30  H7  non d ame      -8.641  10.254  69.146  0.00  0.00     0.030 H 
ATOM     31  H8  non d ame      -7.376  10.339  67.896  0.00  0.00     0.030 H 
ATOM     32  H9  non d ame      -7.291  11.399  69.324  0.00  0.00     0.030 H 
ENDBRANCH  13  29
ENDBRANCH  10  13
ENDBRANCH   7   9
BRANCH   7  33
ATOM     33  C11 non d ame     -11.179  12.325  63.578  0.00  0.00    -0.033 C 
ATOM     34  H12 non d ame     -10.642  12.466  62.640  0.00  0.00     0.042 H 
BRANCH  33  35
ATOM     35  C12 non d ame     -12.634  11.884  63.224  0.00  0.00    -0.071 C 
ATOM     36  H13 non d ame     -13.306  12.737  63.323  0.00  0.00     0.028 H 
ATOM     37  H14 non d ame     -12.663  11.517  62.199  0.00  0.00     0.028 H 
ATOM     38  H15 non d ame     -12.948  11.093  63.903  0.00  0.00     0.028 H 
ENDBRANCH  33  35
BRANCH  33  39
ATOM     39  C13 non d ame     -11.170  13.684  64.348  0.00  0.00    -0.071 C 
ATOM     40  H16 non d ame     -10.350  13.690  65.066  0.00  0.00     0.028 H 
ATOM     41  H17 non d ame     -11.039  14.503  63.640  0.00  0.00     0.028 H 
ATOM     42  H18 non d ame     -12.116  13.808  64.876  0.00  0.00     0.028 H 
ENDBRANCH  33  39
ENDBRANCH   7  33
ENDBRANCH   4   7
ENDBRANCH   1   3
BRANCH   1  43
ATOM     43  C15 non d ame      -8.036   6.873  63.560  0.00  0.00     0.240 C 
ATOM     44  O5  non d ame      -7.413   6.057  62.960  0.00  0.00    -0.271 OA
ATOM     45  N6  non d ame      -8.671   6.514  64.860  0.00  0.00    -0.355 N 
ATOM     46  H46 non d ame      -9.198   7.200  65.380  0.00  0.00     0.162 HD
BRANCH  45  47
ATOM     47  C20 non d ame      -8.528   5.141  65.390  0.00  0.00     0.013 C 
ATOM     48  H30 non d ame      -8.180   4.502  64.578  0.00  0.00     0.072 H 
BRANCH  47  49
ATOM     49  C21 non d ame      -9.870   4.656  65.890  0.00  0.00    -0.038 C 
ATOM     50  H31 non d ame     -10.611   5.299  65.416  0.00  0.00     0.036 H 
ATOM     51  H32 non d ame      -9.882   3.581  65.705  0.00  0.00     0.036 H 
BRANCH  49  52
ATOM     52  C22 non d ame     -10.043   4.838  67.414  0.00  0.00     0.018 C 
ATOM     53  H33 non d ame     -10.622   3.978  67.750  0.00  0.00     0.048 H 
ATOM     54  H34 non d ame      -9.041   5.008  67.807  0.00  0.00     0.048 H 
BRANCH  52  55
ATOM     55  C23 non d ame     -10.874   6.092  67.804  0.00  0.00     0.259 C 
ATOM     56  O7  non d ame     -11.025   6.981  67.029  0.00  0.00    -0.265 OA
BRANCH  55  57
ATOM     57  O8  non d ame     -11.444   6.173  69.104  0.00  0.00    -0.317 OA
BRANCH  57  58
ATOM     58  C29 non d ame     -10.614   6.835  70.063  0.00  0.00     0.052 C 
ATOM     59  H47 non d ame     -10.480   6.124  70.878  0.00  0.00     0.082 H 
ATOM     60  H48 non d ame      -9.749   7.195  69.507  0.00  0.00     0.082 H 
BRANCH  58  61
ATOM     61  C35 non d ame     -11.394   8.062  70.606  0.00  0.00    -0.034 A 
ATOM     62  C30 non d ame     -12.395   7.887  71.555  0.00  0.00    -0.075 A 
ATOM     63  C31 non d ame     -13.096   8.990  72.042  0.00  0.00    -0.082 A 
ATOM     64  H49 non d ame     -12.631   6.887  71.918  0.00  0.00     0.084 H 
ATOM     65  C32 non d ame     -12.794  10.271  71.574  0.00  0.00    -0.083 A 
ATOM     66  H50 non d ame     -13.879   8.849  72.788  0.00  0.00     0.083 H 
ATOM     67  C33 non d ame     -11.796  10.441  70.625  0.00  0.00    -0.082 A 
ATOM     68  H51 non d ame     -13.336  11.139  71.951  0.00  0.00     0.083 H 
ATOM     69  C34 non d ame     -11.091   9.342  70.136  0.00  0.00    -0.075 A 
ATOM     70  H52 non d ame     -11.564  11.442  70.260  0.00  0.00     0.083 H 
ATOM     71  H53 non d ame     -10.308   9.483  69.391  0.00  0.00     0.084 H 
ENDBRANCH  58  61
ENDBRANCH  57  58
ENDBRANCH  55  57
ENDBRANCH  52  55
ENDBRANCH  49  52
ENDBRANCH  47  49
BRANCH  47  72
ATOM     72  C24 non d ame      -7.522   5.133  66.539  0.00  0.00    -0.039 C 
ATOM     73  H35 non d ame      -7.472   6.165  66.887  0.00  0.00     0.036 H 
ATOM     74  H36 non d ame      -7.859   4.347  67.215  0.00  0.00     0.036 H 
BRANCH  72  75
ATOM     75  C25 non d ame      -6.054   4.730  66.040  0.00  0.00    -0.001 C 
ATOM     76  C26 non d ame      -5.612   3.293  66.704  0.00  0.00    -0.035 C 
ATOM     77  C27 non d ame      -4.393   3.434  67.278  0.00  0.00     0.085 C 
ATOM     78  H38 non d ame      -6.263   3.053  67.544  0.00  0.00     0.036 H 
ATOM     79  H39 non d ame      -5.440   2.555  65.919  0.00  0.00     0.036 H 
ATOM     80  N5  non d ame      -4.109   4.915  67.352  0.00  0.00    -0.049 N 
ATOM     81  H40 non d ame      -4.500   3.041  68.290  0.00  0.00     0.075 H 
ATOM     82  H41 non d ame      -3.690   2.972  66.586  0.00  0.00     0.075 H 
ATOM     83  C28 non d ame      -5.184   5.622  66.378  0.00  0.00     0.193 C 
ATOM     84  H42 non d ame      -4.302   5.196  68.303  0.00  0.00     0.280 HD
ATOM     85  H43 non d ame      -3.186   5.049  66.964  0.00  0.00     0.280 HD
ATOM     86  H44 non d ame      -4.885   5.989  65.396  0.00  0.00     0.129 H 
ATOM     87  H37 non d ame      -5.943   4.833  64.960  0.00  0.00     0.046 H 
BRANCH  83  88
ATOM     88  O6  non d ame      -5.785   6.739  67.036  0.00  0.00    -0.369 OA
ATOM     89  H45 non d ame      -6.646   6.913  66.650  0.00  0.00     0.212 HD
ENDBRANCH  83  88
ENDBRANCH  72  75
ENDBRANCH  47  72
ENDBRANCH  45  47
ENDBRANCH   1  43
BRANCH   1  90
ATOM     90  C16 non d ame      -6.808   8.976  62.932  0.00  0.00    -0.035 C 
ATOM     91  H21 non d ame      -6.235   8.394  62.210  0.00  0.00     0.037 H 
ATOM     92  H22 non d ame      -7.006  10.032  62.746  0.00  0.00     0.037 H 
BRANCH  90  93
ATOM     93  C17 non d ame      -6.021   8.905  64.279  0.00  0.00    -0.059 C 
ATOM     94  H23 non d ame      -6.546   8.207  64.932  0.00  0.00     0.038 H 
BRANCH  93  95
ATOM     95  C18 non d ame      -4.565   8.372  64.084  0.00  0.00    -0.073 C 
ATOM     96  H24 non d ame      -4.588   7.468  63.476  0.00  0.00     0.028 H 
ATOM     97  H25 non d ame      -3.964   9.132  63.584  0.00  0.00     0.028 H 
ATOM     98  H26 non d ame      -4.128   8.145  65.057  0.00  0.00     0.028 H 
ENDBRANCH  93  95
BRANCH  93  99
ATOM     99  C19 non d ame      -6.013  10.266  64.980  0.00  0.00    -0.073 C 
ATOM    100  H27 non d ame      -5.520  11.000  64.343  0.00  0.00     0.028 H 
ATOM    101  H28 non d ame      -7.039  10.581  65.172  0.00  0.00     0.028 H 
ATOM    102  H29 non d ame      -5.476  10.185  65.925  0.00  0.00     0.028 H 
ENDBRANCH  93  99
ENDBRANCH  90  93
ENDBRANCH   1  90
TORSDOF 26
ENDMDL
MODEL 3
REMARK VINA RESULT:      -6.8      3.438      8.062
REMARK  26 active torsions:
REMARK  status: ('A' for Active; 'I' for Inactive)
REMARK    1  A    between atoms: C2_2  and  C3_3 
REMARK    2  A    between atoms: C4_6  and  C5_7 
REMARK       I    between atoms: C5_7  and  N2_9 
REMARK    3  A    between atoms: N2_9  and  C6_10 
REMARK    4  A    between atoms: C6_10  and  C7_11 
REMARK    5  A    between atoms: C6_10  and  C8_13 
REMARK       I    between atoms: C7_11  and  N3_14 
REMARK    6  A    between atoms: N3_14  and  C9_15 
REMARK    7  A    between atoms: C9_15  and  C10_16 
REMARK    8  A    between atoms: C9_15  and  C11_18 
REMARK       I    between atoms: C10_16  and  N4_21 
REMARK    9  A    between atoms: C11_18  and  C12_19 
REMARK   10  A    between atoms: C11_18  and  C13_20 
REMARK   11  A    between atoms: N4_21  and  C14_22 
REMARK   12  A    between atoms: C14_22  and  C15_23 
REMARK   13  A    between atoms: C14_22  and  C16_25 
REMARK       I    between atoms: C15_23  and  N6_40 
REMARK   14  A    between atoms: C16_25  and  C17_26 
REMARK   15  A    between atoms: C17_26  and  C18_27 
REMARK   16  A    between atoms: C17_26  and  C19_28 
REMARK   17  A    between atoms: C20_29  and  C21_30 
REMARK   18  A    between atoms: C20_29  and  C24_33 
REMARK   19  A    between atoms: C20_29  and  N6_40 
REMARK   20  A    between atoms: C21_30  and  C22_31 
REMARK   21  A    between atoms: C22_31  and  C23_32 
REMARK   22  A    between atoms: C23_32  and  O8_43 
REMARK   23  A    between atoms: C24_33  and  C25_34 
REMARK   24  A    between atoms: C28_38  and  O6_39 
REMARK   25  A    between atoms: C29_42  and  O8_43 
REMARK   26  A    between atoms: C29_42  and  C35_49 
ROOT
ATOM      1  C14 non d ame     -11.919  14.294  70.091  0.00  0.00     0.089 C 
ATOM      2  H20 non d ame     -12.926  13.881  70.019  0.00  0.00     0.087 H 
ENDROOT
BRANCH   1   3
ATOM      3  N4  non d ame     -10.982  13.192  69.935  0.00  0.00    -0.346 N 
ATOM      4  C10 non d ame     -11.242  12.108  68.920  0.00  0.00     0.241 C 
ATOM      5  O4  non d ame     -12.216  12.142  68.242  0.00  0.00    -0.271 OA
ATOM      6  H19 non d ame     -10.161  13.180  70.524  0.00  0.00     0.163 HD
BRANCH   4   7
ATOM      7  C9  non d ame     -10.258  10.977  68.769  0.00  0.00     0.092 C 
ATOM      8  H11 non d ame     -10.241  10.655  67.728  0.00  0.00     0.088 H 
BRANCH   7   9
ATOM      9  N3  non d ame      -8.912  11.454  69.098  0.00  0.00    -0.346 N 
ATOM     10  C7  non d ame      -7.773  10.960  68.363  0.00  0.00     0.240 C 
ATOM     11  O3  non d ame      -7.922  10.178  67.505  0.00  0.00    -0.271 OA
ATOM     12  H10 non d ame      -8.767  12.127  69.837  0.00  0.00     0.163 HD
BRANCH  10  13
ATOM     13  C6  non d ame      -6.342  11.469  68.720  0.00  0.00     0.086 C 
ATOM     14  H6  non d ame      -5.607  11.234  67.950  0.00  0.00     0.086 H 
BRANCH  13  15
ATOM     15  N2  non d ame      -6.372  12.917  68.838  0.00  0.00    -0.343 N 
ATOM     16  C5  non d ame      -5.539  13.731  67.950  0.00  0.00     0.273 C 
ATOM     17  O2  non d ame      -4.846  13.211  67.147  0.00  0.00    -0.266 OA
ATOM     18  H5  non d ame      -6.966  13.353  69.530  0.00  0.00     0.163 HD
BRANCH  16  19
ATOM     19  C4  non d ame      -5.562  15.263  68.063  0.00  0.00     0.154 A 
ATOM     20  C1  non d ame      -5.818  16.040  69.238  0.00  0.00    -0.017 A 
ATOM     21  C2  non d ame      -5.723  17.384  68.812  0.00  0.00     0.077 A 
ATOM     22  H1  non d ame      -6.038  15.683  70.244  0.00  0.00     0.091 H 
ATOM     23  O1  non d ame      -5.445  17.369  67.542  0.00  0.00    -0.218 OA
ATOM     24  N1  non d ame      -5.346  16.143  67.082  0.00  0.00    -0.123 NA
BRANCH  21  25
ATOM     25  C3  non d ame      -5.912  18.620  69.682  0.00  0.00    -0.029 C 
ATOM     26  H2  non d ame      -5.596  19.505  69.129  0.00  0.00     0.036 H 
ATOM     27  H3  non d ame      -6.963  18.717  69.952  0.00  0.00     0.036 H 
ATOM     28  H4  non d ame      -5.312  18.523  70.587  0.00  0.00     0.036 H 
ENDBRANCH  21  25
ENDBRANCH  16  19
ENDBRANCH  13  15
BRANCH  13  29
ATOM     29  C8  non d ame      -5.897  10.853  70.022  0.00  0.00    -0.049 C 
ATOM     30  H7  non d ame      -5.084  11.445  70.445  0.00  0.00     0.030 H 
ATOM     31  H8  non d ame      -6.734  10.835  70.720  0.00  0.00     0.030 H 
ATOM     32  H9  non d ame      -5.550   9.836  69.843  0.00  0.00     0.030 H 
ENDBRANCH  13  29
ENDBRANCH  10  13
ENDBRANCH   7   9
BRANCH   7  33
ATOM     33  C11 non d ame     -10.646   9.819  69.735  0.00  0.00    -0.033 C 
ATOM     34  H12 non d ame      -9.883   9.770  70.512  0.00  0.00     0.042 H 
BRANCH  33  35
ATOM     35  C12 non d ame     -12.012  10.098  70.436  0.00  0.00    -0.071 C 
ATOM     36  H13 non d ame     -11.843  10.293  71.495  0.00  0.00     0.028 H 
ATOM     37  H14 non d ame     -12.485  10.966  69.978  0.00  0.00     0.028 H 
ATOM     38  H15 non d ame     -12.660   9.229  70.326  0.00  0.00     0.028 H 
ENDBRANCH  33  35
BRANCH  33  39
ATOM     39  C13 non d ame     -10.663   8.448  68.986  0.00  0.00    -0.071 C 
ATOM     40  H16 non d ame     -10.129   8.544  68.040  0.00  0.00     0.028 H 
ATOM     41  H17 non d ame     -10.177   7.691  69.602  0.00  0.00     0.028 H 
ATOM     42  H18 non d ame     -11.694   8.153  68.793  0.00  0.00     0.028 H 
ENDBRANCH  33  39
ENDBRANCH   7  33
ENDBRANCH   4   7
ENDBRANCH   1   3
BRANCH   1  43
ATOM     43  C15 non d ame     -11.635  15.346  68.981  0.00  0.00     0.240 C 
ATOM     44  O5  non d ame     -12.215  16.384  68.988  0.00  0.00    -0.271 OA
ATOM     45  N6  non d ame     -10.633  15.064  67.914  0.00  0.00    -0.355 N 
ATOM     46  H46 non d ame     -10.131  14.189  67.901  0.00  0.00     0.162 HD
BRANCH  45  47
ATOM     47  C20 non d ame     -10.373  16.076  66.867  0.00  0.00     0.013 C 
ATOM     48  H30 non d ame     -11.122  16.861  66.966  0.00  0.00     0.072 H 
BRANCH  47  49
ATOM     49  C21 non d ame     -10.484  15.426  65.506  0.00  0.00    -0.038 C 
ATOM     50  H31 non d ame     -11.546  15.435  65.260  0.00  0.00     0.036 H 
ATOM     51  H32 non d ame      -9.772  15.952  64.870  0.00  0.00     0.036 H 
BRANCH  49  52
ATOM     52  C22 non d ame     -10.050  13.944  65.513  0.00  0.00     0.018 C 
ATOM     53  H33 non d ame      -9.231  13.872  64.797  0.00  0.00     0.048 H 
ATOM     54  H34 non d ame      -9.882  13.690  66.560  0.00  0.00     0.048 H 
BRANCH  52  55
ATOM     55  C23 non d ame     -11.148  12.968  65.006  0.00  0.00     0.259 C 
ATOM     56  O7  non d ame     -12.297  13.263  65.077  0.00  0.00    -0.265 OA
BRANCH  55  57
ATOM     57  O8  non d ame     -10.765  11.708  64.467  0.00  0.00    -0.317 OA
BRANCH  57  58
ATOM     58  C29 non d ame     -10.217  11.782  63.148  0.00  0.00     0.052 C 
ATOM     59  H47 non d ame     -11.043  11.556  62.473  0.00  0.00     0.082 H 
ATOM     60  H48 non d ame      -9.715  12.747  63.090  0.00  0.00     0.082 H 
BRANCH  58  61
ATOM     61  C35 non d ame      -9.149  10.664  63.010  0.00  0.00    -0.034 A 
ATOM     62  C30 non d ame      -9.139   9.597  63.901  0.00  0.00    -0.075 A 
ATOM     63  C31 non d ame      -8.179   8.593  63.778  0.00  0.00    -0.082 A 
ATOM     64  H49 non d ame      -9.883   9.546  64.697  0.00  0.00     0.084 H 
ATOM     65  C32 non d ame      -7.225   8.661  62.759  0.00  0.00    -0.083 A 
ATOM     66  H50 non d ame      -8.175   7.756  64.477  0.00  0.00     0.083 H 
ATOM     67  C33 non d ame      -7.238   9.730  61.873  0.00  0.00    -0.082 A 
ATOM     68  H51 non d ame      -6.472   7.880  62.655  0.00  0.00     0.083 H 
ATOM     69  C34 non d ame      -8.196  10.735  61.992  0.00  0.00    -0.075 A 
ATOM     70  H52 non d ame      -6.491   9.782  61.081  0.00  0.00     0.083 H 
ATOM     71  H53 non d ame      -8.200  11.571  61.292  0.00  0.00     0.084 H 
ENDBRANCH  58  61
ENDBRANCH  57  58
ENDBRANCH  55  57
ENDBRANCH  52  55
ENDBRANCH  49  52
ENDBRANCH  47  49
BRANCH  47  72
ATOM     72  C24 non d ame      -8.971  16.654  67.044  0.00  0.00    -0.039 C 
ATOM     73  H35 non d ame      -8.549  16.133  67.903  0.00  0.00     0.036 H 
ATOM     74  H36 non d ame      -8.496  16.567  66.066  0.00  0.00     0.036 H 
BRANCH  72  75
ATOM     75  C25 non d ame      -9.015  18.213  67.410  0.00  0.00    -0.001 C 
ATOM     76  C26 non d ame     -10.553  18.777  67.275  0.00  0.00    -0.035 C 
ATOM     77  C27 non d ame     -10.544  19.887  66.499  0.00  0.00     0.085 C 
ATOM     78  H38 non d ame     -11.161  18.073  66.706  0.00  0.00     0.036 H 
ATOM     79  H39 non d ame     -10.903  19.144  68.240  0.00  0.00     0.036 H 
ATOM     80  N5  non d ame      -9.194  19.944  65.826  0.00  0.00    -0.049 N 
ATOM     81  H40 non d ame     -11.312  19.720  65.742  0.00  0.00     0.075 H 
ATOM     82  H41 non d ame     -10.633  20.725  67.189  0.00  0.00     0.075 H 
ATOM     83  C28 non d ame      -8.256  18.900  66.623  0.00  0.00     0.193 C 
ATOM     84  H42 non d ame      -9.329  19.603  64.885  0.00  0.00     0.280 HD
ATOM     85  H43 non d ame      -8.838  20.877  65.978  0.00  0.00     0.280 HD
ATOM     86  H44 non d ame      -7.507  19.256  67.330  0.00  0.00     0.129 H 
ATOM     87  H37 non d ame      -8.485  18.434  68.337  0.00  0.00     0.046 H 
BRANCH  83  88
ATOM     88  O6  non d ame      -7.546  18.071  65.700  0.00  0.00    -0.369 OA
ATOM     89  H45 non d ame      -7.790  18.310  64.803  0.00  0.00     0.212 HD
ENDBRANCH  83  88
ENDBRANCH  72  75
ENDBRANCH  47  72
ENDBRANCH  45  47
ENDBRANCH   1  43
BRANCH   1  90
ATOM     90  C16 non d ame     -11.719  14.927  71.459  0.00  0.00    -0.035 C 
ATOM     91  H21 non d ame     -10.944  14.331  71.942  0.00  0.00     0.037 H 
ATOM     92  H22 non d ame     -11.550  15.986  71.265  0.00  0.00     0.037 H 
BRANCH  90  93
ATOM     93  C17 non d ame     -12.978  14.842  72.379  0.00  0.00    -0.059 C 
ATOM     94  H23 non d ame     -13.699  15.576  72.021  0.00  0.00     0.038 H 
BRANCH  93  95
ATOM     95  C18 non d ame     -13.658  13.437  72.318  0.00  0.00    -0.073 C 
ATOM     96  H24 non d ame     -14.308  13.311  73.184  0.00  0.00     0.028 H 
ATOM     97  H25 non d ame     -14.250  13.359  71.406  0.00  0.00     0.028 H 
ATOM     98  H26 non d ame     -12.892  12.662  72.322  0.00  0.00     0.028 H 
ENDBRANCH  93  95
BRANCH  93  99
ATOM     99  C19 non d ame     -12.627  15.215  73.822  0.00  0.00    -0.073 C 
ATOM    100  H27 non d ame     -12.394  16.279  73.875  0.00  0.00     0.028 H 
ATOM    101  H28 non d ame     -13.475  14.995  74.470  0.00  0.00     0.028 H 
ATOM    102  H29 non d ame     -11.762  14.637  74.146  0.00  0.00     0.028 H 
ENDBRANCH  93  99
ENDBRANCH  90  93
ENDBRANCH   1  90
TORSDOF 26
ENDMDL
MODEL 4
REMARK VINA RESULT:      -6.8      3.393      5.949
REMARK  26 active torsions:
REMARK  status: ('A' for Active; 'I' for Inactive)
REMARK    1  A    between atoms: C2_2  and  C3_3 
REMARK    2  A    between atoms: C4_6  and  C5_7 
REMARK       I    between atoms: C5_7  and  N2_9 
REMARK    3  A    between atoms: N2_9  and  C6_10 
REMARK    4  A    between atoms: C6_10  and  C7_11 
REMARK    5  A    between atoms: C6_10  and  C8_13 
REMARK       I    between atoms: C7_11  and  N3_14 
REMARK    6  A    between atoms: N3_14  and  C9_15 
REMARK    7  A    between atoms: C9_15  and  C10_16 
REMARK    8  A    between atoms: C9_15  and  C11_18 
REMARK       I    between atoms: C10_16  and  N4_21 
REMARK    9  A    between atoms: C11_18  and  C12_19 
REMARK   10  A    between atoms: C11_18  and  C13_20 
REMARK   11  A    between atoms: N4_21  and  C14_22 
REMARK   12  A    between atoms: C14_22  and  C15_23 
REMARK   13  A    between atoms: C14_22  and  C16_25 
REMARK       I    between atoms: C15_23  and  N6_40 
REMARK   14  A    between atoms: C16_25  and  C17_26 
REMARK   15  A    between atoms: C17_26  and  C18_27 
REMARK   16  A    between atoms: C17_26  and  C19_28 
REMARK   17  A    between atoms: C20_29  and  C21_30 
REMARK   18  A    between atoms: C20_29  and  C24_33 
REMARK   19  A    between atoms: C20_29  and  N6_40 
REMARK   20  A    between atoms: C21_30  and  C22_31 
REMARK   21  A    between atoms: C22_31  and  C23_32 
REMARK   22  A    between atoms: C23_32  and  O8_43 
REMARK   23  A    between atoms: C24_33  and  C25_34 
REMARK   24  A    between atoms: C28_38  and  O6_39 
REMARK   25  A    between atoms: C29_42  and  O8_43 
REMARK   26  A    between atoms: C29_42  and  C35_49 
ROOT
ATOM      1  C14 non d ame      -6.405  13.745  67.780  0.00  0.00     0.089 C 
ATOM      2  H20 non d ame      -5.796  13.796  66.877  0.00  0.00     0.087 H 
ENDROOT
BRANCH   1   3
ATOM      3  N4  non d ame      -6.752  15.109  68.152  0.00  0.00    -0.346 N 
ATOM      4  C10 non d ame      -6.053  16.277  67.502  0.00  0.00     0.241 C 
ATOM      5  O4  non d ame      -5.213  16.094  66.684  0.00  0.00    -0.271 OA
ATOM      6  H19 non d ame      -7.468  15.243  68.852  0.00  0.00     0.163 HD
BRANCH   4   7
ATOM      7  C9  non d ame      -6.429  17.681  67.895  0.00  0.00     0.092 C 
ATOM      8  H11 non d ame      -6.151  18.364  67.093  0.00  0.00     0.088 H 
BRANCH   7   9
ATOM      9  N3  non d ame      -7.883  17.772  68.058  0.00  0.00    -0.346 N 
ATOM     10  C7  non d ame      -8.722  18.015  66.910  0.00  0.00     0.240 C 
ATOM     11  O3  non d ame      -8.244  18.141  65.849  0.00  0.00    -0.271 OA
ATOM     12  H10 non d ame      -8.309  17.666  68.967  0.00  0.00     0.163 HD
BRANCH  10  13
ATOM     13  C6  non d ame     -10.269  18.113  67.090  0.00  0.00     0.086 C 
ATOM     14  H6  non d ame     -10.818  17.572  66.319  0.00  0.00     0.086 H 
BRANCH  13  15
ATOM     15  N2  non d ame     -10.635  17.511  68.361  0.00  0.00    -0.343 N 
ATOM     16  C5  non d ame     -11.132  16.134  68.390  0.00  0.00     0.273 C 
ATOM     17  O2  non d ame     -11.237  15.520  67.386  0.00  0.00    -0.266 OA
ATOM     18  H5  non d ame     -10.545  18.044  69.215  0.00  0.00     0.163 HD
BRANCH  16  19
ATOM     19  C4  non d ame     -11.522  15.484  69.727  0.00  0.00     0.154 A 
ATOM     20  C1  non d ame     -11.613  16.123  71.005  0.00  0.00    -0.017 A 
ATOM     21  C2  non d ame     -12.005  15.099  71.896  0.00  0.00     0.077 A 
ATOM     22  H1  non d ame     -11.425  17.168  71.248  0.00  0.00     0.091 H 
ATOM     23  O1  non d ame     -12.123  14.005  71.201  0.00  0.00    -0.218 OA
ATOM     24  N1  non d ame     -11.846  14.205  69.933  0.00  0.00    -0.123 NA
BRANCH  21  25
ATOM     25  C3  non d ame     -12.245  15.249  73.392  0.00  0.00    -0.029 C 
ATOM     26  H2  non d ame     -12.306  16.307  73.647  0.00  0.00     0.036 H 
ATOM     27  H3  non d ame     -13.179  14.756  73.661  0.00  0.00     0.036 H 
ATOM     28  H4  non d ame     -11.422  14.790  73.941  0.00  0.00     0.036 H 
ENDBRANCH  21  25
ENDBRANCH  16  19
ENDBRANCH  13  15
BRANCH  13  29
ATOM     29  C8  non d ame     -10.690  19.560  67.064  0.00  0.00    -0.049 C 
ATOM     30  H7  non d ame     -11.687  19.641  66.632  0.00  0.00     0.030 H 
ATOM     31  H8  non d ame     -10.700  19.954  68.080  0.00  0.00     0.030 H 
ATOM     32  H9  non d ame      -9.986  20.132  66.459  0.00  0.00     0.030 H 
ENDBRANCH  13  29
ENDBRANCH  10  13
ENDBRANCH   7   9
BRANCH   7  33
ATOM     33  C11 non d ame      -5.735  18.046  69.241  0.00  0.00    -0.033 C 
ATOM     34  H12 non d ame      -6.005  17.280  69.968  0.00  0.00     0.042 H 
BRANCH  33  35
ATOM     35  C12 non d ame      -4.181  18.034  69.101  0.00  0.00    -0.071 C 
ATOM     36  H13 non d ame      -3.732  17.791  70.064  0.00  0.00     0.028 H 
ATOM     37  H14 non d ame      -3.889  17.285  68.365  0.00  0.00     0.028 H 
ATOM     38  H15 non d ame      -3.838  19.016  68.777  0.00  0.00     0.028 H 
ENDBRANCH  33  35
BRANCH  33  39
ATOM     39  C13 non d ame      -6.245  19.422  69.778  0.00  0.00    -0.071 C 
ATOM     40  H16 non d ame      -5.529  20.201  69.519  0.00  0.00     0.028 H 
ATOM     41  H17 non d ame      -7.211  19.653  69.327  0.00  0.00     0.028 H 
ATOM     42  H18 non d ame      -6.352  19.372  70.861  0.00  0.00     0.028 H 
ENDBRANCH  33  39
ENDBRANCH   7  33
ENDBRANCH   4   7
ENDBRANCH   1   3
BRANCH   1  43
ATOM     43  C15 non d ame      -7.720  12.943  67.558  0.00  0.00     0.240 C 
ATOM     44  O5  non d ame      -8.702  13.241  68.157  0.00  0.00    -0.271 OA
ATOM     45  N6  non d ame      -7.756  11.809  66.591  0.00  0.00    -0.355 N 
ATOM     46  H46 non d ame      -6.929  11.550  66.073  0.00  0.00     0.162 HD
BRANCH  45  47
ATOM     47  C20 non d ame      -9.013  11.057  66.390  0.00  0.00     0.013 C 
ATOM     48  H30 non d ame      -9.805  11.578  66.928  0.00  0.00     0.072 H 
BRANCH  47  49
ATOM     49  C21 non d ame      -8.852   9.657  66.938  0.00  0.00    -0.038 C 
ATOM     50  H31 non d ame      -7.960   9.254  66.458  0.00  0.00     0.036 H 
ATOM     51  H32 non d ame      -8.889   9.760  68.022  0.00  0.00     0.036 H 
BRANCH  49  52
ATOM     52  C22 non d ame     -10.017   8.723  66.547  0.00  0.00     0.018 C 
ATOM     53  H33 non d ame     -10.745   8.804  67.356  0.00  0.00     0.048 H 
ATOM     54  H34 non d ame     -10.296   9.007  65.532  0.00  0.00     0.048 H 
BRANCH  52  55
ATOM     55  C23 non d ame      -9.621   7.222  66.478  0.00  0.00     0.259 C 
ATOM     56  O7  non d ame     -10.423   6.375  66.704  0.00  0.00    -0.265 OA
BRANCH  55  57
ATOM     57  O8  non d ame      -8.281   6.870  66.153  0.00  0.00    -0.317 OA
BRANCH  57  58
ATOM     58  C29 non d ame      -8.105   6.438  64.800  0.00  0.00     0.052 C 
ATOM     59  H47 non d ame      -7.327   5.675  64.833  0.00  0.00     0.082 H 
ATOM     60  H48 non d ame      -9.102   6.185  64.439  0.00  0.00     0.082 H 
BRANCH  58  61
ATOM     61  C35 non d ame      -7.576   7.643  63.978  0.00  0.00    -0.034 A 
ATOM     62  C30 non d ame      -6.556   8.440  64.487  0.00  0.00    -0.075 A 
ATOM     63  C31 non d ame      -6.081   9.523  63.749  0.00  0.00    -0.082 A 
ATOM     64  H49 non d ame      -6.129   8.217  65.465  0.00  0.00     0.084 H 
ATOM     65  C32 non d ame      -6.632   9.809  62.497  0.00  0.00    -0.083 A 
ATOM     66  H50 non d ame      -5.280  10.145  64.150  0.00  0.00     0.083 H 
ATOM     67  C33 non d ame      -7.652   9.013  61.994  0.00  0.00    -0.082 A 
ATOM     68  H51 non d ame      -6.266  10.653  61.913  0.00  0.00     0.083 H 
ATOM     69  C34 non d ame      -8.128   7.928  62.728  0.00  0.00    -0.075 A 
ATOM     70  H52 non d ame      -8.081   9.240  61.018  0.00  0.00     0.083 H 
ATOM     71  H53 non d ame      -8.929   7.307  62.325  0.00  0.00     0.084 H 
ENDBRANCH  58  61
ENDBRANCH  57  58
ENDBRANCH  55  57
ENDBRANCH  52  55
ENDBRANCH  49  52
ENDBRANCH  47  49
BRANCH  47  72
ATOM     72  C24 non d ame      -9.341  10.987  64.900  0.00  0.00    -0.039 C 
ATOM     73  H35 non d ame      -8.379  11.047  64.389  0.00  0.00     0.036 H 
ATOM     74  H36 non d ame      -9.966  10.103  64.781  0.00  0.00     0.036 H 
BRANCH  72  75
ATOM     75  C25 non d ame     -10.208  12.247  64.424  0.00  0.00    -0.001 C 
ATOM     76  C26 non d ame     -11.301  12.645  65.586  0.00  0.00    -0.035 C 
ATOM     77  C27 non d ame     -12.528  12.733  65.019  0.00  0.00     0.085 C 
ATOM     78  H38 non d ame     -11.407  11.826  66.296  0.00  0.00     0.036 H 
ATOM     79  H39 non d ame     -11.114  13.657  65.945  0.00  0.00     0.036 H 
ATOM     80  N5  non d ame     -12.426  12.114  63.646  0.00  0.00    -0.049 N 
ATOM     81  H40 non d ame     -13.181  12.118  65.639  0.00  0.00     0.075 H 
ATOM     82  H41 non d ame     -12.724  13.800  64.913  0.00  0.00     0.075 H 
ATOM     83  C28 non d ame     -10.847  11.989  63.332  0.00  0.00     0.193 C 
ATOM     84  H42 non d ame     -12.813  11.184  63.722  0.00  0.00     0.280 HD
ATOM     85  H43 non d ame     -12.830  12.778  63.001  0.00  0.00     0.280 HD
ATOM     86  H44 non d ame     -10.362  12.686  62.649  0.00  0.00     0.129 H 
ATOM     87  H37 non d ame      -9.586  13.052  64.031  0.00  0.00     0.046 H 
BRANCH  83  88
ATOM     88  O6  non d ame     -10.546  10.687  62.826  0.00  0.00    -0.369 OA
ATOM     89  H45 non d ame     -10.910  10.596  61.943  0.00  0.00     0.212 HD
ENDBRANCH  83  88
ENDBRANCH  72  75
ENDBRANCH  47  72
ENDBRANCH  45  47
ENDBRANCH   1  43
BRANCH   1  90
ATOM     90  C16 non d ame      -5.605  13.112  68.907  0.00  0.00    -0.035 C 
ATOM     91  H21 non d ame      -6.293  12.426  69.401  0.00  0.00     0.037 H 
ATOM     92  H22 non d ame      -4.698  12.729  68.437  0.00  0.00     0.037 H 
BRANCH  90  93
ATOM     93  C17 non d ame      -5.140  14.131  69.995  0.00  0.00    -0.059 C 
ATOM     94  H23 non d ame      -5.650  15.075  69.804  0.00  0.00     0.038 H 
BRANCH  93  95
ATOM     95  C18 non d ame      -5.523  13.668  71.438  0.00  0.00    -0.073 C 
ATOM     96  H24 non d ame      -4.861  12.858  71.746  0.00  0.00     0.028 H 
ATOM     97  H25 non d ame      -5.418  14.505  72.128  0.00  0.00     0.028 H 
ATOM     98  H26 non d ame      -6.555  13.318  71.445  0.00  0.00     0.028 H 
ENDBRANCH  93  95
BRANCH  93  99
ATOM     99  C19 non d ame      -3.637  14.397  69.890  0.00  0.00    -0.073 C 
ATOM    100  H27 non d ame      -3.428  15.427  70.181  0.00  0.00     0.028 H 
ATOM    101  H28 non d ame      -3.100  13.717  70.551  0.00  0.00     0.028 H 
ATOM    102  H29 non d ame      -3.311  14.237  68.862  0.00  0.00     0.028 H 
ENDBRANCH  93  99
ENDBRANCH  90  93
ENDBRANCH   1  90
TORSDOF 26
ENDMDL
MODEL 5
REMARK VINA RESULT:      -6.8      2.508      9.927
REMARK  26 active torsions:
REMARK  status: ('A' for Active; 'I' for Inactive)
REMARK    1  A    between atoms: C2_2  and  C3_3 
REMARK    2  A    between atoms: C4_6  and  C5_7 
REMARK       I    between atoms: C5_7  and  N2_9 
REMARK    3  A    between atoms: N2_9  and  C6_10 
REMARK    4  A    between atoms: C6_10  and  C7_11 
REMARK    5  A    between atoms: C6_10  and  C8_13 
REMARK       I    between atoms: C7_11  and  N3_14 
REMARK    6  A    between atoms: N3_14  and  C9_15 
REMARK    7  A    between atoms: C9_15  and  C10_16 
REMARK    8  A    between atoms: C9_15  and  C11_18 
REMARK       I    between atoms: C10_16  and  N4_21 
REMARK    9  A    between atoms: C11_18  and  C12_19 
REMARK   10  A    between atoms: C11_18  and  C13_20 
REMARK   11  A    between atoms: N4_21  and  C14_22 
REMARK   12  A    between atoms: C14_22  and  C15_23 
REMARK   13  A    between atoms: C14_22  and  C16_25 
REMARK       I    between atoms: C15_23  and  N6_40 
REMARK   14  A    between atoms: C16_25  and  C17_26 
REMARK   15  A    between atoms: C17_26  and  C18_27 
REMARK   16  A    between atoms: C17_26  and  C19_28 
REMARK   17  A    between atoms: C20_29  and  C21_30 
REMARK   18  A    between atoms: C20_29  and  C24_33 
REMARK   19  A    between atoms: C20_29  and  N6_40 
REMARK   20  A    between atoms: C21_30  and  C22_31 
REMARK   21  A    between atoms: C22_31  and  C23_32 
REMARK   22  A    between atoms: C23_32  and  O8_43 
REMARK   23  A    between atoms: C24_33  and  C25_34 
REMARK   24  A    between atoms: C28_38  and  O6_39 
REMARK   25  A    between atoms: C29_42  and  O8_43 
REMARK   26  A    between atoms: C29_42  and  C35_49 
ROOT
ATOM      1  C14 non d ame     -10.542   7.169  69.656  0.00  0.00     0.089 C 
ATOM      2  H20 non d ame     -11.620   7.023  69.722  0.00  0.00     0.087 H 
ENDROOT
BRANCH   1   3
ATOM      3  N4  non d ame      -9.999   6.074  68.866  0.00  0.00    -0.346 N 
ATOM      4  C10 non d ame     -10.577   5.753  67.511  0.00  0.00     0.241 C 
ATOM      5  O4  non d ame     -11.481   6.389  67.078  0.00  0.00    -0.271 OA
ATOM      6  H19 non d ame      -9.231   5.544  69.254  0.00  0.00     0.163 HD
BRANCH   4   7
ATOM      7  C9  non d ame      -9.999   4.620  66.705  0.00  0.00     0.092 C 
ATOM      8  H11 non d ame     -10.795   3.921  66.446  0.00  0.00     0.088 H 
BRANCH   7   9
ATOM      9  N3  non d ame      -9.454   5.142  65.447  0.00  0.00    -0.346 N 
ATOM     10  C7  non d ame      -9.782   4.499  64.199  0.00  0.00     0.240 C 
ATOM     11  O3  non d ame     -10.481   3.560  64.187  0.00  0.00    -0.271 OA
ATOM     12  H10 non d ame      -8.849   5.950  65.442  0.00  0.00     0.163 HD
BRANCH  10  13
ATOM     13  C6  non d ame      -9.197   5.057  62.864  0.00  0.00     0.086 C 
ATOM     14  H6  non d ame      -9.760   5.908  62.481  0.00  0.00     0.086 H 
BRANCH  13  15
ATOM     15  N2  non d ame      -7.843   5.527  63.103  0.00  0.00    -0.343 N 
ATOM     16  C5  non d ame      -7.528   6.945  62.915  0.00  0.00     0.273 C 
ATOM     17  O2  non d ame      -8.370   7.699  62.569  0.00  0.00    -0.266 OA
ATOM     18  H5  non d ame      -7.128   4.876  63.397  0.00  0.00     0.163 HD
BRANCH  16  19
ATOM     19  C4  non d ame      -6.101   7.457  63.166  0.00  0.00     0.154 A 
ATOM     20  C1  non d ame      -5.450   8.555  62.519  0.00  0.00    -0.017 A 
ATOM     21  C2  non d ame      -4.164   8.610  63.103  0.00  0.00     0.077 A 
ATOM     22  H1  non d ame      -5.848   9.211  61.745  0.00  0.00     0.091 H 
ATOM     23  O1  non d ame      -4.096   7.653  63.982  0.00  0.00    -0.218 OA
ATOM     24  N1  non d ame      -5.214   6.966  64.036  0.00  0.00    -0.123 NA
BRANCH  21  25
ATOM     25  C3  non d ame      -3.063   9.607  62.766  0.00  0.00    -0.029 C 
ATOM     26  H2  non d ame      -2.802   9.517  61.711  0.00  0.00     0.036 H 
ATOM     27  H3  non d ame      -3.415  10.618  62.969  0.00  0.00     0.036 H 
ATOM     28  H4  non d ame      -2.184   9.398  63.377  0.00  0.00     0.036 H 
ENDBRANCH  21  25
ENDBRANCH  16  19
ENDBRANCH  13  15
BRANCH  13  29
ATOM     29  C8  non d ame      -9.189   3.968  61.821  0.00  0.00    -0.049 C 
ATOM     30  H7  non d ame      -8.291   4.057  61.210  0.00  0.00     0.030 H 
ATOM     31  H8  non d ame      -9.200   2.995  62.312  0.00  0.00     0.030 H 
ATOM     32  H9  non d ame     -10.070   4.066  61.188  0.00  0.00     0.030 H 
ENDBRANCH  13  29
ENDBRANCH  10  13
ENDBRANCH   7   9
BRANCH   7  33
ATOM     33  C11 non d ame      -8.860   3.935  67.515  0.00  0.00    -0.033 C 
ATOM     34  H12 non d ame      -8.846   4.385  68.507  0.00  0.00     0.042 H 
BRANCH  33  35
ATOM     35  C12 non d ame      -9.130   2.409  67.697  0.00  0.00    -0.071 C 
ATOM     36  H13 non d ame      -8.600   2.048  68.579  0.00  0.00     0.028 H 
ATOM     37  H14 non d ame     -10.199   2.242  67.823  0.00  0.00     0.028 H 
ATOM     38  H15 non d ame      -8.779   1.871  66.817  0.00  0.00     0.028 H 
ENDBRANCH  33  35
BRANCH  33  39
ATOM     39  C13 non d ame      -7.469   4.189  66.849  0.00  0.00    -0.071 C 
ATOM     40  H16 non d ame      -7.330   5.258  66.695  0.00  0.00     0.028 H 
ATOM     41  H17 non d ame      -6.680   3.810  67.500  0.00  0.00     0.028 H 
ATOM     42  H18 non d ame      -7.427   3.674  65.890  0.00  0.00     0.028 H 
ENDBRANCH  33  39
ENDBRANCH   7  33
ENDBRANCH   4   7
ENDBRANCH   1   3
BRANCH   1  43
ATOM     43  C15 non d ame     -10.172   8.511  68.962  0.00  0.00     0.240 C 
ATOM     44  O5  non d ame      -9.065   8.687  68.566  0.00  0.00    -0.271 OA
ATOM     45  N6  non d ame     -11.201   9.575  68.783  0.00  0.00    -0.355 N 
ATOM     46  H46 non d ame     -12.146   9.436  69.111  0.00  0.00     0.162 HD
BRANCH  45  47
ATOM     47  C20 non d ame     -10.834  10.845  68.119  0.00  0.00     0.013 C 
ATOM     48  H30 non d ame      -9.765  11.001  68.261  0.00  0.00     0.072 H 
BRANCH  47  49
ATOM     49  C21 non d ame     -11.610  11.980  68.749  0.00  0.00    -0.038 C 
ATOM     50  H31 non d ame     -12.605  11.582  68.948  0.00  0.00     0.036 H 
ATOM     51  H32 non d ame     -10.991  12.338  69.572  0.00  0.00     0.036 H 
BRANCH  49  52
ATOM     52  C22 non d ame     -11.802  13.177  67.793  0.00  0.00     0.018 C 
ATOM     53  H33 non d ame     -11.697  12.772  66.787  0.00  0.00     0.048 H 
ATOM     54  H34 non d ame     -12.737  13.650  68.096  0.00  0.00     0.048 H 
BRANCH  52  55
ATOM     55  C23 non d ame     -10.706  14.271  67.931  0.00  0.00     0.259 C 
ATOM     56  O7  non d ame      -9.872  14.397  67.095  0.00  0.00    -0.265 OA
BRANCH  55  57
ATOM     57  O8  non d ame     -10.703  15.113  69.078  0.00  0.00    -0.317 OA
BRANCH  57  58
ATOM     58  C29 non d ame     -11.960  15.743  69.341  0.00  0.00     0.052 C 
ATOM     59  H47 non d ame     -11.780  16.814  69.239  0.00  0.00     0.082 H 
ATOM     60  H48 non d ame     -12.680  15.248  68.691  0.00  0.00     0.082 H 
BRANCH  58  61
ATOM     61  C35 non d ame     -12.344  15.448  70.815  0.00  0.00    -0.034 A 
ATOM     62  C30 non d ame     -13.259  14.442  71.108  0.00  0.00    -0.075 A 
ATOM     63  C31 non d ame     -13.605  14.176  72.432  0.00  0.00    -0.082 A 
ATOM     64  H49 non d ame     -13.705  13.861  70.300  0.00  0.00     0.084 H 
ATOM     65  C32 non d ame     -13.034  14.923  73.466  0.00  0.00    -0.083 A 
ATOM     66  H50 non d ame     -14.321  13.386  72.658  0.00  0.00     0.083 H 
ATOM     67  C33 non d ame     -12.124  15.928  73.168  0.00  0.00    -0.082 A 
ATOM     68  H51 non d ame     -13.298  14.722  74.504  0.00  0.00     0.083 H 
ATOM     69  C34 non d ame     -11.773  16.196  71.846  0.00  0.00    -0.075 A 
ATOM     70  H52 non d ame     -11.681  16.511  73.977  0.00  0.00     0.083 H 
ATOM     71  H53 non d ame     -11.057  16.986  71.621  0.00  0.00     0.084 H 
ENDBRANCH  58  61
ENDBRANCH  57  58
ENDBRANCH  55  57
ENDBRANCH  52  55
ENDBRANCH  49  52
ENDBRANCH  47  49
BRANCH  47  72
ATOM     72  C24 non d ame     -11.166  10.765  66.631  0.00  0.00    -0.039 C 
ATOM     73  H35 non d ame     -11.472   9.733  66.457  0.00  0.00     0.036 H 
ATOM     74  H36 non d ame     -11.867  11.579  66.445  0.00  0.00     0.036 H 
BRANCH  72  75
ATOM     75  C25 non d ame      -9.876  11.035  65.721  0.00  0.00    -0.001 C 
ATOM     76  C26 non d ame     -10.268  12.035  64.476  0.00  0.00    -0.035 C 
ATOM     77  C27 non d ame      -9.848  11.474  63.317  0.00  0.00     0.085 C 
ATOM     78  H38 non d ame     -11.350  12.080  64.360  0.00  0.00     0.036 H 
ATOM     79  H39 non d ame      -9.687  12.956  64.538  0.00  0.00     0.036 H 
ATOM     80  N5  non d ame      -9.499  10.038  63.622  0.00  0.00    -0.049 N 
ATOM     81  H40 non d ame     -10.712  11.497  62.652  0.00  0.00     0.075 H 
ATOM     82  H41 non d ame      -8.939  12.011  63.047  0.00  0.00     0.075 H 
ATOM     83  C28 non d ame      -9.410   9.935  65.231  0.00  0.00     0.193 C 
ATOM     84  H42 non d ame     -10.280   9.480  63.307  0.00  0.00     0.280 HD
ATOM     85  H43 non d ame      -8.578   9.879  63.239  0.00  0.00     0.280 HD
ATOM     86  H44 non d ame      -8.442   9.889  65.730  0.00  0.00     0.129 H 
ATOM     87  H37 non d ame      -9.000  11.301  66.314  0.00  0.00     0.046 H 
BRANCH  83  88
ATOM     88  O6  non d ame     -10.132   8.791  65.692  0.00  0.00    -0.369 OA
ATOM     89  H45 non d ame      -9.666   8.396  66.431  0.00  0.00     0.212 HD
ENDBRANCH  83  88
ENDBRANCH  72  75
ENDBRANCH  47  72
ENDBRANCH  45  47
ENDBRANCH   1  43
BRANCH   1  90
ATOM     90  C16 non d ame      -9.930   7.128  71.047  0.00  0.00    -0.035 C 
ATOM     91  H21 non d ame      -9.050   6.492  70.957  0.00  0.00     0.037 H 
ATOM     92  H22 non d ame      -9.820   8.171  71.345  0.00  0.00     0.037 H 
BRANCH  90  93
ATOM     93  C17 non d ame     -10.851   6.458  72.117  0.00  0.00    -0.059 C 
ATOM     94  H23 non d ame     -10.634   5.390  72.117  0.00  0.00     0.038 H 
BRANCH  93  95
ATOM     95  C18 non d ame     -10.574   7.001  73.556  0.00  0.00    -0.073 C 
ATOM     96  H24 non d ame      -9.606   7.500  73.575  0.00  0.00     0.028 H 
ATOM     97  H25 non d ame     -11.355   7.710  73.833  0.00  0.00     0.028 H 
ATOM     98  H26 non d ame     -10.570   6.171  74.262  0.00  0.00     0.028 H 
ENDBRANCH  93  95
BRANCH  93  99
ATOM     99  C19 non d ame     -12.327   6.623  71.747  0.00  0.00    -0.073 C 
ATOM    100  H27 non d ame     -12.656   7.631  72.002  0.00  0.00     0.028 H 
ATOM    101  H28 non d ame     -12.454   6.459  70.677  0.00  0.00     0.028 H 
ATOM    102  H29 non d ame     -12.923   5.896  72.299  0.00  0.00     0.028 H 
ENDBRANCH  93  99
ENDBRANCH  90  93
ENDBRANCH   1  90
TORSDOF 26
ENDMDL
MODEL 6
REMARK VINA RESULT:      -6.8      3.857      9.930
REMARK  26 active torsions:
REMARK  status: ('A' for Active; 'I' for Inactive)
REMARK    1  A    between atoms: C2_2  and  C3_3 
REMARK    2  A    between atoms: C4_6  and  C5_7 
REMARK       I    between atoms: C5_7  and  N2_9 
REMARK    3  A    between atoms: N2_9  and  C6_10 
REMARK    4  A    between atoms: C6_10  and  C7_11 
REMARK    5  A    between atoms: C6_10  and  C8_13 
REMARK       I    between atoms: C7_11  and  N3_14 
REMARK    6  A    between atoms: N3_14  and  C9_15 
REMARK    7  A    between atoms: C9_15  and  C10_16 
REMARK    8  A    between atoms: C9_15  and  C11_18 
REMARK       I    between atoms: C10_16  and  N4_21 
REMARK    9  A    between atoms: C11_18  and  C12_19 
REMARK   10  A    between atoms: C11_18  and  C13_20 
REMARK   11  A    between atoms: N4_21  and  C14_22 
REMARK   12  A    between atoms: C14_22  and  C15_23 
REMARK   13  A    between atoms: C14_22  and  C16_25 
REMARK       I    between atoms: C15_23  and  N6_40 
REMARK   14  A    between atoms: C16_25  and  C17_26 
REMARK   15  A    between atoms: C17_26  and  C18_27 
REMARK   16  A    between atoms: C17_26  and  C19_28 
REMARK   17  A    between atoms: C20_29  and  C21_30 
REMARK   18  A    between atoms: C20_29  and  C24_33 
REMARK   19  A    between atoms: C20_29  and  N6_40 
REMARK   20  A    between atoms: C21_30  and  C22_31 
REMARK   21  A    between atoms: C22_31  and  C23_32 
REMARK   22  A    between atoms: C23_32  and  O8_43 
REMARK   23  A    between atoms: C24_33  and  C25_34 
REMARK   24  A    between atoms: C28_38  and  O6_39 
REMARK   25  A    between atoms: C29_42  and  O8_43 
REMARK   26  A    between atoms: C29_42  and  C35_49 
ROOT
ATOM      1  C14 non d ame     -12.058  13.473  69.639  0.00  0.00     0.089 C 
ATOM      2  H20 non d ame     -13.028  13.250  69.193  0.00  0.00     0.087 H 
ENDROOT
BRANCH   1   3
ATOM      3  N4  non d ame     -11.580  12.256  70.279  0.00  0.00    -0.346 N 
ATOM      4  C10 non d ame     -11.759  10.920  69.604  0.00  0.00     0.241 C 
ATOM      5  O4  non d ame     -12.295  10.848  68.547  0.00  0.00    -0.271 OA
ATOM      6  H19 non d ame     -11.130  12.338  71.179  0.00  0.00     0.163 HD
BRANCH   4   7
ATOM      7  C9  non d ame     -11.253   9.671  70.278  0.00  0.00     0.092 C 
ATOM      8  H11 non d ame     -11.381   8.824  69.605  0.00  0.00     0.088 H 
BRANCH   7   9
ATOM      9  N3  non d ame      -9.817   9.805  70.539  0.00  0.00    -0.346 N 
ATOM     10  C7  non d ame      -8.861   9.360  69.554  0.00  0.00     0.240 C 
ATOM     11  O3  non d ame      -9.231   8.892  68.547  0.00  0.00    -0.271 OA
ATOM     12  H10 non d ame      -9.483  10.205  71.404  0.00  0.00     0.163 HD
BRANCH  10  13
ATOM     13  C6  non d ame      -7.334   9.502  69.839  0.00  0.00     0.086 C 
ATOM     14  H6  non d ame      -6.718   8.978  69.109  0.00  0.00     0.086 H 
BRANCH  13  15
ATOM     15  N2  non d ame      -6.968  10.906  69.760  0.00  0.00    -0.343 N 
ATOM     16  C5  non d ame      -6.545  11.470  68.476  0.00  0.00     0.273 C 
ATOM     17  O2  non d ame      -6.500  10.785  67.514  0.00  0.00    -0.266 OA
ATOM     18  H5  non d ame      -7.007  11.484  70.588  0.00  0.00     0.163 HD
BRANCH  16  19
ATOM     19  C4  non d ame      -6.156  12.953  68.377  0.00  0.00     0.154 A 
ATOM     20  C1  non d ame      -6.385  13.974  69.353  0.00  0.00    -0.017 A 
ATOM     21  C2  non d ame      -5.844  15.149  68.785  0.00  0.00     0.077 A 
ATOM     22  H1  non d ame      -6.869  13.877  70.326  0.00  0.00     0.091 H 
ATOM     23  O1  non d ame      -5.363  14.829  67.619  0.00  0.00    -0.218 OA
ATOM     24  N1  non d ame      -5.533  13.553  67.359  0.00  0.00    -0.123 NA
BRANCH  21  25
ATOM     25  C3  non d ame      -5.827  16.533  69.420  0.00  0.00    -0.029 C 
ATOM     26  H2  non d ame      -6.850  16.883  69.557  0.00  0.00     0.036 H 
ATOM     27  H3  non d ame      -5.328  16.482  70.388  0.00  0.00     0.036 H 
ATOM     28  H4  non d ame      -5.290  17.225  68.770  0.00  0.00     0.036 H 
ENDBRANCH  21  25
ENDBRANCH  16  19
ENDBRANCH  13  15
BRANCH  13  29
ATOM     29  C8  non d ame      -7.024   8.965  71.213  0.00  0.00    -0.049 C 
ATOM     30  H7  non d ame      -7.949   8.647  71.696  0.00  0.00     0.030 H 
ATOM     31  H8  non d ame      -6.349   8.114  71.127  0.00  0.00     0.030 H 
ATOM     32  H9  non d ame      -6.553   9.745  71.810  0.00  0.00     0.030 H 
ENDBRANCH  13  29
ENDBRANCH  10  13
ENDBRANCH   7   9
BRANCH   7  33
ATOM     33  C11 non d ame     -12.006   9.468  71.625  0.00  0.00    -0.033 C 
ATOM     34  H12 non d ame     -11.834  10.354  72.235  0.00  0.00     0.042 H 
BRANCH  33  35
ATOM     35  C12 non d ame     -13.546   9.343  71.403  0.00  0.00    -0.071 C 
ATOM     36  H13 non d ame     -13.956  10.320  71.145  0.00  0.00     0.028 H 
ATOM     37  H14 non d ame     -13.740   8.642  70.591  0.00  0.00     0.028 H 
ATOM     38  H15 non d ame     -14.016   8.981  72.316  0.00  0.00     0.028 H 
ENDBRANCH  33  35
BRANCH  33  39
ATOM     39  C13 non d ame     -11.444   8.232  72.399  0.00  0.00    -0.071 C 
ATOM     40  H16 non d ame     -11.962   7.331  72.071  0.00  0.00     0.028 H 
ATOM     41  H17 non d ame     -10.377   8.132  72.197  0.00  0.00     0.028 H 
ATOM     42  H18 non d ame     -11.599   8.372  73.469  0.00  0.00     0.028 H 
ENDBRANCH  33  39
ENDBRANCH   7  33
ENDBRANCH   4   7
ENDBRANCH   1   3
BRANCH   1  43
ATOM     43  C15 non d ame     -11.012  13.919  68.579  0.00  0.00     0.240 C 
ATOM     44  O5  non d ame      -9.852  13.773  68.795  0.00  0.00    -0.271 OA
ATOM     45  N6  non d ame     -11.455  14.522  67.290  0.00  0.00    -0.355 N 
ATOM     46  H46 non d ame     -12.438  14.647  67.093  0.00  0.00     0.162 HD
BRANCH  45  47
ATOM     47  C20 non d ame     -10.448  14.940  66.291  0.00  0.00     0.013 C 
ATOM     48  H30 non d ame      -9.487  14.520  66.588  0.00  0.00     0.072 H 
BRANCH  47  49
ATOM     49  C21 non d ame     -10.365  16.450  66.266  0.00  0.00    -0.038 C 
ATOM     50  H31 non d ame      -9.572  16.690  65.559  0.00  0.00     0.036 H 
ATOM     51  H32 non d ame     -11.383  16.796  66.083  0.00  0.00     0.036 H 
BRANCH  49  52
ATOM     52  C22 non d ame      -9.937  17.049  67.623  0.00  0.00     0.018 C 
ATOM     53  H33 non d ame     -10.611  16.616  68.363  0.00  0.00     0.048 H 
ATOM     54  H34 non d ame      -8.863  16.876  67.697  0.00  0.00     0.048 H 
BRANCH  52  55
ATOM     55  C23 non d ame     -10.130  18.588  67.717  0.00  0.00     0.259 C 
ATOM     56  O7  non d ame     -11.157  19.088  67.389  0.00  0.00    -0.265 OA
BRANCH  55  57
ATOM     57  O8  non d ame      -9.059  19.397  68.187  0.00  0.00    -0.317 OA
BRANCH  57  58
ATOM     58  C29 non d ame      -8.510  20.270  67.196  0.00  0.00     0.052 C 
ATOM     59  H47 non d ame      -8.581  19.728  66.254  0.00  0.00     0.082 H 
ATOM     60  H48 non d ame      -9.030  21.220  67.319  0.00  0.00     0.082 H 
BRANCH  58  61
ATOM     61  C35 non d ame      -7.009  20.487  67.527  0.00  0.00    -0.034 A 
ATOM     62  C30 non d ame      -6.164  21.061  66.584  0.00  0.00    -0.075 A 
ATOM     63  C31 non d ame      -4.815  21.255  66.880  0.00  0.00    -0.082 A 
ATOM     64  H49 non d ame      -6.557  21.360  65.612  0.00  0.00     0.084 H 
ATOM     65  C32 non d ame      -4.313  20.870  68.126  0.00  0.00    -0.083 A 
ATOM     66  H50 non d ame      -4.156  21.708  66.140  0.00  0.00     0.083 H 
ATOM     67  C33 non d ame      -5.160  20.294  69.063  0.00  0.00    -0.082 A 
ATOM     68  H51 non d ame      -3.260  21.019  68.367  0.00  0.00     0.083 H 
ATOM     69  C34 non d ame      -6.508  20.100  68.772  0.00  0.00    -0.075 A 
ATOM     70  H52 non d ame      -4.764  19.992  70.033  0.00  0.00     0.083 H 
ATOM     71  H53 non d ame      -7.167  19.648  69.513  0.00  0.00     0.084 H 
ENDBRANCH  58  61
ENDBRANCH  57  58
ENDBRANCH  55  57
ENDBRANCH  52  55
ENDBRANCH  49  52
ENDBRANCH  47  49
BRANCH  47  72
ATOM     72  C24 non d ame     -10.847  14.428  64.909  0.00  0.00    -0.039 C 
ATOM     73  H35 non d ame     -11.648  15.088  64.575  0.00  0.00     0.036 H 
ATOM     74  H36 non d ame      -9.918  14.370  64.341  0.00  0.00     0.036 H 
BRANCH  72  75
ATOM     75  C25 non d ame     -11.452  12.946  64.978  0.00  0.00    -0.001 C 
ATOM     76  C26 non d ame     -10.234  11.849  65.101  0.00  0.00    -0.035 C 
ATOM     77  C27 non d ame     -10.405  10.899  64.150  0.00  0.00     0.085 C 
ATOM     78  H38 non d ame      -9.285  12.312  64.831  0.00  0.00     0.036 H 
ATOM     79  H39 non d ame     -10.323  11.294  66.035  0.00  0.00     0.036 H 
ATOM     80  N5  non d ame     -11.439  11.423  63.183  0.00  0.00    -0.049 N 
ATOM     81  H40 non d ame      -9.445  10.823  63.638  0.00  0.00     0.075 H 
ATOM     82  H41 non d ame     -10.813  10.034  64.673  0.00  0.00     0.075 H 
ATOM     83  C28 non d ame     -12.143  12.674  63.921  0.00  0.00     0.193 C 
ATOM     84  H42 non d ame     -10.932  11.766  62.380  0.00  0.00     0.280 HD
ATOM     85  H43 non d ame     -12.124  10.689  63.072  0.00  0.00     0.280 HD
ATOM     86  H44 non d ame     -13.138  12.572  64.355  0.00  0.00     0.129 H 
ATOM     87  H37 non d ame     -12.267  12.866  65.698  0.00  0.00     0.046 H 
BRANCH  83  88
ATOM     88  O6  non d ame     -12.227  13.788  63.030  0.00  0.00    -0.369 OA
ATOM     89  H45 non d ame     -12.817  14.449  63.400  0.00  0.00     0.212 HD
ENDBRANCH  83  88
ENDBRANCH  72  75
ENDBRANCH  47  72
ENDBRANCH  45  47
ENDBRANCH   1  43
BRANCH   1  90
ATOM     90  C16 non d ame     -12.215  14.558  70.692  0.00  0.00    -0.035 C 
ATOM     91  H21 non d ame     -11.422  14.373  71.418  0.00  0.00     0.037 H 
ATOM     92  H22 non d ame     -12.237  15.497  70.138  0.00  0.00     0.037 H 
BRANCH  90  93
ATOM     93  C17 non d ame     -13.561  14.478  71.480  0.00  0.00    -0.059 C 
ATOM     94  H23 non d ame     -14.372  14.528  70.754  0.00  0.00     0.038 H 
BRANCH  93  95
ATOM     95  C18 non d ame     -13.706  13.134  72.264  0.00  0.00    -0.073 C 
ATOM     96  H24 non d ame     -13.790  12.309  71.557  0.00  0.00     0.028 H 
ATOM     97  H25 non d ame     -12.828  12.985  72.894  0.00  0.00     0.028 H 
ATOM     98  H26 non d ame     -14.599  13.172  72.888  0.00  0.00     0.028 H 
ENDBRANCH  93  95
BRANCH  93  99
ATOM     99  C19 non d ame     -13.716  15.676  72.420  0.00  0.00    -0.073 C 
ATOM    100  H27 non d ame     -13.081  16.493  72.076  0.00  0.00     0.028 H 
ATOM    101  H28 non d ame     -14.757  16.002  72.423  0.00  0.00     0.028 H 
ATOM    102  H29 non d ame     -13.424  15.387  73.429  0.00  0.00     0.028 H 
ENDBRANCH  93  99
ENDBRANCH  90  93
ENDBRANCH   1  90
TORSDOF 26
ENDMDL
MODEL 7
REMARK VINA RESULT:      -6.7      1.485      2.086
REMARK  26 active torsions:
REMARK  status: ('A' for Active; 'I' for Inactive)
REMARK    1  A    between atoms: C2_2  and  C3_3 
REMARK    2  A    between atoms: C4_6  and  C5_7 
REMARK       I    between atoms: C5_7  and  N2_9 
REMARK    3  A    between atoms: N2_9  and  C6_10 
REMARK    4  A    between atoms: C6_10  and  C7_11 
REMARK    5  A    between atoms: C6_10  and  C8_13 
REMARK       I    between atoms: C7_11  and  N3_14 
REMARK    6  A    between atoms: N3_14  and  C9_15 
REMARK    7  A    between atoms: C9_15  and  C10_16 
REMARK    8  A    between atoms: C9_15  and  C11_18 
REMARK       I    between atoms: C10_16  and  N4_21 
REMARK    9  A    between atoms: C11_18  and  C12_19 
REMARK   10  A    between atoms: C11_18  and  C13_20 
REMARK   11  A    between atoms: N4_21  and  C14_22 
REMARK   12  A    between atoms: C14_22  and  C15_23 
REMARK   13  A    between atoms: C14_22  and  C16_25 
REMARK       I    between atoms: C15_23  and  N6_40 
REMARK   14  A    between atoms: C16_25  and  C17_26 
REMARK   15  A    between atoms: C17_26  and  C18_27 
REMARK   16  A    between atoms: C17_26  and  C19_28 
REMARK   17  A    between atoms: C20_29  and  C21_30 
REMARK   18  A    between atoms: C20_29  and  C24_33 
REMARK   19  A    between atoms: C20_29  and  N6_40 
REMARK   20  A    between atoms: C21_30  and  C22_31 
REMARK   21  A    between atoms: C22_31  and  C23_32 
REMARK   22  A    between atoms: C23_32  and  O8_43 
REMARK   23  A    between atoms: C24_33  and  C25_34 
REMARK   24  A    between atoms: C28_38  and  O6_39 
REMARK   25  A    between atoms: C29_42  and  O8_43 
REMARK   26  A    between atoms: C29_42  and  C35_49 
ROOT
ATOM      1  C14 non d ame      -7.487   9.704  66.787  0.00  0.00     0.089 C 
ATOM      2  H20 non d ame      -7.194   9.213  65.859  0.00  0.00     0.087 H 
ENDROOT
BRANCH   1   3
ATOM      3  N4  non d ame      -8.581  10.612  66.476  0.00  0.00    -0.346 N 
ATOM      4  C10 non d ame      -9.763  10.133  65.672  0.00  0.00     0.241 C 
ATOM      5  O4  non d ame      -9.810   9.012  65.284  0.00  0.00    -0.271 OA
ATOM      6  H19 non d ame      -8.521  11.562  66.814  0.00  0.00     0.163 HD
BRANCH   4   7
ATOM      7  C9  non d ame     -10.890  11.085  65.365  0.00  0.00     0.092 C 
ATOM      8  H11 non d ame     -11.810  10.706  65.810  0.00  0.00     0.088 H 
BRANCH   7   9
ATOM      9  N3  non d ame     -10.613  12.385  65.981  0.00  0.00    -0.346 N 
ATOM     10  C7  non d ame     -10.969  12.620  67.359  0.00  0.00     0.240 C 
ATOM     11  O3  non d ame     -11.481  11.774  67.986  0.00  0.00    -0.271 OA
ATOM     12  H10 non d ame     -10.173  13.126  65.453  0.00  0.00     0.163 HD
BRANCH  10  13
ATOM     13  C6  non d ame     -10.675  14.008  68.009  0.00  0.00     0.086 C 
ATOM     14  H6  non d ame     -11.237  14.818  67.546  0.00  0.00     0.086 H 
BRANCH  13  15
ATOM     15  N2  non d ame     -11.076  13.969  69.405  0.00  0.00    -0.343 N 
ATOM     16  C5  non d ame     -11.839  15.086  69.968  0.00  0.00     0.273 C 
ATOM     17  O2  non d ame     -12.122  16.011  69.290  0.00  0.00    -0.266 OA
ATOM     18  H5  non d ame     -10.827  13.175  69.978  0.00  0.00     0.163 HD
BRANCH  16  19
ATOM     19  C4  non d ame     -12.270  15.057  71.443  0.00  0.00     0.154 A 
ATOM     20  C1  non d ame     -11.906  15.986  72.468  0.00  0.00    -0.017 A 
ATOM     21  C2  non d ame     -12.559  15.519  73.631  0.00  0.00     0.077 A 
ATOM     22  H1  non d ame     -11.267  16.865  72.382  0.00  0.00     0.091 H 
ATOM     23  O1  non d ame     -13.219  14.447  73.300  0.00  0.00    -0.218 OA
ATOM     24  N1  non d ame     -13.065  14.157  72.029  0.00  0.00    -0.123 NA
BRANCH  21  25
ATOM     25  C3  non d ame     -12.501  16.153  75.014  0.00  0.00    -0.029 C 
ATOM     26  H2  non d ame     -13.430  16.691  75.207  0.00  0.00     0.036 H 
ATOM     27  H3  non d ame     -12.370  15.374  75.766  0.00  0.00     0.036 H 
ATOM     28  H4  non d ame     -11.662  16.848  75.061  0.00  0.00     0.036 H 
ENDBRANCH  21  25
ENDBRANCH  16  19
ENDBRANCH  13  15
BRANCH  13  29
ATOM     29  C8  non d ame      -9.203  14.314  67.902  0.00  0.00    -0.049 C 
ATOM     30  H7  non d ame      -8.951  14.532  66.865  0.00  0.00     0.030 H 
ATOM     31  H8  non d ame      -8.965  15.177  68.524  0.00  0.00     0.030 H 
ATOM     32  H9  non d ame      -8.628  13.452  68.241  0.00  0.00     0.030 H 
ENDBRANCH  13  29
ENDBRANCH  10  13
ENDBRANCH   7   9
BRANCH   7  33
ATOM     33  C11 non d ame     -11.014  11.260  63.823  0.00  0.00    -0.033 C 
ATOM     34  H12 non d ame     -11.276  10.290  63.402  0.00  0.00     0.042 H 
BRANCH  33  35
ATOM     35  C12 non d ame     -12.158  12.256  63.455  0.00  0.00    -0.071 C 
ATOM     36  H13 non d ame     -11.796  12.964  62.709  0.00  0.00     0.028 H 
ATOM     37  H14 non d ame     -13.004  11.702  63.049  0.00  0.00     0.028 H 
ATOM     38  H15 non d ame     -12.470  12.796  64.348  0.00  0.00     0.028 H 
ENDBRANCH  33  35
BRANCH  33  39
ATOM     39  C13 non d ame      -9.652  11.706  63.200  0.00  0.00    -0.071 C 
ATOM     40  H16 non d ame      -9.624  12.793  63.128  0.00  0.00     0.028 H 
ATOM     41  H17 non d ame      -8.833  11.362  63.832  0.00  0.00     0.028 H 
ATOM     42  H18 non d ame      -9.550  11.273  62.204  0.00  0.00     0.028 H 
ENDBRANCH  33  39
ENDBRANCH   7  33
ENDBRANCH   4   7
ENDBRANCH   1   3
BRANCH   1  43
ATOM     43  C15 non d ame      -7.975   8.689  67.860  0.00  0.00     0.240 C 
ATOM     44  O5  non d ame      -7.867   8.951  69.014  0.00  0.00    -0.271 OA
ATOM     45  N6  non d ame      -8.585   7.393  67.448  0.00  0.00    -0.355 N 
ATOM     46  H46 non d ame      -8.686   7.161  66.470  0.00  0.00     0.162 HD
BRANCH  45  47
ATOM     47  C20 non d ame      -9.045   6.439  68.480  0.00  0.00     0.013 C 
ATOM     48  H30 non d ame      -8.442   6.595  69.374  0.00  0.00     0.072 H 
BRANCH  47  49
ATOM     49  C21 non d ame      -8.862   5.027  67.973  0.00  0.00    -0.038 C 
ATOM     50  H31 non d ame      -7.977   5.055  67.336  0.00  0.00     0.036 H 
ATOM     51  H32 non d ame      -8.876   4.391  68.859  0.00  0.00     0.036 H 
BRANCH  49  52
ATOM     52  C22 non d ame     -10.028   4.555  67.078  0.00  0.00     0.018 C 
ATOM     53  H33 non d ame     -10.158   3.494  67.295  0.00  0.00     0.048 H 
ATOM     54  H34 non d ame     -10.845   5.253  67.264  0.00  0.00     0.048 H 
BRANCH  52  55
ATOM     55  C23 non d ame      -9.727   4.646  65.556  0.00  0.00     0.259 C 
ATOM     56  O7  non d ame     -10.314   3.961  64.783  0.00  0.00    -0.265 OA
BRANCH  55  57
ATOM     57  O8  non d ame      -8.729   5.550  65.096  0.00  0.00    -0.317 OA
BRANCH  57  58
ATOM     58  C29 non d ame      -8.317   5.324  63.745  0.00  0.00     0.052 C 
ATOM     59  H47 non d ame      -7.823   4.352  63.746  0.00  0.00     0.082 H 
ATOM     60  H48 non d ame      -9.205   5.483  63.135  0.00  0.00     0.082 H 
BRANCH  58  61
ATOM     61  C35 non d ame      -7.268   6.407  63.377  0.00  0.00    -0.034 A 
ATOM     62  C30 non d ame      -7.683   7.684  63.016  0.00  0.00    -0.075 A 
ATOM     63  C31 non d ame      -6.741   8.657  62.685  0.00  0.00    -0.082 A 
ATOM     64  H49 non d ame      -8.746   7.923  62.992  0.00  0.00     0.084 H 
ATOM     65  C32 non d ame      -5.378   8.348  62.714  0.00  0.00    -0.083 A 
ATOM     66  H50 non d ame      -7.069   9.658  62.405  0.00  0.00     0.083 H 
ATOM     67  C33 non d ame      -4.969   7.070  63.072  0.00  0.00    -0.082 A 
ATOM     68  H51 non d ame      -4.635   9.103  62.457  0.00  0.00     0.083 H 
ATOM     69  C34 non d ame      -5.907   6.096  63.406  0.00  0.00    -0.075 A 
ATOM     70  H52 non d ame      -3.905   6.831  63.092  0.00  0.00     0.083 H 
ATOM     71  H53 non d ame      -5.577   5.095  63.687  0.00  0.00     0.084 H 
ENDBRANCH  58  61
ENDBRANCH  57  58
ENDBRANCH  55  57
ENDBRANCH  52  55
ENDBRANCH  49  52
ENDBRANCH  47  49
BRANCH  47  72
ATOM     72  C24 non d ame     -10.522   6.683  68.787  0.00  0.00    -0.039 C 
ATOM     73  H35 non d ame     -10.850   7.425  68.059  0.00  0.00     0.036 H 
ATOM     74  H36 non d ame     -10.982   5.695  68.803  0.00  0.00     0.036 H 
BRANCH  72  75
ATOM     75  C25 non d ame     -10.727   7.323  70.241  0.00  0.00    -0.001 C 
ATOM     76  C26 non d ame     -11.901   6.506  71.052  0.00  0.00    -0.035 C 
ATOM     77  C27 non d ame     -12.804   7.397  71.526  0.00  0.00     0.085 C 
ATOM     78  H38 non d ame     -12.482   5.900  70.357  0.00  0.00     0.036 H 
ATOM     79  H39 non d ame     -11.489   6.056  71.955  0.00  0.00     0.036 H 
ATOM     80  N5  non d ame     -12.531   8.712  70.837  0.00  0.00    -0.049 N 
ATOM     81  H40 non d ame     -13.778   7.024  71.206  0.00  0.00     0.075 H 
ATOM     82  H41 non d ame     -12.582   7.500  72.588  0.00  0.00     0.075 H 
ATOM     83  C28 non d ame     -11.073   8.564  70.161  0.00  0.00     0.193 C 
ATOM     84  H42 non d ame     -13.219   8.799  70.102  0.00  0.00     0.280 HD
ATOM     85  H43 non d ame     -12.479   9.411  71.564  0.00  0.00     0.280 HD
ATOM     86  H44 non d ame     -10.202   9.042  70.611  0.00  0.00     0.129 H 
ATOM     87  H37 non d ame      -9.781   7.478  70.761  0.00  0.00     0.046 H 
BRANCH  83  88
ATOM     88  O6  non d ame     -11.106   9.028  68.810  0.00  0.00    -0.369 OA
ATOM     89  H45 non d ame     -11.867   8.652  68.362  0.00  0.00     0.212 HD
ENDBRANCH  83  88
ENDBRANCH  72  75
ENDBRANCH  47  72
ENDBRANCH  45  47
ENDBRANCH   1  43
BRANCH   1  90
ATOM     90  C16 non d ame      -6.318  10.506  67.336  0.00  0.00    -0.035 C 
ATOM     91  H21 non d ame      -6.513  11.538  67.044  0.00  0.00     0.037 H 
ATOM     92  H22 non d ame      -6.257  10.241  68.392  0.00  0.00     0.037 H 
BRANCH  90  93
ATOM     93  C17 non d ame      -4.942  10.121  66.705  0.00  0.00    -0.059 C 
ATOM     94  H23 non d ame      -4.159  10.550  67.331  0.00  0.00     0.038 H 
BRANCH  93  95
ATOM     95  C18 non d ame      -4.725   8.574  66.663  0.00  0.00    -0.073 C 
ATOM     96  H24 non d ame      -5.678   8.079  66.481  0.00  0.00     0.028 H 
ATOM     97  H25 non d ame      -4.028   8.327  65.863  0.00  0.00     0.028 H 
ATOM     98  H26 non d ame      -4.317   8.239  67.617  0.00  0.00     0.028 H 
ENDBRANCH  93  95
BRANCH  93  99
ATOM     99  C19 non d ame      -4.792  10.730  65.308  0.00  0.00    -0.073 C 
ATOM    100  H27 non d ame      -5.216  11.734  65.302  0.00  0.00     0.028 H 
ATOM    101  H28 non d ame      -3.735  10.780  65.046  0.00  0.00     0.028 H 
ATOM    102  H29 non d ame      -5.317  10.109  64.583  0.00  0.00     0.028 H 
ENDBRANCH  93  99
ENDBRANCH  90  93
ENDBRANCH   1  90
TORSDOF 26
ENDMDL
MODEL 8
REMARK VINA RESULT:      -6.6      2.433      8.637
REMARK  26 active torsions:
REMARK  status: ('A' for Active; 'I' for Inactive)
REMARK    1  A    between atoms: C2_2  and  C3_3 
REMARK    2  A    between atoms: C4_6  and  C5_7 
REMARK       I    between atoms: C5_7  and  N2_9 
REMARK    3  A    between atoms: N2_9  and  C6_10 
REMARK    4  A    between atoms: C6_10  and  C7_11 
REMARK    5  A    between atoms: C6_10  and  C8_13 
REMARK       I    between atoms: C7_11  and  N3_14 
REMARK    6  A    between atoms: N3_14  and  C9_15 
REMARK    7  A    between atoms: C9_15  and  C10_16 
REMARK    8  A    between atoms: C9_15  and  C11_18 
REMARK       I    between atoms: C10_16  and  N4_21 
REMARK    9  A    between atoms: C11_18  and  C12_19 
REMARK   10  A    between atoms: C11_18  and  C13_20 
REMARK   11  A    between atoms: N4_21  and  C14_22 
REMARK   12  A    between atoms: C14_22  and  C15_23 
REMARK   13  A    between atoms: C14_22  and  C16_25 
REMARK       I    between atoms: C15_23  and  N6_40 
REMARK   14  A    between atoms: C16_25  and  C17_26 
REMARK   15  A    between atoms: C17_26  and  C18_27 
REMARK   16  A    between atoms: C17_26  and  C19_28 
REMARK   17  A    between atoms: C20_29  and  C21_30 
REMARK   18  A    between atoms: C20_29  and  C24_33 
REMARK   19  A    between atoms: C20_29  and  N6_40 
REMARK   20  A    between atoms: C21_30  and  C22_31 
REMARK   21  A    between atoms: C22_31  and  C23_32 
REMARK   22  A    between atoms: C23_32  and  O8_43 
REMARK   23  A    between atoms: C24_33  and  C25_34 
REMARK   24  A    between atoms: C28_38  and  O6_39 
REMARK   25  A    between atoms: C29_42  and  O8_43 
REMARK   26  A    between atoms: C29_42  and  C35_49 
ROOT
ATOM      1  C14 non d ame     -10.054  12.264  65.549  0.00  0.00     0.089 C 
ATOM      2  H20 non d ame      -9.882  12.663  64.549  0.00  0.00     0.087 H 
ENDROOT
BRANCH   1   3
ATOM      3  N4  non d ame      -9.358  10.989  65.637  0.00  0.00    -0.346 N 
ATOM      4  C10 non d ame      -9.081  10.184  64.392  0.00  0.00     0.241 C 
ATOM      5  O4  non d ame      -9.432  10.582  63.330  0.00  0.00    -0.271 OA
ATOM      6  H19 non d ame      -9.070  10.666  66.550  0.00  0.00     0.163 HD
BRANCH   4   7
ATOM      7  C9  non d ame      -8.355   8.869  64.501  0.00  0.00     0.092 C 
ATOM      8  H11 non d ame      -7.412   9.023  65.027  0.00  0.00     0.088 H 
BRANCH   7   9
ATOM      9  N3  non d ame      -9.151   7.936  65.303  0.00  0.00    -0.346 N 
ATOM     10  C7  non d ame      -8.939   7.847  66.727  0.00  0.00     0.240 C 
ATOM     11  O3  non d ame      -8.132   8.519  67.243  0.00  0.00    -0.271 OA
ATOM     12  H10 non d ame      -9.850   7.349  64.871  0.00  0.00     0.163 HD
BRANCH  10  13
ATOM     13  C6  non d ame      -9.788   6.849  67.575  0.00  0.00     0.086 C 
ATOM     14  H6  non d ame      -9.183   6.264  68.267  0.00  0.00     0.086 H 
BRANCH  13  15
ATOM     15  N2  non d ame     -10.732   7.602  68.383  0.00  0.00    -0.343 N 
ATOM     16  C5  non d ame     -10.432   7.857  69.794  0.00  0.00     0.273 C 
ATOM     17  O2  non d ame      -9.429   7.451  70.269  0.00  0.00    -0.266 OA
ATOM     18  H5  non d ame     -11.588   7.944  67.969  0.00  0.00     0.163 HD
BRANCH  16  19
ATOM     19  C4  non d ame     -11.421   8.653  70.660  0.00  0.00     0.154 A 
ATOM     20  C1  non d ame     -11.707  10.053  70.581  0.00  0.00    -0.017 A 
ATOM     21  C2  non d ame     -12.676  10.283  71.583  0.00  0.00     0.077 A 
ATOM     22  H1  non d ame     -11.277  10.789  69.901  0.00  0.00     0.091 H 
ATOM     23  O1  non d ame     -12.912   9.143  72.162  0.00  0.00    -0.218 OA
ATOM     24  N1  non d ame     -12.192   8.177  71.641  0.00  0.00    -0.123 NA
BRANCH  21  25
ATOM     25  C3  non d ame     -13.323  11.619  71.921  0.00  0.00    -0.029 C 
ATOM     26  H2  non d ame     -12.571  12.297  72.325  0.00  0.00     0.036 H 
ATOM     27  H3  non d ame     -13.755  12.052  71.019  0.00  0.00     0.036 H 
ATOM     28  H4  non d ame     -14.109  11.466  72.661  0.00  0.00     0.036 H 
ENDBRANCH  21  25
ENDBRANCH  16  19
ENDBRANCH  13  15
BRANCH  13  29
ATOM     29  C8  non d ame     -10.527   5.909  66.658  0.00  0.00    -0.049 C 
ATOM     30  H7  non d ame      -9.817   5.232  66.182  0.00  0.00     0.030 H 
ATOM     31  H8  non d ame     -11.249   5.331  67.235  0.00  0.00     0.030 H 
ATOM     32  H9  non d ame     -11.049   6.483  65.893  0.00  0.00     0.030 H 
ENDBRANCH  13  29
ENDBRANCH  10  13
ENDBRANCH   7   9
BRANCH   7  33
ATOM     33  C11 non d ame      -8.141   8.275  63.078  0.00  0.00    -0.033 C 
ATOM     34  H12 non d ame      -8.946   8.646  62.443  0.00  0.00     0.042 H 
BRANCH  33  35
ATOM     35  C12 non d ame      -6.793   8.758  62.457  0.00  0.00    -0.071 C 
ATOM     36  H13 non d ame      -6.945   9.716  61.959  0.00  0.00     0.028 H 
ATOM     37  H14 non d ame      -6.051   8.873  63.246  0.00  0.00     0.028 H 
ATOM     38  H15 non d ame      -6.444   8.023  61.732  0.00  0.00     0.028 H 
ENDBRANCH  33  35
BRANCH  33  39
ATOM     39  C13 non d ame      -8.227   6.715  63.105  0.00  0.00    -0.071 C 
ATOM     40  H16 non d ame      -8.438   6.346  62.102  0.00  0.00     0.028 H 
ATOM     41  H17 non d ame      -7.277   6.305  63.451  0.00  0.00     0.028 H 
ATOM     42  H18 non d ame      -9.024   6.407  63.781  0.00  0.00     0.028 H 
ENDBRANCH  33  39
ENDBRANCH   7  33
ENDBRANCH   4   7
ENDBRANCH   1   3
BRANCH   1  43
ATOM     43  C15 non d ame      -9.506  13.205  66.660  0.00  0.00     0.240 C 
ATOM     44  O5  non d ame      -9.880  13.078  67.781  0.00  0.00    -0.271 OA
ATOM     45  N6  non d ame      -8.507  14.261  66.327  0.00  0.00    -0.355 N 
ATOM     46  H46 non d ame      -8.178  14.376  65.379  0.00  0.00     0.162 HD
BRANCH  45  47
ATOM     47  C20 non d ame      -7.994  15.147  67.394  0.00  0.00     0.013 C 
ATOM     48  H30 non d ame      -8.657  15.053  68.255  0.00  0.00     0.072 H 
BRANCH  47  49
ATOM     49  C21 non d ame      -7.990  16.575  66.899  0.00  0.00    -0.038 C 
ATOM     50  H31 non d ame      -7.002  16.968  67.141  0.00  0.00     0.036 H 
ATOM     51  H32 non d ame      -8.319  16.527  65.861  0.00  0.00     0.036 H 
BRANCH  49  52
ATOM     52  C22 non d ame      -9.008  17.470  67.639  0.00  0.00     0.018 C 
ATOM     53  H33 non d ame      -8.648  17.540  68.665  0.00  0.00     0.048 H 
ATOM     54  H34 non d ame      -9.106  18.370  67.032  0.00  0.00     0.048 H 
BRANCH  52  55
ATOM     55  C23 non d ame     -10.433  16.856  67.726  0.00  0.00     0.259 C 
ATOM     56  O7  non d ame     -10.929  16.345  66.775  0.00  0.00    -0.265 OA
BRANCH  55  57
ATOM     57  O8  non d ame     -11.147  16.923  68.955  0.00  0.00    -0.317 OA
BRANCH  57  58
ATOM     58  C29 non d ame     -10.744  15.943  69.916  0.00  0.00     0.052 C 
ATOM     59  H47 non d ame     -10.618  15.016  69.357  0.00  0.00     0.082 H 
ATOM     60  H48 non d ame      -9.898  16.380  70.445  0.00  0.00     0.082 H 
BRANCH  58  61
ATOM     61  C35 non d ame     -11.909  15.754  70.924  0.00  0.00    -0.034 A 
ATOM     62  C30 non d ame     -13.153  15.319  70.478  0.00  0.00    -0.075 A 
ATOM     63  C31 non d ame     -14.199  15.150  71.383  0.00  0.00    -0.082 A 
ATOM     64  H49 non d ame     -13.307  15.110  69.419  0.00  0.00     0.084 H 
ATOM     65  C32 non d ame     -13.999  15.420  72.740  0.00  0.00    -0.083 A 
ATOM     66  H50 non d ame     -15.172  14.806  71.031  0.00  0.00     0.083 H 
ATOM     67  C33 non d ame     -12.757  15.857  73.180  0.00  0.00    -0.082 A 
ATOM     68  H51 non d ame     -14.811  15.290  73.454  0.00  0.00     0.083 H 
ATOM     69  C34 non d ame     -11.708  16.026  72.279  0.00  0.00    -0.075 A 
ATOM     70  H52 non d ame     -12.605  16.069  74.238  0.00  0.00     0.083 H 
ATOM     71  H53 non d ame     -10.735  16.369  72.632  0.00  0.00     0.084 H 
ENDBRANCH  58  61
ENDBRANCH  57  58
ENDBRANCH  55  57
ENDBRANCH  52  55
ENDBRANCH  49  52
ENDBRANCH  47  49
BRANCH  47  72
ATOM     72  C24 non d ame      -6.573  14.733  67.771  0.00  0.00    -0.039 C 
ATOM     73  H35 non d ame      -6.136  14.333  66.856  0.00  0.00     0.036 H 
ATOM     74  H36 non d ame      -6.133  15.609  68.247  0.00  0.00     0.036 H 
BRANCH  72  75
ATOM     75  C25 non d ame      -6.567  13.553  68.854  0.00  0.00    -0.001 C 
ATOM     76  C26 non d ame      -5.886  14.081  70.255  0.00  0.00    -0.035 C 
ATOM     77  C27 non d ame      -4.923  13.206  70.629  0.00  0.00     0.085 C 
ATOM     78  H38 non d ame      -5.336  15.005  70.077  0.00  0.00     0.036 H 
ATOM     79  H39 non d ame      -6.611  14.026  71.067  0.00  0.00     0.036 H 
ATOM     80  N5  non d ame      -4.660  12.305  69.446  0.00  0.00    -0.049 N 
ATOM     81  H40 non d ame      -4.036  13.811  70.818  0.00  0.00     0.075 H 
ATOM     82  H41 non d ame      -5.362  12.616  71.433  0.00  0.00     0.075 H 
ATOM     83  C28 non d ame      -5.895  12.534  68.431  0.00  0.00     0.193 C 
ATOM     84  H42 non d ame      -3.817  12.646  69.008  0.00  0.00     0.280 HD
ATOM     85  H43 non d ame      -4.702  11.357  69.793  0.00  0.00     0.280 HD
ATOM     86  H44 non d ame      -6.690  11.792  68.350  0.00  0.00     0.129 H 
ATOM     87  H37 non d ame      -7.535  13.056  68.929  0.00  0.00     0.046 H 
BRANCH  83  88
ATOM     88  O6  non d ame      -5.411  12.722  67.101  0.00  0.00    -0.369 OA
ATOM     89  H45 non d ame      -6.148  12.912  66.516  0.00  0.00     0.212 HD
ENDBRANCH  83  88
ENDBRANCH  72  75
ENDBRANCH  47  72
ENDBRANCH  45  47
ENDBRANCH   1  43
BRANCH   1  90
ATOM     90  C16 non d ame     -11.541  12.033  65.763  0.00  0.00    -0.035 C 
ATOM     91  H21 non d ame     -11.686  10.958  65.650  0.00  0.00     0.037 H 
ATOM     92  H22 non d ame     -11.775  12.517  66.712  0.00  0.00     0.037 H 
BRANCH  90  93
ATOM     93  C17 non d ame     -12.443  12.715  64.685  0.00  0.00    -0.059 C 
ATOM     94  H23 non d ame     -13.468  12.699  65.054  0.00  0.00     0.038 H 
BRANCH  93  95
ATOM     95  C18 non d ame     -12.047  14.207  64.445  0.00  0.00    -0.073 C 
ATOM     96  H24 non d ame     -12.251  14.474  63.408  0.00  0.00     0.028 H 
ATOM     97  H25 non d ame     -12.628  14.849  65.107  0.00  0.00     0.028 H 
ATOM     98  H26 non d ame     -10.984  14.339  64.652  0.00  0.00     0.028 H 
ENDBRANCH  93  95
BRANCH  93  99
ATOM     99  C19 non d ame     -12.418  11.927  63.373  0.00  0.00    -0.073 C 
ATOM    100  H27 non d ame     -12.193  12.602  62.547  0.00  0.00     0.028 H 
ATOM    101  H28 non d ame     -11.652  11.153  63.429  0.00  0.00     0.028 H 
ATOM    102  H29 non d ame     -13.391  11.463  63.210  0.00  0.00     0.028 H 
ENDBRANCH  93  99
ENDBRANCH  90  93
ENDBRANCH   1  90
TORSDOF 26
ENDMDL
MODEL 9
REMARK VINA RESULT:      -6.6      2.385      9.887
REMARK  26 active torsions:
REMARK  status: ('A' for Active; 'I' for Inactive)
REMARK    1  A    between atoms: C2_2  and  C3_3 
REMARK    2  A    between atoms: C4_6  and  C5_7 
REMARK       I    between atoms: C5_7  and  N2_9 
REMARK    3  A    between atoms: N2_9  and  C6_10 
REMARK    4  A    between atoms: C6_10  and  C7_11 
REMARK    5  A    between atoms: C6_10  and  C8_13 
REMARK       I    between atoms: C7_11  and  N3_14 
REMARK    6  A    between atoms: N3_14  and  C9_15 
REMARK    7  A    between atoms: C9_15  and  C10_16 
REMARK    8  A    between atoms: C9_15  and  C11_18 
REMARK       I    between atoms: C10_16  and  N4_21 
REMARK    9  A    between atoms: C11_18  and  C12_19 
REMARK   10  A    between atoms: C11_18  and  C13_20 
REMARK   11  A    between atoms: N4_21  and  C14_22 
REMARK   12  A    between atoms: C14_22  and  C15_23 
REMARK   13  A    between atoms: C14_22  and  C16_25 
REMARK       I    between atoms: C15_23  and  N6_40 
REMARK   14  A    between atoms: C16_25  and  C17_26 
REMARK   15  A    between atoms: C17_26  and  C18_27 
REMARK   16  A    between atoms: C17_26  and  C19_28 
REMARK   17  A    between atoms: C20_29  and  C21_30 
REMARK   18  A    between atoms: C20_29  and  C24_33 
REMARK   19  A    between atoms: C20_29  and  N6_40 
REMARK   20  A    between atoms: C21_30  and  C22_31 
REMARK   21  A    between atoms: C22_31  and  C23_32 
REMARK   22  A    between atoms: C23_32  and  O8_43 
REMARK   23  A    between atoms: C24_33  and  C25_34 
REMARK   24  A    between atoms: C28_38  and  O6_39 
REMARK   25  A    between atoms: C29_42  and  O8_43 
REMARK   26  A    between atoms: C29_42  and  C35_49 
ROOT
ATOM      1  C14 non d ame     -10.807   8.906  69.217  0.00  0.00     0.089 C 
ATOM      2  H20 non d ame     -11.772   8.509  68.900  0.00  0.00     0.087 H 
ENDROOT
BRANCH   1   3
ATOM      3  N4  non d ame      -9.878   7.788  69.297  0.00  0.00    -0.346 N 
ATOM      4  C10 non d ame     -10.394   6.378  69.432  0.00  0.00     0.241 C 
ATOM      5  O4  non d ame     -11.561   6.167  69.478  0.00  0.00    -0.271 OA
ATOM      6  H19 non d ame      -8.889   7.989  69.258  0.00  0.00     0.163 HD
BRANCH   4   7
ATOM      7  C9  non d ame      -9.418   5.232  69.507  0.00  0.00     0.092 C 
ATOM      8  H11 non d ame      -9.958   4.293  69.387  0.00  0.00     0.088 H 
BRANCH   7   9
ATOM      9  N3  non d ame      -8.465   5.329  68.398  0.00  0.00    -0.346 N 
ATOM     10  C7  non d ame      -8.692   4.581  67.186  0.00  0.00     0.240 C 
ATOM     11  O3  non d ame      -9.636   3.896  67.087  0.00  0.00    -0.271 OA
ATOM     12  H10 non d ame      -7.645   5.914  68.469  0.00  0.00     0.163 HD
BRANCH  10  13
ATOM     13  C6  non d ame      -7.672   4.685  66.010  0.00  0.00     0.086 C 
ATOM     14  H6  non d ame      -7.976   4.108  65.136  0.00  0.00     0.086 H 
BRANCH  13  15
ATOM     15  N2  non d ame      -7.585   6.071  65.582  0.00  0.00    -0.343 N 
ATOM     16  C5  non d ame      -7.875   6.416  64.189  0.00  0.00     0.273 C 
ATOM     17  O2  non d ame      -8.174   5.571  63.419  0.00  0.00    -0.266 OA
ATOM     18  H5  non d ame      -7.326   6.787  66.246  0.00  0.00     0.163 HD
BRANCH  16  19
ATOM     19  C4  non d ame      -7.788   7.878  63.724  0.00  0.00     0.154 A 
ATOM     20  C1  non d ame      -7.903   8.368  62.384  0.00  0.00    -0.017 A 
ATOM     21  C2  non d ame      -7.753   9.768  62.494  0.00  0.00     0.077 A 
ATOM     22  H1  non d ame      -8.069   7.795  61.472  0.00  0.00     0.091 H 
ATOM     23  O1  non d ame      -7.575  10.041  63.754  0.00  0.00    -0.218 OA
ATOM     24  N1  non d ame      -7.592   8.954  64.491  0.00  0.00    -0.123 NA
BRANCH  21  25
ATOM     25  C3  non d ame      -7.793  10.772  61.350  0.00  0.00    -0.029 C 
ATOM     26  H2  non d ame      -7.643  11.778  61.743  0.00  0.00     0.036 H 
ATOM     27  H3  non d ame      -7.004  10.540  60.635  0.00  0.00     0.036 H 
ATOM     28  H4  non d ame      -8.762  10.717  60.852  0.00  0.00     0.036 H 
ENDBRANCH  21  25
ENDBRANCH  16  19
ENDBRANCH  13  15
BRANCH  13  29
ATOM     29  C8  non d ame      -6.321   4.200  66.468  0.00  0.00    -0.049 C 
ATOM     30  H7  non d ame      -6.411   3.186  66.858  0.00  0.00     0.030 H 
ATOM     31  H8  non d ame      -5.627   4.206  65.627  0.00  0.00     0.030 H 
ATOM     32  H9  non d ame      -5.946   4.857  67.253  0.00  0.00     0.030 H 
ENDBRANCH  13  29
ENDBRANCH  10  13
ENDBRANCH   7   9
BRANCH   7  33
ATOM     33  C11 non d ame      -8.647   5.296  70.858  0.00  0.00    -0.033 C 
ATOM     34  H12 non d ame      -8.831   6.277  71.296  0.00  0.00     0.042 H 
BRANCH  33  35
ATOM     35  C12 non d ame      -9.173   4.226  71.864  0.00  0.00    -0.071 C 
ATOM     36  H13 non d ame      -9.963   4.661  72.477  0.00  0.00     0.028 H 
ATOM     37  H14 non d ame      -9.570   3.373  71.313  0.00  0.00     0.028 H 
ATOM     38  H15 non d ame      -8.356   3.897  72.505  0.00  0.00     0.028 H 
ENDBRANCH  33  35
BRANCH  33  39
ATOM     39  C13 non d ame      -7.108   5.151  70.630  0.00  0.00    -0.071 C 
ATOM     40  H16 non d ame      -6.630   4.843  71.560  0.00  0.00     0.028 H 
ATOM     41  H17 non d ame      -6.923   4.399  69.861  0.00  0.00     0.028 H 
ATOM     42  H18 non d ame      -6.696   6.108  70.309  0.00  0.00     0.028 H 
ENDBRANCH  33  39
ENDBRANCH   7  33
ENDBRANCH   4   7
ENDBRANCH   1   3
BRANCH   1  43
ATOM     43  C15 non d ame     -10.241   9.950  68.212  0.00  0.00     0.240 C 
ATOM     44  O5  non d ame      -9.453   9.611  67.390  0.00  0.00    -0.271 OA
ATOM     45  N6  non d ame     -10.689  11.370  68.269  0.00  0.00    -0.355 N 
ATOM     46  H46 non d ame     -11.362  11.669  68.960  0.00  0.00     0.162 HD
BRANCH  45  47
ATOM     47  C20 non d ame     -10.143  12.350  67.306  0.00  0.00     0.013 C 
ATOM     48  H30 non d ame      -9.560  11.803  66.565  0.00  0.00     0.072 H 
BRANCH  47  49
ATOM     49  C21 non d ame      -9.256  13.331  68.039  0.00  0.00    -0.038 C 
ATOM     50  H31 non d ame      -9.666  13.403  69.047  0.00  0.00     0.036 H 
ATOM     51  H32 non d ame      -8.237  12.975  67.889  0.00  0.00     0.036 H 
BRANCH  49  52
ATOM     52  C22 non d ame      -9.315  14.754  67.442  0.00  0.00     0.018 C 
ATOM     53  H33 non d ame      -8.512  14.798  66.705  0.00  0.00     0.048 H 
ATOM     54  H34 non d ame     -10.349  14.901  67.130  0.00  0.00     0.048 H 
BRANCH  52  55
ATOM     55  C23 non d ame      -9.013  15.878  68.471  0.00  0.00     0.259 C 
ATOM     56  O7  non d ame      -8.132  16.652  68.279  0.00  0.00    -0.265 OA
BRANCH  55  57
ATOM     57  O8  non d ame      -9.796  15.966  69.656  0.00  0.00    -0.317 OA
BRANCH  57  58
ATOM     58  C29 non d ame     -11.201  16.090  69.418  0.00  0.00     0.052 C 
ATOM     59  H47 non d ame     -11.394  17.160  69.347  0.00  0.00     0.082 H 
ATOM     60  H48 non d ame     -11.415  15.439  68.570  0.00  0.00     0.082 H 
BRANCH  58  61
ATOM     61  C35 non d ame     -11.948  15.537  70.661  0.00  0.00    -0.034 A 
ATOM     62  C30 non d ame     -11.819  16.174  71.892  0.00  0.00    -0.075 A 
ATOM     63  C31 non d ame     -12.489  15.678  73.008  0.00  0.00    -0.082 A 
ATOM     64  H49 non d ame     -11.193  17.062  71.980  0.00  0.00     0.084 H 
ATOM     65  C32 non d ame     -13.290  14.538  72.893  0.00  0.00    -0.083 A 
ATOM     66  H50 non d ame     -12.388  16.181  73.970  0.00  0.00     0.083 H 
ATOM     67  C33 non d ame     -13.413  13.904  71.664  0.00  0.00    -0.082 A 
ATOM     68  H51 non d ame     -13.818  14.144  73.761  0.00  0.00     0.083 H 
ATOM     69  C34 non d ame     -12.746  14.398  70.544  0.00  0.00    -0.075 A 
ATOM     70  H52 non d ame     -14.036  13.014  71.577  0.00  0.00     0.083 H 
ATOM     71  H53 non d ame     -12.848  13.895  69.582  0.00  0.00     0.084 H 
ENDBRANCH  58  61
ENDBRANCH  57  58
ENDBRANCH  55  57
ENDBRANCH  52  55
ENDBRANCH  49  52
ENDBRANCH  47  49
BRANCH  47  72
ATOM     72  C24 non d ame     -11.287  13.103  66.630  0.00  0.00    -0.039 C 
ATOM     73  H35 non d ame     -12.066  13.189  67.389  0.00  0.00     0.036 H 
ATOM     74  H36 non d ame     -10.835  14.002  66.210  0.00  0.00     0.036 H 
BRANCH  72  75
ATOM     75  C25 non d ame     -11.906  12.271  65.409  0.00  0.00    -0.001 C 
ATOM     76  C26 non d ame     -10.719  11.417  64.656  0.00  0.00    -0.035 C 
ATOM     77  C27 non d ame     -10.776  11.672  63.327  0.00  0.00     0.085 C 
ATOM     78  H38 non d ame      -9.742  11.799  64.947  0.00  0.00     0.036 H 
ATOM     79  H39 non d ame     -10.929  10.349  64.720  0.00  0.00     0.036 H 
ATOM     80  N5  non d ame     -11.677  12.869  63.144  0.00  0.00    -0.049 N 
ATOM     81  H40 non d ame      -9.760  11.945  63.039  0.00  0.00     0.075 H 
ATOM     82  H41 non d ame     -11.252  10.798  62.883  0.00  0.00     0.075 H 
ATOM     83  C28 non d ame     -12.460  13.052  64.544  0.00  0.00     0.193 C 
ATOM     84  H42 non d ame     -11.071  13.665  63.008  0.00  0.00     0.280 HD
ATOM     85  H43 non d ame     -12.347  12.616  62.432  0.00  0.00     0.280 HD
ATOM     86  H44 non d ame     -13.502  12.746  64.639  0.00  0.00     0.129 H 
ATOM     87  H37 non d ame     -12.805  11.724  65.696  0.00  0.00     0.046 H 
BRANCH  83  88
ATOM     88  O6  non d ame     -12.425  14.420  64.953  0.00  0.00    -0.369 OA
ATOM     89  H45 non d ame     -13.307  14.701  65.209  0.00  0.00     0.212 HD
ENDBRANCH  83  88
ENDBRANCH  72  75
ENDBRANCH  47  72
ENDBRANCH  45  47
ENDBRANCH   1  43
BRANCH   1  90
ATOM     90  C16 non d ame     -10.939   9.540  70.593  0.00  0.00    -0.035 C 
ATOM     91  H21 non d ame     -10.094   9.160  71.168  0.00  0.00     0.037 H 
ATOM     92  H22 non d ame     -11.035  10.610  70.409  0.00  0.00     0.037 H 
BRANCH  90  93
ATOM     93  C17 non d ame     -12.227   9.106  71.362  0.00  0.00    -0.059 C 
ATOM     94  H23 non d ame     -12.882   8.601  70.652  0.00  0.00     0.038 H 
BRANCH  93  95
ATOM     95  C18 non d ame     -11.914   8.104  72.519  0.00  0.00    -0.073 C 
ATOM     96  H24 non d ame     -11.871   8.644  73.465  0.00  0.00     0.028 H 
ATOM     97  H25 non d ame     -12.698   7.348  72.567  0.00  0.00     0.028 H 
ATOM     98  H26 non d ame     -10.955   7.622  72.331  0.00  0.00     0.028 H 
ENDBRANCH  93  95
BRANCH  93  99
ATOM     99  C19 non d ame     -12.986  10.327  71.889  0.00  0.00    -0.073 C 
ATOM    100  H27 non d ame     -12.295  10.984  72.418  0.00  0.00     0.028 H 
ATOM    101  H28 non d ame     -13.432  10.866  71.053  0.00  0.00     0.028 H 
ATOM    102  H29 non d ame     -13.771  10.001  72.570  0.00  0.00     0.028 H 
ENDBRANCH  93  99
ENDBRANCH  90  93
ENDBRANCH   1  90
TORSDOF 26
ENDMDL
MODEL 10
REMARK VINA RESULT:      -6.5      2.381      4.528
REMARK  26 active torsions:
REMARK  status: ('A' for Active; 'I' for Inactive)
REMARK    1  A    between atoms: C2_2  and  C3_3 
REMARK    2  A    between atoms: C4_6  and  C5_7 
REMARK       I    between atoms: C5_7  and  N2_9 
REMARK    3  A    between atoms: N2_9  and  C6_10 
REMARK    4  A    between atoms: C6_10  and  C7_11 
REMARK    5  A    between atoms: C6_10  and  C8_13 
REMARK       I    between atoms: C7_11  and  N3_14 
REMARK    6  A    between atoms: N3_14  and  C9_15 
REMARK    7  A    between atoms: C9_15  and  C10_16 
REMARK    8  A    between atoms: C9_15  and  C11_18 
REMARK       I    between atoms: C10_16  and  N4_21 
REMARK    9  A    between atoms: C11_18  and  C12_19 
REMARK   10  A    between atoms: C11_18  and  C13_20 
REMARK   11  A    between atoms: N4_21  and  C14_22 
REMARK   12  A    between atoms: C14_22  and  C15_23 
REMARK   13  A    between atoms: C14_22  and  C16_25 
REMARK       I    between atoms: C15_23  and  N6_40 
REMARK   14  A    between atoms: C16_25  and  C17_26 
REMARK   15  A    between atoms: C17_26  and  C18_27 
REMARK   16  A    between atoms: C17_26  and  C19_28 
REMARK   17  A    between atoms: C20_29  and  C21_30 
REMARK   18  A    between atoms: C20_29  and  C24_33 
REMARK   19  A    between atoms: C20_29  and  N6_40 
REMARK   20  A    between atoms: C21_30  and  C22_31 
REMARK   21  A    between atoms: C22_31  and  C23_32 
REMARK   22  A    between atoms: C23_32  and  O8_43 
REMARK   23  A    between atoms: C24_33  and  C25_34 
REMARK   24  A    between atoms: C28_38  and  O6_39 
REMARK   25  A    between atoms: C29_42  and  O8_43 
REMARK   26  A    between atoms: C29_42  and  C35_49 
ROOT
ATOM      1  C14 non d ame      -7.459   9.512  66.964  0.00  0.00     0.089 C 
ATOM      2  H20 non d ame      -6.852   9.453  66.060  0.00  0.00     0.087 H 
ENDROOT
BRANCH   1   3
ATOM      3  N4  non d ame      -8.563  10.421  66.692  0.00  0.00    -0.346 N 
ATOM      4  C10 non d ame      -9.634  10.043  65.700  0.00  0.00     0.241 C 
ATOM      5  O4  non d ame      -9.584   9.003  65.130  0.00  0.00    -0.271 OA
ATOM      6  H19 non d ame      -8.586  11.302  67.186  0.00  0.00     0.163 HD
BRANCH   4   7
ATOM      7  C9  non d ame     -10.772  10.993  65.435  0.00  0.00     0.092 C 
ATOM      8  H11 non d ame     -11.668  10.628  65.938  0.00  0.00     0.088 H 
BRANCH   7   9
ATOM      9  N3  non d ame     -10.457  12.305  66.008  0.00  0.00    -0.346 N 
ATOM     10  C7  non d ame     -11.163  12.768  67.178  0.00  0.00     0.240 C 
ATOM     11  O3  non d ame     -11.987  12.099  67.670  0.00  0.00    -0.271 OA
ATOM     12  H10 non d ame      -9.750  12.895  65.594  0.00  0.00     0.163 HD
BRANCH  10  13
ATOM     13  C6  non d ame     -10.826  14.167  67.782  0.00  0.00     0.086 C 
ATOM     14  H6  non d ame     -11.298  14.985  67.239  0.00  0.00     0.086 H 
BRANCH  13  15
ATOM     15  N2  non d ame     -11.328  14.226  69.144  0.00  0.00    -0.343 N 
ATOM     16  C5  non d ame     -11.929  15.467  69.638  0.00  0.00     0.273 C 
ATOM     17  O2  non d ame     -12.000  16.413  68.933  0.00  0.00    -0.266 OA
ATOM     18  H5  non d ame     -11.261  13.414  69.741  0.00  0.00     0.163 HD
BRANCH  16  19
ATOM     19  C4  non d ame     -12.466  15.544  71.076  0.00  0.00     0.154 A 
ATOM     20  C1  non d ame     -11.700  15.644  72.281  0.00  0.00    -0.017 A 
ATOM     21  C2  non d ame     -12.658  15.683  73.318  0.00  0.00     0.077 A 
ATOM     22  H1  non d ame     -10.616  15.684  72.386  0.00  0.00     0.091 H 
ATOM     23  O1  non d ame     -13.833  15.613  72.763  0.00  0.00    -0.218 OA
ATOM     24  N1  non d ame     -13.746  15.531  71.456  0.00  0.00    -0.123 NA
BRANCH  21  25
ATOM     25  C3  non d ame     -12.369  15.787  74.809  0.00  0.00    -0.029 C 
ATOM     26  H2  non d ame     -12.508  14.812  75.277  0.00  0.00     0.036 H 
ATOM     27  H3  non d ame     -11.340  16.118  74.957  0.00  0.00     0.036 H 
ATOM     28  H4  non d ame     -13.050  16.508  75.263  0.00  0.00     0.036 H 
ENDBRANCH  21  25
ENDBRANCH  16  19
ENDBRANCH  13  15
BRANCH  13  29
ATOM     29  C8  non d ame      -9.332  14.375  67.772  0.00  0.00    -0.049 C 
ATOM     30  H7  non d ame      -8.831  13.409  67.834  0.00  0.00     0.030 H 
ATOM     31  H8  non d ame      -9.041  14.878  66.851  0.00  0.00     0.030 H 
ATOM     32  H9  non d ame      -9.046  14.987  68.627  0.00  0.00     0.030 H 
ENDBRANCH  13  29
ENDBRANCH  10  13
ENDBRANCH   7   9
BRANCH   7  33
ATOM     33  C11 non d ame     -10.980  11.137  63.899  0.00  0.00    -0.033 C 
ATOM     34  H12 non d ame     -11.132  10.137  63.493  0.00  0.00     0.042 H 
BRANCH  33  35
ATOM     35  C12 non d ame     -12.257  11.974  63.575  0.00  0.00    -0.071 C 
ATOM     36  H13 non d ame     -12.076  13.021  63.818  0.00  0.00     0.028 H 
ATOM     37  H14 non d ame     -12.491  11.883  62.514  0.00  0.00     0.028 H 
ATOM     38  H15 non d ame     -13.094  11.603  64.165  0.00  0.00     0.028 H 
ENDBRANCH  33  35
BRANCH  33  39
ATOM     39  C13 non d ame      -9.714  11.749  63.218  0.00  0.00    -0.071 C 
ATOM     40  H16 non d ame      -8.826  11.470  63.785  0.00  0.00     0.028 H 
ATOM     41  H17 non d ame      -9.629  11.368  62.200  0.00  0.00     0.028 H 
ATOM     42  H18 non d ame      -9.804  12.835  63.193  0.00  0.00     0.028 H 
ENDBRANCH  33  39
ENDBRANCH   7  33
ENDBRANCH   4   7
ENDBRANCH   1   3
BRANCH   1  43
ATOM     43  C15 non d ame      -8.044   8.129  67.371  0.00  0.00     0.240 C 
ATOM     44  O5  non d ame      -8.651   8.020  68.387  0.00  0.00    -0.271 OA
ATOM     45  N6  non d ame      -7.855   6.943  66.488  0.00  0.00    -0.355 N 
ATOM     46  H46 non d ame      -7.345   7.024  65.620  0.00  0.00     0.162 HD
BRANCH  45  47
ATOM     47  C20 non d ame      -8.419   5.635  66.888  0.00  0.00     0.013 C 
ATOM     48  H30 non d ame      -8.673   5.689  67.947  0.00  0.00     0.072 H 
BRANCH  47  49
ATOM     49  C21 non d ame      -7.386   4.555  66.659  0.00  0.00    -0.038 C 
ATOM     50  H31 non d ame      -7.613   3.772  67.383  0.00  0.00     0.036 H 
ATOM     51  H32 non d ame      -7.420   4.337  65.591  0.00  0.00     0.036 H 
BRANCH  49  52
ATOM     52  C22 non d ame      -5.948   5.026  66.963  0.00  0.00     0.018 C 
ATOM     53  H33 non d ame      -6.014   6.106  67.103  0.00  0.00     0.048 H 
ATOM     54  H34 non d ame      -5.595   4.393  67.777  0.00  0.00     0.048 H 
BRANCH  52  55
ATOM     55  C23 non d ame      -4.955   4.806  65.788  0.00  0.00     0.259 C 
ATOM     56  O7  non d ame      -4.595   3.711  65.500  0.00  0.00    -0.265 OA
BRANCH  55  57
ATOM     57  O8  non d ame      -4.468   5.932  65.067  0.00  0.00    -0.317 OA
BRANCH  57  58
ATOM     58  C29 non d ame      -5.112   6.139  63.807  0.00  0.00     0.052 C 
ATOM     59  H47 non d ame      -4.430   5.739  63.057  0.00  0.00     0.082 H 
ATOM     60  H48 non d ame      -6.112   5.717  63.914  0.00  0.00     0.082 H 
BRANCH  58  61
ATOM     61  C35 non d ame      -5.247   7.668  63.583  0.00  0.00    -0.034 A 
ATOM     62  C30 non d ame      -6.505   8.259  63.547  0.00  0.00    -0.075 A 
ATOM     63  C31 non d ame      -6.626   9.634  63.346  0.00  0.00    -0.082 A 
ATOM     64  H49 non d ame      -7.397   7.646  63.677  0.00  0.00     0.084 H 
ATOM     65  C32 non d ame      -5.481  10.417  63.177  0.00  0.00    -0.083 A 
ATOM     66  H50 non d ame      -7.614  10.094  63.320  0.00  0.00     0.083 H 
ATOM     67  C33 non d ame      -4.227   9.823  63.211  0.00  0.00    -0.082 A 
ATOM     68  H51 non d ame      -5.567  11.493  63.020  0.00  0.00     0.083 H 
ATOM     69  C34 non d ame      -4.102   8.450  63.414  0.00  0.00    -0.075 A 
ATOM     70  H52 non d ame      -3.336  10.437  63.077  0.00  0.00     0.083 H 
ATOM     71  H53 non d ame      -3.114   7.990  63.440  0.00  0.00     0.084 H 
ENDBRANCH  58  61
ENDBRANCH  57  58
ENDBRANCH  55  57
ENDBRANCH  52  55
ENDBRANCH  49  52
ENDBRANCH  47  49
BRANCH  47  72
ATOM     72  C24 non d ame      -9.665   5.334  66.058  0.00  0.00    -0.039 C 
ATOM     73  H35 non d ame     -10.360   4.848  66.743  0.00  0.00     0.036 H 
ATOM     74  H36 non d ame      -9.935   6.279  65.587  0.00  0.00     0.036 H 
BRANCH  72  75
ATOM     75  C25 non d ame      -9.355   4.292  64.881  0.00  0.00    -0.001 C 
ATOM     76  C26 non d ame      -8.521   5.038  63.677  0.00  0.00    -0.035 C 
ATOM     77  C27 non d ame      -9.144   4.796  62.499  0.00  0.00     0.085 C 
ATOM     78  H38 non d ame      -8.594   6.120  63.786  0.00  0.00     0.036 H 
ATOM     79  H39 non d ame      -7.546   4.568  63.550  0.00  0.00     0.036 H 
ATOM     80  N5  non d ame     -10.504   4.229  62.828  0.00  0.00    -0.049 N 
ATOM     81  H40 non d ame      -9.270   5.772  62.029  0.00  0.00     0.075 H 
ATOM     82  H41 non d ame      -8.549   4.028  62.007  0.00  0.00     0.075 H 
ATOM     83  C28 non d ame     -10.446   3.809  64.385  0.00  0.00     0.193 C 
ATOM     84  H42 non d ame     -11.163   4.987  62.723  0.00  0.00     0.280 HD
ATOM     85  H43 non d ame     -10.607   3.391  62.273  0.00  0.00     0.280 HD
ATOM     86  H44 non d ame     -10.348   2.762  64.673  0.00  0.00     0.129 H 
ATOM     87  H37 non d ame      -8.949   3.353  65.258  0.00  0.00     0.046 H 
BRANCH  83  88
ATOM     88  O6  non d ame     -11.606   4.287  65.069  0.00  0.00    -0.369 OA
ATOM     89  H45 non d ame     -12.219   3.561  65.204  0.00  0.00     0.212 HD
ENDBRANCH  83  88
ENDBRANCH  72  75
ENDBRANCH  47  72
ENDBRANCH  45  47
ENDBRANCH   1  43
BRANCH   1  90
ATOM     90  C16 non d ame      -6.627  10.071  68.107  0.00  0.00    -0.035 C 
ATOM     91  H21 non d ame      -6.998  11.084  68.267  0.00  0.00     0.037 H 
ATOM     92  H22 non d ame      -6.699   9.332  68.905  0.00  0.00     0.037 H 
BRANCH  90  93
ATOM     93  C17 non d ame      -5.108  10.206  67.768  0.00  0.00    -0.059 C 
ATOM     94  H23 non d ame      -4.563  10.264  68.710  0.00  0.00     0.038 H 
BRANCH  93  95
ATOM     95  C18 non d ame      -4.567   8.970  66.980  0.00  0.00    -0.073 C 
ATOM     96  H24 non d ame      -4.220   8.215  67.684  0.00  0.00     0.028 H 
ATOM     97  H25 non d ame      -5.365   8.555  66.365  0.00  0.00     0.028 H 
ATOM     98  H26 non d ame      -3.740   9.280  66.342  0.00  0.00     0.028 H 
ENDBRANCH  93  95
BRANCH  93  99
ATOM     99  C19 non d ame      -4.832  11.503  67.003  0.00  0.00    -0.073 C 
ATOM    100  H27 non d ame      -4.100  11.313  66.217  0.00  0.00     0.028 H 
ATOM    101  H28 non d ame      -5.759  11.866  66.557  0.00  0.00     0.028 H 
ATOM    102  H29 non d ame      -4.442  12.254  67.689  0.00  0.00     0.028 H 
ENDBRANCH  93  99
ENDBRANCH  90  93
ENDBRANCH   1  90
TORSDOF 26
ENDMDL
MODEL 11
REMARK VINA RESULT:      -6.5      2.604      3.855
REMARK  26 active torsions:
REMARK  status: ('A' for Active; 'I' for Inactive)
REMARK    1  A    between atoms: C2_2  and  C3_3 
REMARK    2  A    between atoms: C4_6  and  C5_7 
REMARK       I    between atoms: C5_7  and  N2_9 
REMARK    3  A    between atoms: N2_9  and  C6_10 
REMARK    4  A    between atoms: C6_10  and  C7_11 
REMARK    5  A    between atoms: C6_10  and  C8_13 
REMARK       I    between atoms: C7_11  and  N3_14 
REMARK    6  A    between atoms: N3_14  and  C9_15 
REMARK    7  A    between atoms: C9_15  and  C10_16 
REMARK    8  A    between atoms: C9_15  and  C11_18 
REMARK       I    between atoms: C10_16  and  N4_21 
REMARK    9  A    between atoms: C11_18  and  C12_19 
REMARK   10  A    between atoms: C11_18  and  C13_20 
REMARK   11  A    between atoms: N4_21  and  C14_22 
REMARK   12  A    between atoms: C14_22  and  C15_23 
REMARK   13  A    between atoms: C14_22  and  C16_25 
REMARK       I    between atoms: C15_23  and  N6_40 
REMARK   14  A    between atoms: C16_25  and  C17_26 
REMARK   15  A    between atoms: C17_26  and  C18_27 
REMARK   16  A    between atoms: C17_26  and  C19_28 
REMARK   17  A    between atoms: C20_29  and  C21_30 
REMARK   18  A    between atoms: C20_29  and  C24_33 
REMARK   19  A    between atoms: C20_29  and  N6_40 
REMARK   20  A    between atoms: C21_30  and  C22_31 
REMARK   21  A    between atoms: C22_31  and  C23_32 
REMARK   22  A    between atoms: C23_32  and  O8_43 
REMARK   23  A    between atoms: C24_33  and  C25_34 
REMARK   24  A    between atoms: C28_38  and  O6_39 
REMARK   25  A    between atoms: C29_42  and  O8_43 
REMARK   26  A    between atoms: C29_42  and  C35_49 
ROOT
ATOM      1  C14 non d ame      -6.520  12.274  69.131  0.00  0.00     0.089 C 
ATOM      2  H20 non d ame      -5.756  12.336  68.356  0.00  0.00     0.087 H 
ENDROOT
BRANCH   1   3
ATOM      3  N4  non d ame      -7.544  13.259  68.816  0.00  0.00    -0.346 N 
ATOM      4  C10 non d ame      -7.254  14.376  67.845  0.00  0.00     0.241 C 
ATOM      5  O4  non d ame      -6.187  14.463  67.331  0.00  0.00    -0.271 OA
ATOM      6  H19 non d ame      -8.444  13.169  69.266  0.00  0.00     0.163 HD
BRANCH   4   7
ATOM      7  C9  non d ame      -8.327  15.383  67.526  0.00  0.00     0.092 C 
ATOM      8  H11 non d ame      -8.274  15.641  66.469  0.00  0.00     0.088 H 
BRANCH   7   9
ATOM      9  N3  non d ame      -9.645  14.785  67.761  0.00  0.00    -0.346 N 
ATOM     10  C7  non d ame     -10.401  14.251  66.655  0.00  0.00     0.240 C 
ATOM     11  O3  non d ame      -9.965  14.297  65.570  0.00  0.00    -0.271 OA
ATOM     12  H10 non d ame     -10.034  14.741  68.692  0.00  0.00     0.163 HD
BRANCH  10  13
ATOM     13  C6  non d ame     -11.804  13.619  66.911  0.00  0.00     0.086 C 
ATOM     14  H6  non d ame     -11.774  12.530  66.954  0.00  0.00     0.086 H 
BRANCH  13  15
ATOM     15  N2  non d ame     -12.298  14.073  68.201  0.00  0.00    -0.343 N 
ATOM     16  C5  non d ame     -11.922  13.344  69.414  0.00  0.00     0.273 C 
ATOM     17  O2  non d ame     -11.224  12.393  69.342  0.00  0.00    -0.266 OA
ATOM     18  H5  non d ame     -12.896  14.885  68.253  0.00  0.00     0.163 HD
BRANCH  16  19
ATOM     19  C4  non d ame     -12.435  13.814  70.784  0.00  0.00     0.154 A 
ATOM     20  C1  non d ame     -12.022  14.975  71.511  0.00  0.00    -0.017 A 
ATOM     21  C2  non d ame     -12.788  14.954  72.697  0.00  0.00     0.077 A 
ATOM     22  H1  non d ame     -11.280  15.720  71.221  0.00  0.00     0.091 H 
ATOM     23  O1  non d ame     -13.550  13.901  72.647  0.00  0.00    -0.218 OA
ATOM     24  N1  non d ame     -13.362  13.219  71.541  0.00  0.00    -0.123 NA
BRANCH  21  25
ATOM     25  C3  non d ame     -12.733  15.976  73.825  0.00  0.00    -0.029 C 
ATOM     26  H2  non d ame     -12.026  15.643  74.584  0.00  0.00     0.036 H 
ATOM     27  H3  non d ame     -12.413  16.939  73.427  0.00  0.00     0.036 H 
ATOM     28  H4  non d ame     -13.723  16.079  74.271  0.00  0.00     0.036 H 
ENDBRANCH  21  25
ENDBRANCH  16  19
ENDBRANCH  13  15
BRANCH  13  29
ATOM     29  C8  non d ame     -12.754  14.037  65.818  0.00  0.00    -0.049 C 
ATOM     30  H7  non d ame     -12.980  15.099  65.919  0.00  0.00     0.030 H 
ATOM     31  H8  non d ame     -12.294  13.854  64.847  0.00  0.00     0.030 H 
ATOM     32  H9  non d ame     -13.676  13.462  65.898  0.00  0.00     0.030 H 
ENDBRANCH  13  29
ENDBRANCH  10  13
ENDBRANCH   7   9
BRANCH   7  33
ATOM     33  C11 non d ame      -8.156  16.631  68.442  0.00  0.00    -0.033 C 
ATOM     34  H12 non d ame      -7.659  16.302  69.355  0.00  0.00     0.042 H 
BRANCH  33  35
ATOM     35  C12 non d ame      -7.245  17.707  67.773  0.00  0.00    -0.071 C 
ATOM     36  H13 non d ame      -7.754  18.671  67.785  0.00  0.00     0.028 H 
ATOM     37  H14 non d ame      -6.309  17.784  68.324  0.00  0.00     0.028 H 
ATOM     38  H15 non d ame      -7.039  17.418  66.743  0.00  0.00     0.028 H 
ENDBRANCH  33  35
BRANCH  33  39
ATOM     39  C13 non d ame      -9.544  17.229  68.837  0.00  0.00    -0.071 C 
ATOM     40  H16 non d ame      -9.886  16.772  69.765  0.00  0.00     0.028 H 
ATOM     41  H17 non d ame      -9.449  18.307  68.976  0.00  0.00     0.028 H 
ATOM     42  H18 non d ame     -10.265  17.027  68.045  0.00  0.00     0.028 H 
ENDBRANCH  33  39
ENDBRANCH   7  33
ENDBRANCH   4   7
ENDBRANCH   1   3
BRANCH   1  43
ATOM     43  C15 non d ame      -7.185  10.870  69.190  0.00  0.00     0.240 C 
ATOM     44  O5  non d ame      -6.506   9.895  69.216  0.00  0.00    -0.271 OA
ATOM     45  N6  non d ame      -8.670  10.740  69.222  0.00  0.00    -0.355 N 
ATOM     46  H46 non d ame      -9.257  11.561  69.205  0.00  0.00     0.162 HD
BRANCH  45  47
ATOM     47  C20 non d ame      -9.287   9.397  69.279  0.00  0.00     0.013 C 
ATOM     48  H30 non d ame      -8.513   8.662  69.061  0.00  0.00     0.072 H 
BRANCH  47  49
ATOM     49  C21 non d ame     -10.388   9.309  68.246  0.00  0.00    -0.038 C 
ATOM     50  H31 non d ame     -11.191   8.744  68.719  0.00  0.00     0.036 H 
ATOM     51  H32 non d ame     -10.563  10.333  67.915  0.00  0.00     0.036 H 
BRANCH  49  52
ATOM     52  C22 non d ame      -9.971   8.509  66.993  0.00  0.00     0.018 C 
ATOM     53  H33 non d ame     -10.631   8.848  66.193  0.00  0.00     0.048 H 
ATOM     54  H34 non d ame      -8.893   8.643  66.903  0.00  0.00     0.048 H 
BRANCH  52  55
ATOM     55  C23 non d ame     -10.204   6.978  67.121  0.00  0.00     0.259 C 
ATOM     56  O7  non d ame     -11.240   6.557  67.523  0.00  0.00    -0.265 OA
BRANCH  55  57
ATOM     57  O8  non d ame      -9.158   6.082  66.763  0.00  0.00    -0.317 OA
BRANCH  57  58
ATOM     58  C29 non d ame      -9.606   4.760  66.452  0.00  0.00     0.052 C 
ATOM     59  H47 non d ame      -8.879   4.088  66.909  0.00  0.00     0.082 H 
ATOM     60  H48 non d ame     -10.651   4.722  66.759  0.00  0.00     0.082 H 
BRANCH  58  61
ATOM     61  C35 non d ame      -9.539   4.581  64.912  0.00  0.00    -0.034 A 
ATOM     62  C30 non d ame      -8.535   5.208  64.181  0.00  0.00    -0.075 A 
ATOM     63  C31 non d ame      -8.475   5.049  62.798  0.00  0.00    -0.082 A 
ATOM     64  H49 non d ame      -7.795   5.824  64.692  0.00  0.00     0.084 H 
ATOM     65  C32 non d ame      -9.426   4.260  62.144  0.00  0.00    -0.083 A 
ATOM     66  H50 non d ame      -7.685   5.539  62.228  0.00  0.00     0.083 H 
ATOM     67  C33 non d ame     -10.428   3.639  62.878  0.00  0.00    -0.082 A 
ATOM     68  H51 non d ame      -9.386   4.129  61.063  0.00  0.00     0.083 H 
ATOM     69  C34 non d ame     -10.490   3.794  64.261  0.00  0.00    -0.075 A 
ATOM     70  H52 non d ame     -11.169   3.026  62.365  0.00  0.00     0.083 H 
ATOM     71  H53 non d ame     -11.280   3.302  64.830  0.00  0.00     0.084 H 
ENDBRANCH  58  61
ENDBRANCH  57  58
ENDBRANCH  55  57
ENDBRANCH  52  55
ENDBRANCH  49  52
ENDBRANCH  47  49
BRANCH  47  72
ATOM     72  C24 non d ame      -9.872   9.156  70.669  0.00  0.00    -0.039 C 
ATOM     73  H35 non d ame      -9.292   8.334  71.089  0.00  0.00     0.036 H 
ATOM     74  H36 non d ame      -9.868  10.131  71.158  0.00  0.00     0.036 H 
BRANCH  72  75
ATOM     75  C25 non d ame     -11.397   8.671  70.595  0.00  0.00    -0.001 C 
ATOM     76  C26 non d ame     -12.375   9.786  71.305  0.00  0.00    -0.035 C 
ATOM     77  C27 non d ame     -13.167   9.160  72.207  0.00  0.00     0.085 C 
ATOM     78  H38 non d ame     -11.783  10.468  71.914  0.00  0.00     0.036 H 
ATOM     79  H39 non d ame     -13.082  10.181  70.575  0.00  0.00     0.036 H 
ATOM     80  N5  non d ame     -12.595   7.778  72.414  0.00  0.00    -0.049 N 
ATOM     81  H40 non d ame     -13.063   9.729  73.131  0.00  0.00     0.075 H 
ATOM     82  H41 non d ame     -14.142   9.072  71.728  0.00  0.00     0.075 H 
ATOM     83  C28 non d ame     -11.557   7.541  71.200  0.00  0.00     0.193 C 
ATOM     84  H42 non d ame     -12.076   7.810  73.279  0.00  0.00     0.280 HD
ATOM     85  H43 non d ame     -13.364   7.131  72.310  0.00  0.00     0.280 HD
ATOM     86  H44 non d ame     -11.826   6.902  70.359  0.00  0.00     0.129 H 
ATOM     87  H37 non d ame     -11.674   8.331  69.597  0.00  0.00     0.046 H 
BRANCH  83  88
ATOM     88  O6  non d ame     -10.326   7.017  71.700  0.00  0.00    -0.369 OA
ATOM     89  H45 non d ame     -10.474   6.617  72.559  0.00  0.00     0.212 HD
ENDBRANCH  83  88
ENDBRANCH  72  75
ENDBRANCH  47  72
ENDBRANCH  45  47
ENDBRANCH   1  43
BRANCH   1  90
ATOM     90  C16 non d ame      -5.910  12.608  70.483  0.00  0.00    -0.035 C 
ATOM     91  H21 non d ame      -6.542  13.393  70.899  0.00  0.00     0.037 H 
ATOM     92  H22 non d ame      -5.816  11.653  71.001  0.00  0.00     0.037 H 
BRANCH  90  93
ATOM     93  C17 non d ame      -4.469  13.204  70.390  0.00  0.00    -0.059 C 
ATOM     94  H23 non d ame      -3.915  12.866  71.266  0.00  0.00     0.038 H 
BRANCH  93  95
ATOM     95  C18 non d ame      -3.705  12.705  69.122  0.00  0.00    -0.073 C 
ATOM     96  H24 non d ame      -3.536  11.632  69.199  0.00  0.00     0.028 H 
ATOM     97  H25 non d ame      -4.301  12.917  68.233  0.00  0.00     0.028 H 
ATOM     98  H26 non d ame      -2.748  13.221  69.049  0.00  0.00     0.028 H 
ENDBRANCH  93  95
BRANCH  93  99
ATOM     99  C19 non d ame      -4.506  14.734  70.438  0.00  0.00    -0.073 C 
ATOM    100  H27 non d ame      -3.730  15.095  71.113  0.00  0.00     0.028 H 
ATOM    101  H28 non d ame      -4.332  15.132  69.438  0.00  0.00     0.028 H 
ATOM    102  H29 non d ame      -5.481  15.063  70.795  0.00  0.00     0.028 H 
ENDBRANCH  93  99
ENDBRANCH  90  93
ENDBRANCH   1  90
TORSDOF 26
ENDMDL
MODEL 12
REMARK VINA RESULT:      -6.5      3.725      6.682
REMARK  26 active torsions:
REMARK  status: ('A' for Active; 'I' for Inactive)
REMARK    1  A    between atoms: C2_2  and  C3_3 
REMARK    2  A    between atoms: C4_6  and  C5_7 
REMARK       I    between atoms: C5_7  and  N2_9 
REMARK    3  A    between atoms: N2_9  and  C6_10 
REMARK    4  A    between atoms: C6_10  and  C7_11 
REMARK    5  A    between atoms: C6_10  and  C8_13 
REMARK       I    between atoms: C7_11  and  N3_14 
REMARK    6  A    between atoms: N3_14  and  C9_15 
REMARK    7  A    between atoms: C9_15  and  C10_16 
REMARK    8  A    between atoms: C9_15  and  C11_18 
REMARK       I    between atoms: C10_16  and  N4_21 
REMARK    9  A    between atoms: C11_18  and  C12_19 
REMARK   10  A    between atoms: C11_18  and  C13_20 
REMARK   11  A    between atoms: N4_21  and  C14_22 
REMARK   12  A    between atoms: C14_22  and  C15_23 
REMARK   13  A    between atoms: C14_22  and  C16_25 
REMARK       I    between atoms: C15_23  and  N6_40 
REMARK   14  A    between atoms: C16_25  and  C17_26 
REMARK   15  A    between atoms: C17_26  and  C18_27 
REMARK   16  A    between atoms: C17_26  and  C19_28 
REMARK   17  A    between atoms: C20_29  and  C21_30 
REMARK   18  A    between atoms: C20_29  and  C24_33 
REMARK   19  A    between atoms: C20_29  and  N6_40 
REMARK   20  A    between atoms: C21_30  and  C22_31 
REMARK   21  A    between atoms: C22_31  and  C23_32 
REMARK   22  A    between atoms: C23_32  and  O8_43 
REMARK   23  A    between atoms: C24_33  and  C25_34 
REMARK   24  A    between atoms: C28_38  and  O6_39 
REMARK   25  A    between atoms: C29_42  and  O8_43 
REMARK   26  A    between atoms: C29_42  and  C35_49 
ROOT
ATOM      1  C14 non d ame      -5.765  13.890  67.709  0.00  0.00     0.089 C 
ATOM      2  H20 non d ame      -5.180  13.935  66.790  0.00  0.00     0.087 H 
ENDROOT
BRANCH   1   3
ATOM      3  N4  non d ame      -6.337  15.210  67.929  0.00  0.00    -0.346 N 
ATOM      4  C10 non d ame      -5.719  16.425  67.284  0.00  0.00     0.241 C 
ATOM      5  O4  non d ame      -4.760  16.316  66.593  0.00  0.00    -0.271 OA
ATOM      6  H19 non d ame      -7.151  15.282  68.523  0.00  0.00     0.163 HD
BRANCH   4   7
ATOM      7  C9  non d ame      -6.327  17.783  67.519  0.00  0.00     0.092 C 
ATOM      8  H11 non d ame      -5.976  18.471  66.750  0.00  0.00     0.088 H 
BRANCH   7   9
ATOM      9  N3  non d ame      -7.785  17.696  67.389  0.00  0.00    -0.346 N 
ATOM     10  C7  non d ame      -8.461  18.434  66.351  0.00  0.00     0.240 C 
ATOM     11  O3  non d ame      -7.848  19.104  65.612  0.00  0.00    -0.271 OA
ATOM     12  H10 non d ame      -8.327  17.123  68.019  0.00  0.00     0.163 HD
BRANCH  10  13
ATOM     13  C6  non d ame     -10.013  18.339  66.219  0.00  0.00     0.086 C 
ATOM     14  H6  non d ame     -10.367  18.586  65.219  0.00  0.00     0.086 H 
BRANCH  13  15
ATOM     15  N2  non d ame     -10.425  16.970  66.481  0.00  0.00    -0.343 N 
ATOM     16  C5  non d ame     -11.022  16.178  65.403  0.00  0.00     0.273 C 
ATOM     17  O2  non d ame     -11.169  16.653  64.330  0.00  0.00    -0.266 OA
ATOM     18  H5  non d ame     -10.299  16.573  67.401  0.00  0.00     0.163 HD
BRANCH  16  19
ATOM     19  C4  non d ame     -11.461  14.729  65.664  0.00  0.00     0.154 A 
ATOM     20  C1  non d ame     -10.980  13.851  66.687  0.00  0.00    -0.017 A 
ATOM     21  C2  non d ame     -11.696  12.648  66.499  0.00  0.00     0.077 A 
ATOM     22  H1  non d ame     -10.228  14.056  67.448  0.00  0.00     0.091 H 
ATOM     23  O1  non d ame     -12.493  12.825  65.486  0.00  0.00    -0.218 OA
ATOM     24  N1  non d ame     -12.374  14.032  64.982  0.00  0.00    -0.123 NA
BRANCH  21  25
ATOM     25  C3  non d ame     -11.560  11.378  67.329  0.00  0.00    -0.029 C 
ATOM     26  H2  non d ame     -11.800  10.512  66.712  0.00  0.00     0.036 H 
ATOM     27  H3  non d ame     -10.537  11.292  67.695  0.00  0.00     0.036 H 
ATOM     28  H4  non d ame     -12.246  11.423  68.176  0.00  0.00     0.036 H 
ENDBRANCH  21  25
ENDBRANCH  16  19
ENDBRANCH  13  15
BRANCH  13  29
ATOM     29  C8  non d ame     -10.662  19.272  67.210  0.00  0.00    -0.049 C 
ATOM     30  H7  non d ame     -10.444  20.304  66.934  0.00  0.00     0.030 H 
ATOM     31  H8  non d ame     -11.740  19.114  67.205  0.00  0.00     0.030 H 
ATOM     32  H9  non d ame     -10.269  19.073  68.207  0.00  0.00     0.030 H 
ENDBRANCH  13  29
ENDBRANCH  10  13
ENDBRANCH   7   9
BRANCH   7  33
ATOM     33  C11 non d ame      -5.965  18.273  68.952  0.00  0.00    -0.033 C 
ATOM     34  H12 non d ame      -6.275  17.497  69.652  0.00  0.00     0.042 H 
BRANCH  33  35
ATOM     35  C12 non d ame      -4.425  18.464  69.115  0.00  0.00    -0.071 C 
ATOM     36  H13 non d ame      -4.233  19.272  69.822  0.00  0.00     0.028 H 
ATOM     37  H14 non d ame      -3.982  17.541  69.489  0.00  0.00     0.028 H 
ATOM     38  H15 non d ame      -3.986  18.714  68.150  0.00  0.00     0.028 H 
ENDBRANCH  33  35
BRANCH  33  39
ATOM     39  C13 non d ame      -6.740  19.582  69.308  0.00  0.00    -0.071 C 
ATOM     40  H16 non d ame      -7.487  19.782  68.541  0.00  0.00     0.028 H 
ATOM     41  H17 non d ame      -7.233  19.461  70.273  0.00  0.00     0.028 H 
ATOM     42  H18 non d ame      -6.040  20.415  69.359  0.00  0.00     0.028 H 
ENDBRANCH  33  39
ENDBRANCH   7  33
ENDBRANCH   4   7
ENDBRANCH   1   3
BRANCH   1  43
ATOM     43  C15 non d ame      -6.925  12.858  67.616  0.00  0.00     0.240 C 
ATOM     44  O5  non d ame      -7.826  12.910  68.390  0.00  0.00    -0.271 OA
ATOM     45  N6  non d ame      -6.917  11.808  66.557  0.00  0.00    -0.355 N 
ATOM     46  H46 non d ame      -6.159  11.757  65.892  0.00  0.00     0.162 HD
BRANCH  45  47
ATOM     47  C20 non d ame      -8.027  10.835  66.482  0.00  0.00     0.013 C 
ATOM     48  H30 non d ame      -8.855  11.223  67.075  0.00  0.00     0.072 H 
BRANCH  47  49
ATOM     49  C21 non d ame      -7.568   9.508  67.042  0.00  0.00    -0.038 C 
ATOM     50  H31 non d ame      -7.415   8.860  66.178  0.00  0.00     0.036 H 
ATOM     51  H32 non d ame      -6.733   9.741  67.703  0.00  0.00     0.036 H 
BRANCH  49  52
ATOM     52  C22 non d ame      -8.640   8.823  67.917  0.00  0.00     0.018 C 
ATOM     53  H33 non d ame      -8.095   8.347  68.733  0.00  0.00     0.048 H 
ATOM     54  H34 non d ame      -9.381   9.593  68.132  0.00  0.00     0.048 H 
BRANCH  52  55
ATOM     55  C23 non d ame      -9.406   7.683  67.190  0.00  0.00     0.259 C 
ATOM     56  O7  non d ame     -10.414   7.911  66.605  0.00  0.00    -0.265 OA
BRANCH  55  57
ATOM     57  O8  non d ame      -8.895   6.356  67.243  0.00  0.00    -0.317 OA
BRANCH  57  58
ATOM     58  C29 non d ame      -9.260   5.546  66.122  0.00  0.00     0.052 C 
ATOM     59  H47 non d ame      -9.309   4.525  66.499  0.00  0.00     0.082 H 
ATOM     60  H48 non d ame     -10.148   6.014  65.697  0.00  0.00     0.082 H 
BRANCH  58  61
ATOM     61  C35 non d ame      -8.115   5.630  65.078  0.00  0.00    -0.034 A 
ATOM     62  C30 non d ame      -8.381   5.400  63.732  0.00  0.00    -0.075 A 
ATOM     63  C31 non d ame      -7.352   5.475  62.794  0.00  0.00    -0.082 A 
ATOM     64  H49 non d ame      -9.395   5.161  63.412  0.00  0.00     0.084 H 
ATOM     65  C32 non d ame      -6.052   5.779  63.206  0.00  0.00    -0.083 A 
ATOM     66  H50 non d ame      -7.565   5.296  61.740  0.00  0.00     0.083 H 
ATOM     67  C33 non d ame      -5.791   6.005  64.551  0.00  0.00    -0.082 A 
ATOM     68  H51 non d ame      -5.242   5.840  62.480  0.00  0.00     0.083 H 
ATOM     69  C34 non d ame      -6.816   5.933  65.492  0.00  0.00    -0.075 A 
ATOM     70  H52 non d ame      -4.775   6.240  64.870  0.00  0.00     0.083 H 
ATOM     71  H53 non d ame      -6.603   6.113  66.546  0.00  0.00     0.084 H 
ENDBRANCH  58  61
ENDBRANCH  57  58
ENDBRANCH  55  57
ENDBRANCH  52  55
ENDBRANCH  49  52
ENDBRANCH  47  49
BRANCH  47  72
ATOM     72  C24 non d ame      -8.457  10.653  65.027  0.00  0.00    -0.039 C 
ATOM     73  H35 non d ame      -9.529  10.459  65.064  0.00  0.00     0.036 H 
ATOM     74  H36 non d ame      -8.080  11.531  64.502  0.00  0.00     0.036 H 
BRANCH  72  75
ATOM     75  C25 non d ame      -7.767   9.370  64.361  0.00  0.00    -0.001 C 
ATOM     76  C26 non d ame      -6.302   9.783  63.738  0.00  0.00    -0.035 C 
ATOM     77  C27 non d ame      -6.238   9.357  62.454  0.00  0.00     0.085 C 
ATOM     78  H38 non d ame      -6.224  10.866  63.652  0.00  0.00     0.036 H 
ATOM     79  H39 non d ame      -5.512   9.217  64.233  0.00  0.00     0.036 H 
ATOM     80  N5  non d ame      -7.642   8.984  62.042  0.00  0.00    -0.049 N 
ATOM     81  H40 non d ame      -5.917  10.224  61.875  0.00  0.00     0.075 H 
ATOM     82  H41 non d ame      -5.624   8.458  62.475  0.00  0.00     0.075 H 
ATOM     83  C28 non d ame      -8.495   8.888  63.410  0.00  0.00     0.193 C 
ATOM     84  H42 non d ame      -7.995   9.757  61.497  0.00  0.00     0.280 HD
ATOM     85  H43 non d ame      -7.585   8.062  61.634  0.00  0.00     0.280 HD
ATOM     86  H44 non d ame      -8.757   7.918  63.833  0.00  0.00     0.129 H 
ATOM     87  H37 non d ame      -7.800   8.498  65.014  0.00  0.00     0.046 H 
BRANCH  83  88
ATOM     88  O6  non d ame      -9.732   9.590  63.270  0.00  0.00    -0.369 OA
ATOM     89  H45 non d ame     -10.433   9.089  63.692  0.00  0.00     0.212 HD
ENDBRANCH  83  88
ENDBRANCH  72  75
ENDBRANCH  47  72
ENDBRANCH  45  47
ENDBRANCH   1  43
BRANCH   1  90
ATOM     90  C16 non d ame      -4.860  13.539  68.879  0.00  0.00    -0.035 C 
ATOM     91  H21 non d ame      -5.213  12.572  69.236  0.00  0.00     0.037 H 
ATOM     92  H22 non d ame      -3.844  13.642  68.499  0.00  0.00     0.037 H 
BRANCH  90  93
ATOM     93  C17 non d ame      -4.983  14.526  70.083  0.00  0.00    -0.059 C 
ATOM     94  H23 non d ame      -5.646  15.336  69.781  0.00  0.00     0.038 H 
BRANCH  93  95
ATOM     95  C18 non d ame      -5.608  13.844  71.343  0.00  0.00    -0.073 C 
ATOM     96  H24 non d ame      -5.421  12.771  71.304  0.00  0.00     0.028 H 
ATOM     97  H25 non d ame      -5.155  14.260  72.243  0.00  0.00     0.028 H 
ATOM     98  H26 non d ame      -6.682  14.026  71.359  0.00  0.00     0.028 H 
ENDBRANCH  93  95
BRANCH  93  99
ATOM     99  C19 non d ame      -3.626  15.150  70.419  0.00  0.00    -0.073 C 
ATOM    100  H27 non d ame      -3.396  15.932  69.695  0.00  0.00     0.028 H 
ATOM    101  H28 non d ame      -3.662  15.580  71.420  0.00  0.00     0.028 H 
ATOM    102  H29 non d ame      -2.854  14.382  70.382  0.00  0.00     0.028 H 
ENDBRANCH  93  99
ENDBRANCH  90  93
ENDBRANCH   1  90
TORSDOF 26
ENDMDL
MODEL 13
REMARK VINA RESULT:      -6.5      2.361      6.896
REMARK  26 active torsions:
REMARK  status: ('A' for Active; 'I' for Inactive)
REMARK    1  A    between atoms: C2_2  and  C3_3 
REMARK    2  A    between atoms: C4_6  and  C5_7 
REMARK       I    between atoms: C5_7  and  N2_9 
REMARK    3  A    between atoms: N2_9  and  C6_10 
REMARK    4  A    between atoms: C6_10  and  C7_11 
REMARK    5  A    between atoms: C6_10  and  C8_13 
REMARK       I    between atoms: C7_11  and  N3_14 
REMARK    6  A    between atoms: N3_14  and  C9_15 
REMARK    7  A    between atoms: C9_15  and  C10_16 
REMARK    8  A    between atoms: C9_15  and  C11_18 
REMARK       I    between atoms: C10_16  and  N4_21 
REMARK    9  A    between atoms: C11_18  and  C12_19 
REMARK   10  A    between atoms: C11_18  and  C13_20 
REMARK   11  A    between atoms: N4_21  and  C14_22 
REMARK   12  A    between atoms: C14_22  and  C15_23 
REMARK   13  A    between atoms: C14_22  and  C16_25 
REMARK       I    between atoms: C15_23  and  N6_40 
REMARK   14  A    between atoms: C16_25  and  C17_26 
REMARK   15  A    between atoms: C17_26  and  C18_27 
REMARK   16  A    between atoms: C17_26  and  C19_28 
REMARK   17  A    between atoms: C20_29  and  C21_30 
REMARK   18  A    between atoms: C20_29  and  C24_33 
REMARK   19  A    between atoms: C20_29  and  N6_40 
REMARK   20  A    between atoms: C21_30  and  C22_31 
REMARK   21  A    between atoms: C22_31  and  C23_32 
REMARK   22  A    between atoms: C23_32  and  O8_43 
REMARK   23  A    between atoms: C24_33  and  C25_34 
REMARK   24  A    between atoms: C28_38  and  O6_39 
REMARK   25  A    between atoms: C29_42  and  O8_43 
REMARK   26  A    between atoms: C29_42  and  C35_49 
ROOT
ATOM      1  C14 non d ame      -9.148   6.878  66.399  0.00  0.00     0.089 C 
ATOM      2  H20 non d ame      -9.625   6.403  65.541  0.00  0.00     0.087 H 
ENDROOT
BRANCH   1   3
ATOM      3  N4  non d ame      -8.685   8.190  65.972  0.00  0.00    -0.346 N 
ATOM      4  C10 non d ame      -8.255   8.418  64.544  0.00  0.00     0.241 C 
ATOM      5  O4  non d ame      -8.287   7.530  63.758  0.00  0.00    -0.271 OA
ATOM      6  H19 non d ame      -8.663   8.932  66.656  0.00  0.00     0.163 HD
BRANCH   4   7
ATOM      7  C9  non d ame      -7.784   9.784  64.118  0.00  0.00     0.092 C 
ATOM      8  H11 non d ame      -7.806   9.847  63.030  0.00  0.00     0.088 H 
BRANCH   7   9
ATOM      9  N3  non d ame      -8.707  10.802  64.630  0.00  0.00    -0.346 N 
ATOM     10  C7  non d ame      -9.871  11.170  63.863  0.00  0.00     0.240 C 
ATOM     11  O3  non d ame     -10.080  10.659  62.831  0.00  0.00    -0.271 OA
ATOM     12  H10 non d ame      -8.539  11.252  65.518  0.00  0.00     0.163 HD
BRANCH  10  13
ATOM     13  C6  non d ame     -10.848  12.256  64.412  0.00  0.00     0.086 C 
ATOM     14  H6  non d ame     -11.269  11.992  65.382  0.00  0.00     0.086 H 
BRANCH  13  15
ATOM     15  N2  non d ame     -10.115  13.497  64.601  0.00  0.00    -0.343 N 
ATOM     16  C5  non d ame     -10.531  14.428  65.652  0.00  0.00     0.273 C 
ATOM     17  O2  non d ame     -11.458  14.170  66.339  0.00  0.00    -0.266 OA
ATOM     18  H5  non d ame      -9.326  13.710  64.007  0.00  0.00     0.163 HD
BRANCH  16  19
ATOM     19  C4  non d ame      -9.765  15.743  65.863  0.00  0.00     0.154 A 
ATOM     20  C1  non d ame      -8.497  15.911  66.504  0.00  0.00    -0.017 A 
ATOM     21  C2  non d ame      -8.237  17.299  66.438  0.00  0.00     0.077 A 
ATOM     22  H1  non d ame      -7.862  15.145  66.949  0.00  0.00     0.091 H 
ATOM     23  O1  non d ame      -9.244  17.852  65.828  0.00  0.00    -0.218 OA
ATOM     24  N1  non d ame     -10.148  16.965  65.483  0.00  0.00    -0.123 NA
BRANCH  21  25
ATOM     25  C3  non d ame      -7.006  18.012  66.981  0.00  0.00    -0.029 C 
ATOM     26  H2  non d ame      -6.339  18.265  66.156  0.00  0.00     0.036 H 
ATOM     27  H3  non d ame      -7.312  18.925  67.493  0.00  0.00     0.036 H 
ATOM     28  H4  non d ame      -6.486  17.359  67.682  0.00  0.00     0.036 H 
ENDBRANCH  21  25
ENDBRANCH  16  19
ENDBRANCH  13  15
BRANCH  13  29
ATOM     29  C8  non d ame     -11.974  12.464  63.432  0.00  0.00    -0.049 C 
ATOM     30  H7  non d ame     -11.567  12.569  62.427  0.00  0.00     0.030 H 
ATOM     31  H8  non d ame     -12.647  11.608  63.465  0.00  0.00     0.030 H 
ATOM     32  H9  non d ame     -12.522  13.368  63.697  0.00  0.00     0.030 H 
ENDBRANCH  13  29
ENDBRANCH  10  13
ENDBRANCH   7   9
BRANCH   7  33
ATOM     33  C11 non d ame      -6.360  10.044  64.691  0.00  0.00    -0.033 C 
ATOM     34  H12 non d ame      -5.774  10.526  63.909  0.00  0.00     0.042 H 
BRANCH  33  35
ATOM     35  C12 non d ame      -6.406  11.016  65.910  0.00  0.00    -0.071 C 
ATOM     36  H13 non d ame      -5.923  10.548  66.768  0.00  0.00     0.028 H 
ATOM     37  H14 non d ame      -5.883  11.939  65.659  0.00  0.00     0.028 H 
ATOM     38  H15 non d ame      -7.444  11.241  66.156  0.00  0.00     0.028 H 
ENDBRANCH  33  35
BRANCH  33  39
ATOM     39  C13 non d ame      -5.654   8.701  65.064  0.00  0.00    -0.071 C 
ATOM     40  H16 non d ame      -6.221   7.866  64.653  0.00  0.00     0.028 H 
ATOM     41  H17 non d ame      -4.645   8.693  64.650  0.00  0.00     0.028 H 
ATOM     42  H18 non d ame      -5.602   8.607  66.149  0.00  0.00     0.028 H 
ENDBRANCH  33  39
ENDBRANCH   7  33
ENDBRANCH   4   7
ENDBRANCH   1   3
BRANCH   1  43
ATOM     43  C15 non d ame     -10.131   7.064  67.590  0.00  0.00     0.240 C 
ATOM     44  O5  non d ame     -11.206   6.557  67.554  0.00  0.00    -0.271 OA
ATOM     45  N6  non d ame      -9.730   7.866  68.780  0.00  0.00    -0.355 N 
ATOM     46  H46 non d ame      -8.818   8.297  68.825  0.00  0.00     0.162 HD
BRANCH  45  47
ATOM     47  C20 non d ame     -10.676   8.032  69.905  0.00  0.00     0.013 C 
ATOM     48  H30 non d ame     -11.681   7.841  69.529  0.00  0.00     0.072 H 
BRANCH  47  49
ATOM     49  C21 non d ame     -10.581   9.445  70.434  0.00  0.00    -0.038 C 
ATOM     50  H31 non d ame     -10.473   9.349  71.514  0.00  0.00     0.036 H 
ATOM     51  H32 non d ame      -9.797   9.926  69.848  0.00  0.00     0.036 H 
BRANCH  49  52
ATOM     52  C22 non d ame     -11.869  10.262  70.194  0.00  0.00     0.018 C 
ATOM     53  H33 non d ame     -11.537  11.273  69.954  0.00  0.00     0.048 H 
ATOM     54  H34 non d ame     -12.449   9.692  69.468  0.00  0.00     0.048 H 
BRANCH  52  55
ATOM     55  C23 non d ame     -12.770  10.395  71.453  0.00  0.00     0.259 C 
ATOM     56  O7  non d ame     -13.140   9.427  72.035  0.00  0.00    -0.265 OA
BRANCH  55  57
ATOM     57  O8  non d ame     -13.160  11.689  71.898  0.00  0.00    -0.317 OA
BRANCH  57  58
ATOM     58  C29 non d ame     -13.024  12.711  70.906  0.00  0.00     0.052 C 
ATOM     59  H47 non d ame     -12.174  12.415  70.292  0.00  0.00     0.082 H 
ATOM     60  H48 non d ame     -14.011  12.817  70.455  0.00  0.00     0.082 H 
BRANCH  58  61
ATOM     61  C35 non d ame     -12.670  14.037  71.629  0.00  0.00    -0.034 A 
ATOM     62  C30 non d ame     -11.929  15.014  70.971  0.00  0.00    -0.075 A 
ATOM     63  C31 non d ame     -11.610  16.205  71.621  0.00  0.00    -0.082 A 
ATOM     64  H49 non d ame     -11.599  14.846  69.946  0.00  0.00     0.084 H 
ATOM     65  C32 non d ame     -12.033  16.417  72.936  0.00  0.00    -0.083 A 
ATOM     66  H50 non d ame     -11.032  16.969  71.102  0.00  0.00     0.083 H 
ATOM     67  C33 non d ame     -12.768  15.438  73.590  0.00  0.00    -0.082 A 
ATOM     68  H51 non d ame     -11.788  17.345  73.452  0.00  0.00     0.083 H 
ATOM     69  C34 non d ame     -13.091  14.247  72.944  0.00  0.00    -0.075 A 
ATOM     70  H52 non d ame     -13.095  15.605  74.617  0.00  0.00     0.083 H 
ATOM     71  H53 non d ame     -13.670  13.483  73.464  0.00  0.00     0.084 H 
ENDBRANCH  58  61
ENDBRANCH  57  58
ENDBRANCH  55  57
ENDBRANCH  52  55
ENDBRANCH  49  52
ENDBRANCH  47  49
BRANCH  47  72
ATOM     72  C24 non d ame     -10.330   7.046  71.020  0.00  0.00    -0.039 C 
ATOM     73  H35 non d ame     -11.283   6.619  71.334  0.00  0.00     0.036 H 
ATOM     74  H36 non d ame      -9.554   6.402  70.607  0.00  0.00     0.036 H 
BRANCH  72  75
ATOM     75  C25 non d ame      -9.702   7.788  72.293  0.00  0.00    -0.001 C 
ATOM     76  C26 non d ame      -8.225   7.152  72.639  0.00  0.00    -0.035 C 
ATOM     77  C27 non d ame      -8.190   6.818  73.951  0.00  0.00     0.085 C 
ATOM     78  H38 non d ame      -8.101   6.196  72.130  0.00  0.00     0.036 H 
ATOM     79  H39 non d ame      -7.457   7.920  72.551  0.00  0.00     0.036 H 
ATOM     80  N5  non d ame      -9.612   6.865  74.456  0.00  0.00    -0.049 N 
ATOM     81  H40 non d ame      -7.836   5.787  73.981  0.00  0.00     0.075 H 
ATOM     82  H41 non d ame      -7.615   7.606  74.436  0.00  0.00     0.075 H 
ATOM     83  C28 non d ame     -10.457   7.656  73.331  0.00  0.00     0.193 C 
ATOM     84  H42 non d ame      -9.936   5.908  74.489  0.00  0.00     0.280 HD
ATOM     85  H43 non d ame      -9.598   7.422  75.299  0.00  0.00     0.280 HD
ATOM     86  H44 non d ame     -10.758   8.692  73.491  0.00  0.00     0.129 H 
ATOM     87  H37 non d ame      -9.767   8.873  72.213  0.00  0.00     0.046 H 
BRANCH  83  88
ATOM     88  O6  non d ame     -11.664   6.950  73.034  0.00  0.00    -0.369 OA
ATOM     89  H45 non d ame     -12.372   7.579  72.880  0.00  0.00     0.212 HD
ENDBRANCH  83  88
ENDBRANCH  72  75
ENDBRANCH  47  72
ENDBRANCH  45  47
ENDBRANCH   1  43
BRANCH   1  90
ATOM     90  C16 non d ame      -7.953   6.052  66.847  0.00  0.00    -0.035 C 
ATOM     91  H21 non d ame      -7.078   6.576  66.460  0.00  0.00     0.037 H 
ATOM     92  H22 non d ame      -8.078   5.922  67.922  0.00  0.00     0.037 H 
BRANCH  90  93
ATOM     93  C17 non d ame      -7.916   4.618  66.229  0.00  0.00    -0.059 C 
ATOM     94  H23 non d ame      -6.998   4.531  65.648  0.00  0.00     0.038 H 
BRANCH  93  95
ATOM     95  C18 non d ame      -7.893   3.505  67.326  0.00  0.00    -0.073 C 
ATOM     96  H24 non d ame      -8.915   3.259  67.614  0.00  0.00     0.028 H 
ATOM     97  H25 non d ame      -7.402   2.615  66.930  0.00  0.00     0.028 H 
ATOM     98  H26 non d ame      -7.345   3.864  68.197  0.00  0.00     0.028 H 
ENDBRANCH  93  95
BRANCH  93  99
ATOM     99  C19 non d ame      -9.086   4.408  65.265  0.00  0.00    -0.073 C 
ATOM    100  H27 non d ame      -9.133   5.242  64.564  0.00  0.00     0.028 H 
ATOM    101  H28 non d ame      -8.940   3.478  64.714  0.00  0.00     0.028 H 
ATOM    102  H29 non d ame     -10.017   4.353  65.828  0.00  0.00     0.028 H 
ENDBRANCH  93  99
ENDBRANCH  90  93
ENDBRANCH   1  90
TORSDOF 26
ENDMDL
MODEL 14
REMARK VINA RESULT:      -6.5      3.005      6.405
REMARK  26 active torsions:
REMARK  status: ('A' for Active; 'I' for Inactive)
REMARK    1  A    between atoms: C2_2  and  C3_3 
REMARK    2  A    between atoms: C4_6  and  C5_7 
REMARK       I    between atoms: C5_7  and  N2_9 
REMARK    3  A    between atoms: N2_9  and  C6_10 
REMARK    4  A    between atoms: C6_10  and  C7_11 
REMARK    5  A    between atoms: C6_10  and  C8_13 
REMARK       I    between atoms: C7_11  and  N3_14 
REMARK    6  A    between atoms: N3_14  and  C9_15 
REMARK    7  A    between atoms: C9_15  and  C10_16 
REMARK    8  A    between atoms: C9_15  and  C11_18 
REMARK       I    between atoms: C10_16  and  N4_21 
REMARK    9  A    between atoms: C11_18  and  C12_19 
REMARK   10  A    between atoms: C11_18  and  C13_20 
REMARK   11  A    between atoms: N4_21  and  C14_22 
REMARK   12  A    between atoms: C14_22  and  C15_23 
REMARK   13  A    between atoms: C14_22  and  C16_25 
REMARK       I    between atoms: C15_23  and  N6_40 
REMARK   14  A    between atoms: C16_25  and  C17_26 
REMARK   15  A    between atoms: C17_26  and  C18_27 
REMARK   16  A    between atoms: C17_26  and  C19_28 
REMARK   17  A    between atoms: C20_29  and  C21_30 
REMARK   18  A    between atoms: C20_29  and  C24_33 
REMARK   19  A    between atoms: C20_29  and  N6_40 
REMARK   20  A    between atoms: C21_30  and  C22_31 
REMARK   21  A    between atoms: C22_31  and  C23_32 
REMARK   22  A    between atoms: C23_32  and  O8_43 
REMARK   23  A    between atoms: C24_33  and  C25_34 
REMARK   24  A    between atoms: C28_38  and  O6_39 
REMARK   25  A    between atoms: C29_42  and  O8_43 
REMARK   26  A    between atoms: C29_42  and  C35_49 
ROOT
ATOM      1  C14 non d ame      -5.803  10.337  65.945  0.00  0.00     0.089 C 
ATOM      2  H20 non d ame      -5.079  10.921  66.513  0.00  0.00     0.087 H 
ENDROOT
BRANCH   1   3
ATOM      3  N4  non d ame      -5.590   8.935  66.272  0.00  0.00    -0.346 N 
ATOM      4  C10 non d ame      -4.854   8.550  67.531  0.00  0.00     0.241 C 
ATOM      5  O4  non d ame      -4.440   9.387  68.263  0.00  0.00    -0.271 OA
ATOM      6  H19 non d ame      -5.948   8.238  65.634  0.00  0.00     0.163 HD
BRANCH   4   7
ATOM      7  C9  non d ame      -4.647   7.095  67.857  0.00  0.00     0.092 C 
ATOM      8  H11 non d ame      -3.971   7.010  68.708  0.00  0.00     0.088 H 
BRANCH   7   9
ATOM      9  N3  non d ame      -5.924   6.497  68.257  0.00  0.00    -0.346 N 
ATOM     10  C7  non d ame      -6.215   6.287  69.655  0.00  0.00     0.240 C 
ATOM     11  O3  non d ame      -5.432   6.592  70.469  0.00  0.00    -0.271 OA
ATOM     12  H10 non d ame      -6.608   6.227  67.566  0.00  0.00     0.163 HD
BRANCH  10  13
ATOM     13  C6  non d ame      -7.575   5.647  70.074  0.00  0.00     0.086 C 
ATOM     14  H6  non d ame      -7.532   5.170  71.053  0.00  0.00     0.086 H 
BRANCH  13  15
ATOM     15  N2  non d ame      -8.579   6.694  70.166  0.00  0.00    -0.343 N 
ATOM     16  C5  non d ame      -9.468   6.741  71.329  0.00  0.00     0.273 C 
ATOM     17  O2  non d ame      -9.369   5.931  72.184  0.00  0.00    -0.266 OA
ATOM     18  H5  non d ame      -8.659   7.380  69.429  0.00  0.00     0.163 HD
BRANCH  16  19
ATOM     19  C4  non d ame     -10.534   7.842  71.439  0.00  0.00     0.154 A 
ATOM     20  C1  non d ame     -10.621   9.042  70.664  0.00  0.00    -0.017 A 
ATOM     21  C2  non d ame     -11.769   9.707  71.150  0.00  0.00     0.077 A 
ATOM     22  H1  non d ame      -9.954   9.378  69.870  0.00  0.00     0.091 H 
ATOM     23  O1  non d ame     -12.275   8.966  72.093  0.00  0.00    -0.218 OA
ATOM     24  N1  non d ame     -11.572   7.873  72.280  0.00  0.00    -0.123 NA
BRANCH  21  25
ATOM     25  C3  non d ame     -12.313  11.042  70.660  0.00  0.00    -0.029 C 
ATOM     26  H2  non d ame     -11.846  11.853  71.219  0.00  0.00     0.036 H 
ATOM     27  H3  non d ame     -12.091  11.157  69.599  0.00  0.00     0.036 H 
ATOM     28  H4  non d ame     -13.393  11.072  70.810  0.00  0.00     0.036 H 
ENDBRANCH  21  25
ENDBRANCH  16  19
ENDBRANCH  13  15
BRANCH  13  29
ATOM     29  C8  non d ame      -7.988   4.622  69.050  0.00  0.00    -0.049 C 
ATOM     30  H7  non d ame      -7.670   3.632  69.377  0.00  0.00     0.030 H 
ATOM     31  H8  non d ame      -9.073   4.636  68.939  0.00  0.00     0.030 H 
ATOM     32  H9  non d ame      -7.521   4.855  68.093  0.00  0.00     0.030 H 
ENDBRANCH  13  29
ENDBRANCH  10  13
ENDBRANCH   7   9
BRANCH   7  33
ATOM     33  C11 non d ame      -4.102   6.354  66.601  0.00  0.00    -0.033 C 
ATOM     34  H12 non d ame      -4.768   6.584  65.769  0.00  0.00     0.042 H 
BRANCH  33  35
ATOM     35  C12 non d ame      -2.677   6.862  66.215  0.00  0.00    -0.071 C 
ATOM     36  H13 non d ame      -2.765   7.688  65.509  0.00  0.00     0.028 H 
ATOM     37  H14 non d ame      -2.159   7.203  67.111  0.00  0.00     0.028 H 
ATOM     38  H15 non d ame      -2.114   6.049  65.756  0.00  0.00     0.028 H 
ENDBRANCH  33  35
BRANCH  33  39
ATOM     39  C13 non d ame      -4.113   4.806  66.815  0.00  0.00    -0.071 C 
ATOM     40  H16 non d ame      -3.633   4.319  65.967  0.00  0.00     0.028 H 
ATOM     41  H17 non d ame      -3.570   4.562  67.729  0.00  0.00     0.028 H 
ATOM     42  H18 non d ame      -5.142   4.459  66.900  0.00  0.00     0.028 H 
ENDBRANCH  33  39
ENDBRANCH   7  33
ENDBRANCH   4   7
ENDBRANCH   1   3
BRANCH   1  43
ATOM     43  C15 non d ame      -7.270  10.711  66.302  0.00  0.00     0.240 C 
ATOM     44  O5  non d ame      -7.506  11.760  66.810  0.00  0.00    -0.271 OA
ATOM     45  N6  non d ame      -8.383   9.765  66.004  0.00  0.00    -0.355 N 
ATOM     46  H46 non d ame      -8.196   8.874  65.568  0.00  0.00     0.162 HD
BRANCH  45  47
ATOM     47  C20 non d ame      -9.773  10.137  66.348  0.00  0.00     0.013 C 
ATOM     48  H30 non d ame      -9.734  11.001  67.011  0.00  0.00     0.072 H 
BRANCH  47  49
ATOM     49  C21 non d ame     -10.440   8.976  67.051  0.00  0.00    -0.038 C 
ATOM     50  H31 non d ame     -10.345   9.182  68.117  0.00  0.00     0.036 H 
ATOM     51  H32 non d ame     -11.429   8.888  66.598  0.00  0.00     0.036 H 
BRANCH  49  52
ATOM     52  C22 non d ame      -9.724   7.631  66.800  0.00  0.00     0.018 C 
ATOM     53  H33 non d ame      -9.518   7.602  65.730  0.00  0.00     0.048 H 
ATOM     54  H34 non d ame      -8.901   7.598  67.514  0.00  0.00     0.048 H 
BRANCH  52  55
ATOM     55  C23 non d ame     -10.605   6.387  67.101  0.00  0.00     0.259 C 
ATOM     56  O7  non d ame     -11.085   6.235  68.177  0.00  0.00    -0.265 OA
BRANCH  55  57
ATOM     57  O8  non d ame     -10.821   5.422  66.079  0.00  0.00    -0.317 OA
BRANCH  57  58
ATOM     58  C29 non d ame      -9.777   4.450  65.965  0.00  0.00     0.052 C 
ATOM     59  H47 non d ame      -9.251   4.470  66.920  0.00  0.00     0.082 H 
ATOM     60  H48 non d ame     -10.263   3.534  65.630  0.00  0.00     0.082 H 
BRANCH  58  61
ATOM     61  C35 non d ame      -8.801   4.923  64.856  0.00  0.00    -0.034 A 
ATOM     62  C30 non d ame      -9.198   4.903  63.523  0.00  0.00    -0.075 A 
ATOM     63  C31 non d ame      -8.321   5.327  62.526  0.00  0.00    -0.082 A 
ATOM     64  H49 non d ame     -10.197   4.555  63.259  0.00  0.00     0.084 H 
ATOM     65  C32 non d ame      -7.040   5.770  62.866  0.00  0.00    -0.083 A 
ATOM     66  H50 non d ame      -8.636   5.313  61.483  0.00  0.00     0.083 H 
ATOM     67  C33 non d ame      -6.646   5.785  64.198  0.00  0.00    -0.082 A 
ATOM     68  H51 non d ame      -6.348   6.104  62.093  0.00  0.00     0.083 H 
ATOM     69  C34 non d ame      -7.521   5.364  65.197  0.00  0.00    -0.075 A 
ATOM     70  H52 non d ame      -5.645   6.129  64.460  0.00  0.00     0.083 H 
ATOM     71  H53 non d ame      -7.205   5.380  66.241  0.00  0.00     0.084 H 
ENDBRANCH  58  61
ENDBRANCH  57  58
ENDBRANCH  55  57
ENDBRANCH  52  55
ENDBRANCH  49  52
ENDBRANCH  47  49
BRANCH  47  72
ATOM     72  C24 non d ame     -10.547  10.477  65.077  0.00  0.00    -0.039 C 
ATOM     73  H35 non d ame     -10.097   9.869  64.292  0.00  0.00     0.036 H 
ATOM     74  H36 non d ame     -11.598  10.346  65.333  0.00  0.00     0.036 H 
BRANCH  72  75
ATOM     75  C25 non d ame     -10.352  12.011  64.657  0.00  0.00    -0.001 C 
ATOM     76  C26 non d ame     -11.179  12.985  65.692  0.00  0.00    -0.035 C 
ATOM     77  C27 non d ame     -11.955  13.829  64.970  0.00  0.00     0.085 C 
ATOM     78  H38 non d ame     -11.900  12.399  66.261  0.00  0.00     0.036 H 
ATOM     79  H39 non d ame     -10.489  13.652  66.209  0.00  0.00     0.036 H 
ATOM     80  N5  non d ame     -11.982  13.303  63.555  0.00  0.00    -0.049 N 
ATOM     81  H40 non d ame     -12.954  13.745  65.400  0.00  0.00     0.075 H 
ATOM     82  H41 non d ame     -11.435  14.786  64.984  0.00  0.00     0.075 H 
ATOM     83  C28 non d ame     -10.783  12.226  63.459  0.00  0.00     0.193 C 
ATOM     84  H42 non d ame     -12.861  12.817  63.447  0.00  0.00     0.280 HD
ATOM     85  H43 non d ame     -11.760  14.085  62.956  0.00  0.00     0.280 HD
ATOM     86  H44 non d ame      -9.850  12.480  62.955  0.00  0.00     0.129 H 
ATOM     87  H37 non d ame      -9.306  12.258  64.472  0.00  0.00     0.046 H 
BRANCH  83  88
ATOM     88  O6  non d ame     -11.245  11.030  62.829  0.00  0.00    -0.369 OA
ATOM     89  H45 non d ame     -10.511  10.420  62.724  0.00  0.00     0.212 HD
ENDBRANCH  83  88
ENDBRANCH  72  75
ENDBRANCH  47  72
ENDBRANCH  45  47
ENDBRANCH   1  43
BRANCH   1  90
ATOM     90  C16 non d ame      -5.572  10.539  64.456  0.00  0.00    -0.035 C 
ATOM     91  H21 non d ame      -6.306  11.285  64.148  0.00  0.00     0.037 H 
ATOM     92  H22 non d ame      -4.507  10.748  64.354  0.00  0.00     0.037 H 
BRANCH  90  93
ATOM     93  C17 non d ame      -5.855   9.264  63.599  0.00  0.00    -0.059 C 
ATOM     94  H23 non d ame      -6.152   8.467  64.280  0.00  0.00     0.038 H 
BRANCH  93  95
ATOM     95  C18 non d ame      -7.023   9.483  62.584  0.00  0.00    -0.073 C 
ATOM     96  H24 non d ame      -6.612   9.642  61.587  0.00  0.00     0.028 H 
ATOM     97  H25 non d ame      -7.667   8.603  62.576  0.00  0.00     0.028 H 
ATOM     98  H26 non d ame      -7.604  10.356  62.882  0.00  0.00     0.028 H 
ENDBRANCH  93  95
BRANCH  93  99
ATOM     99  C19 non d ame      -4.588   8.797  62.878  0.00  0.00    -0.073 C 
ATOM    100  H27 non d ame      -3.782   8.675  63.602  0.00  0.00     0.028 H 
ATOM    101  H28 non d ame      -4.781   7.845  62.384  0.00  0.00     0.028 H 
ATOM    102  H29 non d ame      -4.299   9.540  62.134  0.00  0.00     0.028 H 
ENDBRANCH  93  99
ENDBRANCH  90  93
ENDBRANCH   1  90
TORSDOF 26
ENDMDL
MODEL 15
REMARK VINA RESULT:      -6.5      2.600      6.288
REMARK  26 active torsions:
REMARK  status: ('A' for Active; 'I' for Inactive)
REMARK    1  A    between atoms: C2_2  and  C3_3 
REMARK    2  A    between atoms: C4_6  and  C5_7 
REMARK       I    between atoms: C5_7  and  N2_9 
REMARK    3  A    between atoms: N2_9  and  C6_10 
REMARK    4  A    between atoms: C6_10  and  C7_11 
REMARK    5  A    between atoms: C6_10  and  C8_13 
REMARK       I    between atoms: C7_11  and  N3_14 
REMARK    6  A    between atoms: N3_14  and  C9_15 
REMARK    7  A    between atoms: C9_15  and  C10_16 
REMARK    8  A    between atoms: C9_15  and  C11_18 
REMARK       I    between atoms: C10_16  and  N4_21 
REMARK    9  A    between atoms: C11_18  and  C12_19 
REMARK   10  A    between atoms: C11_18  and  C13_20 
REMARK   11  A    between atoms: N4_21  and  C14_22 
REMARK   12  A    between atoms: C14_22  and  C15_23 
REMARK   13  A    between atoms: C14_22  and  C16_25 
REMARK       I    between atoms: C15_23  and  N6_40 
REMARK   14  A    between atoms: C16_25  and  C17_26 
REMARK   15  A    between atoms: C17_26  and  C18_27 
REMARK   16  A    between atoms: C17_26  and  C19_28 
REMARK   17  A    between atoms: C20_29  and  C21_30 
REMARK   18  A    between atoms: C20_29  and  C24_33 
REMARK   19  A    between atoms: C20_29  and  N6_40 
REMARK   20  A    between atoms: C21_30  and  C22_31 
REMARK   21  A    between atoms: C22_31  and  C23_32 
REMARK   22  A    between atoms: C23_32  and  O8_43 
REMARK   23  A    between atoms: C24_33  and  C25_34 
REMARK   24  A    between atoms: C28_38  and  O6_39 
REMARK   25  A    between atoms: C29_42  and  O8_43 
REMARK   26  A    between atoms: C29_42  and  C35_49 
ROOT
ATOM      1  C14 non d ame      -8.881   9.562  69.685  0.00  0.00     0.089 C 
ATOM      2  H20 non d ame      -8.341   8.931  70.391  0.00  0.00     0.087 H 
ENDROOT
BRANCH   1   3
ATOM      3  N4  non d ame      -8.164  10.824  69.587  0.00  0.00    -0.346 N 
ATOM      4  C10 non d ame      -6.676  10.875  69.821  0.00  0.00     0.241 C 
ATOM      5  O4  non d ame      -6.077   9.887  70.091  0.00  0.00    -0.271 OA
ATOM      6  H19 non d ame      -8.693  11.655  69.359  0.00  0.00     0.163 HD
BRANCH   4   7
ATOM      7  C9  non d ame      -5.949  12.190  69.710  0.00  0.00     0.092 C 
ATOM      8  H11 non d ame      -5.302  12.168  68.834  0.00  0.00     0.088 H 
BRANCH   7   9
ATOM      9  N3  non d ame      -6.919  13.269  69.507  0.00  0.00    -0.346 N 
ATOM     10  C7  non d ame      -7.039  13.896  68.213  0.00  0.00     0.240 C 
ATOM     11  O3  non d ame      -6.362  13.545  67.326  0.00  0.00    -0.271 OA
ATOM     12  H10 non d ame      -7.509  13.584  70.264  0.00  0.00     0.163 HD
BRANCH  10  13
ATOM     13  C6  non d ame      -8.071  15.047  68.004  0.00  0.00     0.086 C 
ATOM     14  H6  non d ame      -8.616  14.959  67.064  0.00  0.00     0.086 H 
BRANCH  13  15
ATOM     15  N2  non d ame      -9.063  14.990  69.066  0.00  0.00    -0.343 N 
ATOM     16  C5  non d ame     -10.460  15.312  68.766  0.00  0.00     0.273 C 
ATOM     17  O2  non d ame     -10.775  15.617  67.669  0.00  0.00    -0.266 OA
ATOM     18  H5  non d ame      -8.783  14.731  70.001  0.00  0.00     0.163 HD
BRANCH  16  19
ATOM     19  C4  non d ame     -11.518  15.254  69.878  0.00  0.00     0.154 A 
ATOM     20  C1  non d ame     -12.214  14.096  70.351  0.00  0.00    -0.017 A 
ATOM     21  C2  non d ame     -13.067  14.576  71.370  0.00  0.00     0.077 A 
ATOM     22  H1  non d ame     -12.114  13.066  70.008  0.00  0.00     0.091 H 
ATOM     23  O1  non d ame     -12.876  15.859  71.464  0.00  0.00    -0.218 OA
ATOM     24  N1  non d ame     -11.977  16.278  70.603  0.00  0.00    -0.123 NA
BRANCH  21  25
ATOM     25  C3  non d ame     -14.032  13.743  72.204  0.00  0.00    -0.029 C 
ATOM     26  H2  non d ame     -15.017  14.211  72.197  0.00  0.00     0.036 H 
ATOM     27  H3  non d ame     -14.103  12.740  71.783  0.00  0.00     0.036 H 
ATOM     28  H4  non d ame     -13.666  13.682  73.229  0.00  0.00     0.036 H 
ENDBRANCH  21  25
ENDBRANCH  16  19
ENDBRANCH  13  15
BRANCH  13  29
ATOM     29  C8  non d ame      -7.360  16.376  68.032  0.00  0.00    -0.049 C 
ATOM     30  H7  non d ame      -6.661  16.432  67.197  0.00  0.00     0.030 H 
ATOM     31  H8  non d ame      -8.090  17.181  67.950  0.00  0.00     0.030 H 
ATOM     32  H9  non d ame      -6.813  16.474  68.970  0.00  0.00     0.030 H 
ENDBRANCH  13  29
ENDBRANCH  10  13
ENDBRANCH   7   9
BRANCH   7  33
ATOM     33  C11 non d ame      -5.151  12.453  71.021  0.00  0.00    -0.033 C 
ATOM     34  H12 non d ame      -5.380  11.643  71.714  0.00  0.00     0.042 H 
BRANCH  33  35
ATOM     35  C12 non d ame      -3.612  12.428  70.764  0.00  0.00    -0.071 C 
ATOM     36  H13 non d ame      -3.396  11.781  69.914  0.00  0.00     0.028 H 
ATOM     37  H14 non d ame      -3.263  13.438  70.549  0.00  0.00     0.028 H 
ATOM     38  H15 non d ame      -3.102  12.049  71.649  0.00  0.00     0.028 H 
ENDBRANCH  33  35
BRANCH  33  39
ATOM     39  C13 non d ame      -5.593  13.797  71.684  0.00  0.00    -0.071 C 
ATOM     40  H16 non d ame      -6.030  14.449  70.929  0.00  0.00     0.028 H 
ATOM     41  H17 non d ame      -6.332  13.593  72.460  0.00  0.00     0.028 H 
ATOM     42  H18 non d ame      -4.725  14.285  72.128  0.00  0.00     0.028 H 
ENDBRANCH  33  39
ENDBRANCH   7  33
ENDBRANCH   4   7
ENDBRANCH   1   3
BRANCH   1  43
ATOM     43  C15 non d ame      -8.958   8.925  68.268  0.00  0.00     0.240 C 
ATOM     44  O5  non d ame      -9.981   8.948  67.664  0.00  0.00    -0.271 OA
ATOM     45  N6  non d ame      -7.752   8.293  67.660  0.00  0.00    -0.355 N 
ATOM     46  H46 non d ame      -6.876   8.271  68.161  0.00  0.00     0.162 HD
BRANCH  45  47
ATOM     47  C20 non d ame      -7.841   7.692  66.311  0.00  0.00     0.013 C 
ATOM     48  H30 non d ame      -7.163   6.840  66.278  0.00  0.00     0.072 H 
BRANCH  47  49
ATOM     49  C21 non d ame      -7.430   8.719  65.279  0.00  0.00    -0.038 C 
ATOM     50  H31 non d ame      -8.223   9.467  65.276  0.00  0.00     0.036 H 
ATOM     51  H32 non d ame      -6.411   9.005  65.539  0.00  0.00     0.036 H 
BRANCH  49  52
ATOM     52  C22 non d ame      -7.371   8.140  63.849  0.00  0.00     0.018 C 
ATOM     53  H33 non d ame      -6.311   8.051  63.610  0.00  0.00     0.048 H 
ATOM     54  H34 non d ame      -8.003   7.252  63.863  0.00  0.00     0.048 H 
BRANCH  52  55
ATOM     55  C23 non d ame      -7.976   9.079  62.768  0.00  0.00     0.259 C 
ATOM     56  O7  non d ame      -7.353   9.358  61.795  0.00  0.00    -0.265 OA
BRANCH  55  57
ATOM     57  O8  non d ame      -9.280   9.613  62.960  0.00  0.00    -0.317 OA
BRANCH  57  58
ATOM     58  C29 non d ame      -9.357  11.033  62.805  0.00  0.00     0.052 C 
ATOM     59  H47 non d ame      -8.347  11.403  62.981  0.00  0.00     0.082 H 
ATOM     60  H48 non d ame      -9.838  11.199  61.841  0.00  0.00     0.082 H 
BRANCH  58  61
ATOM     61  C35 non d ame     -10.285  11.587  63.918  0.00  0.00    -0.034 A 
ATOM     62  C30 non d ame      -9.857  11.593  65.242  0.00  0.00    -0.075 A 
ATOM     63  C31 non d ame     -10.690  12.091  66.243  0.00  0.00    -0.082 A 
ATOM     64  H49 non d ame      -8.869  11.209  65.496  0.00  0.00     0.084 H 
ATOM     65  C32 non d ame     -11.958  12.581  65.916  0.00  0.00    -0.083 A 
ATOM     66  H50 non d ame     -10.352  12.097  67.279  0.00  0.00     0.083 H 
ATOM     67  C33 non d ame     -12.381  12.570  64.594  0.00  0.00    -0.082 A 
ATOM     68  H51 non d ame     -12.615  12.973  66.692  0.00  0.00     0.083 H 
ATOM     69  C34 non d ame     -11.551  12.076  63.590  0.00  0.00    -0.075 A 
ATOM     70  H52 non d ame     -13.371  12.951  64.342  0.00  0.00     0.083 H 
ATOM     71  H53 non d ame     -11.890  12.071  62.554  0.00  0.00     0.084 H 
ENDBRANCH  58  61
ENDBRANCH  57  58
ENDBRANCH  55  57
ENDBRANCH  52  55
ENDBRANCH  49  52
ENDBRANCH  47  49
BRANCH  47  72
ATOM     72  C24 non d ame      -9.275   7.242  66.039  0.00  0.00    -0.039 C 
ATOM     73  H35 non d ame      -9.883   7.739  66.795  0.00  0.00     0.036 H 
ATOM     74  H36 non d ame      -9.447   7.443  64.982  0.00  0.00     0.036 H 
BRANCH  72  75
ATOM     75  C25 non d ame      -9.451   5.664  66.255  0.00  0.00    -0.001 C 
ATOM     76  C26 non d ame      -9.031   4.861  64.883  0.00  0.00    -0.035 C 
ATOM     77  C27 non d ame     -10.032   4.011  64.551  0.00  0.00     0.085 C 
ATOM     78  H38 non d ame      -8.994   5.553  64.042  0.00  0.00     0.036 H 
ATOM     79  H39 non d ame      -8.189   4.198  65.080  0.00  0.00     0.036 H 
ATOM     80  N5  non d ame     -11.232   4.396  65.383  0.00  0.00    -0.049 N 
ATOM     81  H40 non d ame     -10.249   4.212  63.501  0.00  0.00     0.075 H 
ATOM     82  H41 non d ame      -9.690   3.024  64.858  0.00  0.00     0.075 H 
ATOM     83  C28 non d ame     -10.673   5.365  66.546  0.00  0.00     0.193 C 
ATOM     84  H42 non d ame     -11.838   4.934  64.780  0.00  0.00     0.280 HD
ATOM     85  H43 non d ame     -11.570   3.545  65.809  0.00  0.00     0.280 HD
ATOM     86  H44 non d ame     -10.549   4.995  67.564  0.00  0.00     0.129 H 
ATOM     87  H37 non d ame      -9.001   5.322  67.187  0.00  0.00     0.046 H 
BRANCH  83  88
ATOM     88  O6  non d ame     -11.499   6.526  66.660  0.00  0.00    -0.369 OA
ATOM     89  H45 non d ame     -12.378   6.266  66.942  0.00  0.00     0.212 HD
ENDBRANCH  83  88
ENDBRANCH  72  75
ENDBRANCH  47  72
ENDBRANCH  45  47
ENDBRANCH   1  43
BRANCH   1  90
ATOM     90  C16 non d ame     -10.286   9.828  70.202  0.00  0.00    -0.035 C 
ATOM     91  H21 non d ame     -10.244  10.819  70.654  0.00  0.00     0.037 H 
ATOM     92  H22 non d ame     -10.946   9.644  69.354  0.00  0.00     0.037 H 
BRANCH  90  93
ATOM     93  C17 non d ame     -10.734   8.846  71.331  0.00  0.00    -0.059 C 
ATOM     94  H23 non d ame     -11.414   9.387  71.989  0.00  0.00     0.038 H 
BRANCH  93  95
ATOM     95  C18 non d ame     -11.502   7.609  70.765  0.00  0.00    -0.073 C 
ATOM     96  H24 non d ame     -11.196   6.713  71.306  0.00  0.00     0.028 H 
ATOM     97  H25 non d ame     -12.575   7.759  70.889  0.00  0.00     0.028 H 
ATOM     98  H26 non d ame     -11.272   7.491  69.706  0.00  0.00     0.028 H 
ENDBRANCH  93  95
BRANCH  93  99
ATOM     99  C19 non d ame      -9.538   8.404  72.178  0.00  0.00    -0.073 C 
ATOM    100  H27 non d ame      -8.612   8.672  71.668  0.00  0.00     0.028 H 
ATOM    101  H28 non d ame      -9.576   8.901  73.147  0.00  0.00     0.028 H 
ATOM    102  H29 non d ame      -9.574   7.324  72.322  0.00  0.00     0.028 H 
ENDBRANCH  93  99
ENDBRANCH  90  93
ENDBRANCH   1  90
TORSDOF 26
ENDMDL
MODEL 16
REMARK VINA RESULT:      -6.4      2.802      5.034
REMARK  26 active torsions:
REMARK  status: ('A' for Active; 'I' for Inactive)
REMARK    1  A    between atoms: C2_2  and  C3_3 
REMARK    2  A    between atoms: C4_6  and  C5_7 
REMARK       I    between atoms: C5_7  and  N2_9 
REMARK    3  A    between atoms: N2_9  and  C6_10 
REMARK    4  A    between atoms: C6_10  and  C7_11 
REMARK    5  A    between atoms: C6_10  and  C8_13 
REMARK       I    between atoms: C7_11  and  N3_14 
REMARK    6  A    between atoms: N3_14  and  C9_15 
REMARK    7  A    between atoms: C9_15  and  C10_16 
REMARK    8  A    between atoms: C9_15  and  C11_18 
REMARK       I    between atoms: C10_16  and  N4_21 
REMARK    9  A    between atoms: C11_18  and  C12_19 
REMARK   10  A    between atoms: C11_18  and  C13_20 
REMARK   11  A    between atoms: N4_21  and  C14_22 
REMARK   12  A    between atoms: C14_22  and  C15_23 
REMARK   13  A    between atoms: C14_22  and  C16_25 
REMARK       I    between atoms: C15_23  and  N6_40 
REMARK   14  A    between atoms: C16_25  and  C17_26 
REMARK   15  A    between atoms: C17_26  and  C18_27 
REMARK   16  A    between atoms: C17_26  and  C19_28 
REMARK   17  A    between atoms: C20_29  and  C21_30 
REMARK   18  A    between atoms: C20_29  and  C24_33 
REMARK   19  A    between atoms: C20_29  and  N6_40 
REMARK   20  A    between atoms: C21_30  and  C22_31 
REMARK   21  A    between atoms: C22_31  and  C23_32 
REMARK   22  A    between atoms: C23_32  and  O8_43 
REMARK   23  A    between atoms: C24_33  and  C25_34 
REMARK   24  A    between atoms: C28_38  and  O6_39 
REMARK   25  A    between atoms: C29_42  and  O8_43 
REMARK   26  A    between atoms: C29_42  and  C35_49 
ROOT
ATOM      1  C14 non d ame      -7.588  11.215  68.588  0.00  0.00     0.089 C 
ATOM      2  H20 non d ame      -6.794  11.937  68.783  0.00  0.00     0.087 H 
ENDROOT
BRANCH   1   3
ATOM      3  N4  non d ame      -7.231  10.489  67.378  0.00  0.00    -0.346 N 
ATOM      4  C10 non d ame      -5.991  10.860  66.605  0.00  0.00     0.241 C 
ATOM      5  O4  non d ame      -5.296  11.748  66.974  0.00  0.00    -0.271 OA
ATOM      6  H19 non d ame      -7.836   9.738  67.079  0.00  0.00     0.163 HD
BRANCH   4   7
ATOM      7  C9  non d ame      -5.634  10.094  65.358  0.00  0.00     0.092 C 
ATOM      8  H11 non d ame      -5.805   9.031  65.529  0.00  0.00     0.088 H 
BRANCH   7   9
ATOM      9  N3  non d ame      -6.516  10.505  64.262  0.00  0.00    -0.346 N 
ATOM     10  C7  non d ame      -7.689   9.725  63.951  0.00  0.00     0.240 C 
ATOM     11  O3  non d ame      -7.937   8.764  64.571  0.00  0.00    -0.271 OA
ATOM     12  H10 non d ame      -6.315  11.330  63.717  0.00  0.00     0.163 HD
BRANCH  10  13
ATOM     13  C6  non d ame      -8.623  10.165  62.781  0.00  0.00     0.086 C 
ATOM     14  H6  non d ame      -9.489   9.514  62.665  0.00  0.00     0.086 H 
BRANCH  13  15
ATOM     15  N2  non d ame      -9.138  11.495  63.064  0.00  0.00    -0.343 N 
ATOM     16  C5  non d ame     -10.298  11.646  63.945  0.00  0.00     0.273 C 
ATOM     17  O2  non d ame     -10.812  10.693  64.419  0.00  0.00    -0.266 OA
ATOM     18  H5  non d ame      -8.695  12.304  62.653  0.00  0.00     0.163 HD
BRANCH  16  19
ATOM     19  C4  non d ame     -10.852  13.046  64.255  0.00  0.00     0.154 A 
ATOM     20  C1  non d ame     -10.148  14.145  64.841  0.00  0.00    -0.017 A 
ATOM     21  C2  non d ame     -11.096  15.189  64.910  0.00  0.00     0.077 A 
ATOM     22  H1  non d ame      -9.108  14.179  65.166  0.00  0.00     0.091 H 
ATOM     23  O1  non d ame     -12.211  14.734  64.418  0.00  0.00    -0.218 OA
ATOM     24  N1  non d ame     -12.094  13.485  64.029  0.00  0.00    -0.123 NA
BRANCH  21  25
ATOM     25  C3  non d ame     -10.857  16.590  65.459  0.00  0.00    -0.029 C 
ATOM     26  H2  non d ame      -9.786  16.757  65.575  0.00  0.00     0.036 H 
ATOM     27  H3  non d ame     -11.266  17.326  64.767  0.00  0.00     0.036 H 
ATOM     28  H4  non d ame     -11.347  16.690  66.427  0.00  0.00     0.036 H 
ENDBRANCH  21  25
ENDBRANCH  16  19
ENDBRANCH  13  15
BRANCH  13  29
ATOM     29  C8  non d ame      -7.845  10.177  61.490  0.00  0.00    -0.049 C 
ATOM     30  H7  non d ame      -8.048   9.262  60.934  0.00  0.00     0.030 H 
ATOM     31  H8  non d ame      -8.144  11.039  60.893  0.00  0.00     0.030 H 
ATOM     32  H9  non d ame      -6.779  10.239  61.709  0.00  0.00     0.030 H 
ENDBRANCH  13  29
ENDBRANCH  10  13
ENDBRANCH   7   9
BRANCH   7  33
ATOM     33  C11 non d ame      -4.156  10.393  64.971  0.00  0.00    -0.033 C 
ATOM     34  H12 non d ame      -3.769  11.117  65.687  0.00  0.00     0.042 H 
BRANCH  33  35
ATOM     35  C12 non d ame      -3.270   9.112  65.073  0.00  0.00    -0.071 C 
ATOM     36  H13 non d ame      -2.220   9.389  64.984  0.00  0.00     0.028 H 
ATOM     37  H14 non d ame      -3.438   8.631  66.036  0.00  0.00     0.028 H 
ATOM     38  H15 non d ame      -3.534   8.424  64.271  0.00  0.00     0.028 H 
ENDBRANCH  33  35
BRANCH  33  39
ATOM     39  C13 non d ame      -4.069  11.029  63.546  0.00  0.00    -0.071 C 
ATOM     40  H16 non d ame      -3.024  11.125  63.254  0.00  0.00     0.028 H 
ATOM     41  H17 non d ame      -4.590  10.391  62.831  0.00  0.00     0.028 H 
ATOM     42  H18 non d ame      -4.535  12.015  63.560  0.00  0.00     0.028 H 
ENDBRANCH  33  39
ENDBRANCH   7  33
ENDBRANCH   4   7
ENDBRANCH   1   3
BRANCH   1  43
ATOM     43  C15 non d ame      -7.750  10.193  69.749  0.00  0.00     0.240 C 
ATOM     44  O5  non d ame      -6.982  10.202  70.656  0.00  0.00    -0.271 OA
ATOM     45  N6  non d ame      -8.870   9.209  69.735  0.00  0.00    -0.355 N 
ATOM     46  H46 non d ame      -9.532   9.196  68.973  0.00  0.00     0.162 HD
BRANCH  45  47
ATOM     47  C20 non d ame      -9.012   8.245  70.848  0.00  0.00     0.013 C 
ATOM     48  H30 non d ame      -8.033   8.120  71.310  0.00  0.00     0.072 H 
BRANCH  47  49
ATOM     49  C21 non d ame      -9.500   6.922  70.303  0.00  0.00    -0.038 C 
ATOM     50  H31 non d ame      -9.568   6.256  71.163  0.00  0.00     0.036 H 
ATOM     51  H32 non d ame     -10.392   7.154  69.721  0.00  0.00     0.036 H 
BRANCH  49  52
ATOM     52  C22 non d ame      -8.498   6.271  69.325  0.00  0.00     0.018 C 
ATOM     53  H33 non d ame      -7.615   6.909  69.338  0.00  0.00     0.048 H 
ATOM     54  H34 non d ame      -8.422   5.227  69.631  0.00  0.00     0.048 H 
BRANCH  52  55
ATOM     55  C23 non d ame      -8.988   6.249  67.850  0.00  0.00     0.259 C 
ATOM     56  O7  non d ame      -9.545   7.190  67.385  0.00  0.00    -0.265 OA
BRANCH  55  57
ATOM     57  O8  non d ame      -8.774   5.083  67.062  0.00  0.00    -0.317 OA
BRANCH  57  58
ATOM     58  C29 non d ame      -9.932   4.644  66.347  0.00  0.00     0.052 C 
ATOM     59  H47 non d ame     -10.099   3.614  66.661  0.00  0.00     0.082 H 
ATOM     60  H48 non d ame     -10.695   5.400  66.528  0.00  0.00     0.082 H 
BRANCH  58  61
ATOM     61  C35 non d ame      -9.589   4.646  64.833  0.00  0.00    -0.034 A 
ATOM     62  C30 non d ame      -8.516   5.397  64.363  0.00  0.00    -0.075 A 
ATOM     63  C31 non d ame      -8.208   5.399  63.004  0.00  0.00    -0.082 A 
ATOM     64  H49 non d ame      -7.916   5.983  65.060  0.00  0.00     0.084 H 
ATOM     65  C32 non d ame      -8.979   4.649  62.112  0.00  0.00    -0.083 A 
ATOM     66  H50 non d ame      -7.365   5.987  62.639  0.00  0.00     0.083 H 
ATOM     67  C33 non d ame     -10.051   3.904  62.585  0.00  0.00    -0.082 A 
ATOM     68  H51 non d ame      -8.744   4.645  61.047  0.00  0.00     0.083 H 
ATOM     69  C34 non d ame     -10.361   3.897  63.943  0.00  0.00    -0.075 A 
ATOM     70  H52 non d ame     -10.652   3.321  61.886  0.00  0.00     0.083 H 
ATOM     71  H53 non d ame     -11.204   3.309  64.307  0.00  0.00     0.084 H 
ENDBRANCH  58  61
ENDBRANCH  57  58
ENDBRANCH  55  57
ENDBRANCH  52  55
ENDBRANCH  49  52
ENDBRANCH  47  49
BRANCH  47  72
ATOM     72  C24 non d ame     -10.016   8.778  71.868  0.00  0.00    -0.039 C 
ATOM     73  H35 non d ame      -9.963   8.092  72.713  0.00  0.00     0.036 H 
ATOM     74  H36 non d ame      -9.762   9.829  72.003  0.00  0.00     0.036 H 
BRANCH  72  75
ATOM     75  C25 non d ame     -11.516   8.722  71.308  0.00  0.00    -0.001 C 
ATOM     76  C26 non d ame     -12.070  10.247  71.037  0.00  0.00    -0.035 C 
ATOM     77  C27 non d ame     -13.268  10.392  71.651  0.00  0.00     0.085 C 
ATOM     78  H38 non d ame     -11.434  10.971  71.544  0.00  0.00     0.036 H 
ATOM     79  H39 non d ame     -12.308  10.376  69.981  0.00  0.00     0.036 H 
ATOM     80  N5  non d ame     -13.429   9.218  72.587  0.00  0.00    -0.049 N 
ATOM     81  H40 non d ame     -13.185  11.307  72.239  0.00  0.00     0.075 H 
ATOM     82  H41 non d ame     -14.012  10.319  70.859  0.00  0.00     0.075 H 
ATOM     83  C28 non d ame     -12.308   8.143  72.148  0.00  0.00     0.193 C 
ATOM     84  H42 non d ame     -13.206   9.557  73.512  0.00  0.00     0.280 HD
ATOM     85  H43 non d ame     -14.341   8.826  72.400  0.00  0.00     0.280 HD
ATOM     86  H44 non d ame     -12.584   7.255  71.580  0.00  0.00     0.129 H 
ATOM     87  H37 non d ame     -11.628   8.002  70.497  0.00  0.00     0.046 H 
BRANCH  83  88
ATOM     88  O6  non d ame     -11.612   7.660  73.299  0.00  0.00    -0.369 OA
ATOM     89  H45 non d ame     -12.245   7.327  73.939  0.00  0.00     0.212 HD
ENDBRANCH  83  88
ENDBRANCH  72  75
ENDBRANCH  47  72
ENDBRANCH  45  47
ENDBRANCH   1  43
BRANCH   1  90
ATOM     90  C16 non d ame      -8.902  11.944  68.360  0.00  0.00    -0.035 C 
ATOM     91  H21 non d ame      -9.317  11.512  67.449  0.00  0.00     0.037 H 
ATOM     92  H22 non d ame      -9.447  11.858  69.300  0.00  0.00     0.037 H 
BRANCH  90  93
ATOM     93  C17 non d ame      -8.732  13.472  68.086  0.00  0.00    -0.059 C 
ATOM     94  H23 non d ame      -8.593  13.603  67.013  0.00  0.00     0.038 H 
BRANCH  93  95
ATOM     95  C18 non d ame      -9.996  14.290  68.505  0.00  0.00    -0.073 C 
ATOM     96  H24 non d ame     -10.157  15.099  67.793  0.00  0.00     0.028 H 
ATOM     97  H25 non d ame     -10.867  13.634  68.513  0.00  0.00     0.028 H 
ATOM     98  H26 non d ame      -9.846  14.706  69.501  0.00  0.00     0.028 H 
ENDBRANCH  93  95
BRANCH  93  99
ATOM     99  C19 non d ame      -7.479  14.015  68.777  0.00  0.00    -0.073 C 
ATOM    100  H27 non d ame      -7.545  15.101  68.849  0.00  0.00     0.028 H 
ATOM    101  H28 non d ame      -7.403  13.589  69.778  0.00  0.00     0.028 H 
ATOM    102  H29 non d ame      -6.597  13.741  68.199  0.00  0.00     0.028 H 
ENDBRANCH  93  99
ENDBRANCH  90  93
ENDBRANCH   1  90
TORSDOF 26
ENDMDL
MODEL 17
REMARK VINA RESULT:      -6.4      2.802      6.505
REMARK  26 active torsions:
REMARK  status: ('A' for Active; 'I' for Inactive)
REMARK    1  A    between atoms: C2_2  and  C3_3 
REMARK    2  A    between atoms: C4_6  and  C5_7 
REMARK       I    between atoms: C5_7  and  N2_9 
REMARK    3  A    between atoms: N2_9  and  C6_10 
REMARK    4  A    between atoms: C6_10  and  C7_11 
REMARK    5  A    between atoms: C6_10  and  C8_13 
REMARK       I    between atoms: C7_11  and  N3_14 
REMARK    6  A    between atoms: N3_14  and  C9_15 
REMARK    7  A    between atoms: C9_15  and  C10_16 
REMARK    8  A    between atoms: C9_15  and  C11_18 
REMARK       I    between atoms: C10_16  and  N4_21 
REMARK    9  A    between atoms: C11_18  and  C12_19 
REMARK   10  A    between atoms: C11_18  and  C13_20 
REMARK   11  A    between atoms: N4_21  and  C14_22 
REMARK   12  A    between atoms: C14_22  and  C15_23 
REMARK   13  A    between atoms: C14_22  and  C16_25 
REMARK       I    between atoms: C15_23  and  N6_40 
REMARK   14  A    between atoms: C16_25  and  C17_26 
REMARK   15  A    between atoms: C17_26  and  C18_27 
REMARK   16  A    between atoms: C17_26  and  C19_28 
REMARK   17  A    between atoms: C20_29  and  C21_30 
REMARK   18  A    between atoms: C20_29  and  C24_33 
REMARK   19  A    between atoms: C20_29  and  N6_40 
REMARK   20  A    between atoms: C21_30  and  C22_31 
REMARK   21  A    between atoms: C22_31  and  C23_32 
REMARK   22  A    between atoms: C23_32  and  O8_43 
REMARK   23  A    between atoms: C24_33  and  C25_34 
REMARK   24  A    between atoms: C28_38  and  O6_39 
REMARK   25  A    between atoms: C29_42  and  O8_43 
REMARK   26  A    between atoms: C29_42  and  C35_49 
ROOT
ATOM      1  C14 non d ame     -10.580   9.925  69.670  0.00  0.00     0.089 C 
ATOM      2  H20 non d ame     -10.714   8.919  69.271  0.00  0.00     0.087 H 
ENDROOT
BRANCH   1   3
ATOM      3  N4  non d ame      -9.151  10.196  69.705  0.00  0.00    -0.346 N 
ATOM      4  C10 non d ame      -8.262   9.743  68.574  0.00  0.00     0.241 C 
ATOM      5  O4  non d ame      -8.719   9.158  67.648  0.00  0.00    -0.271 OA
ATOM      6  H19 non d ame      -8.781  10.693  70.503  0.00  0.00     0.163 HD
BRANCH   4   7
ATOM      7  C9  non d ame      -6.785  10.037  68.624  0.00  0.00     0.092 C 
ATOM      8  H11 non d ame      -6.388  10.052  67.609  0.00  0.00     0.088 H 
BRANCH   7   9
ATOM      9  N3  non d ame      -6.572  11.371  69.193  0.00  0.00    -0.346 N 
ATOM     10  C7  non d ame      -6.320  12.493  68.323  0.00  0.00     0.240 C 
ATOM     11  O3  non d ame      -6.285  12.341  67.163  0.00  0.00    -0.271 OA
ATOM     12  H10 non d ame      -6.597  11.518  70.192  0.00  0.00     0.163 HD
BRANCH  10  13
ATOM     13  C6  non d ame      -6.090  13.910  68.934  0.00  0.00     0.086 C 
ATOM     14  H6  non d ame      -5.173  14.379  68.579  0.00  0.00     0.086 H 
BRANCH  13  15
ATOM     15  N2  non d ame      -7.184  14.780  68.533  0.00  0.00    -0.343 N 
ATOM     16  C5  non d ame      -6.958  15.792  67.499  0.00  0.00     0.273 C 
ATOM     17  O2  non d ame      -5.893  15.900  66.998  0.00  0.00    -0.266 OA
ATOM     18  H5  non d ame      -8.090  14.682  68.969  0.00  0.00     0.163 HD
BRANCH  16  19
ATOM     19  C4  non d ame      -8.106  16.717  67.064  0.00  0.00     0.154 A 
ATOM     20  C1  non d ame      -8.861  17.606  67.893  0.00  0.00    -0.017 A 
ATOM     21  C2  non d ame      -9.785  18.221  67.019  0.00  0.00     0.077 A 
ATOM     22  H1  non d ame      -8.755  17.779  68.964  0.00  0.00     0.091 H 
ATOM     23  O1  non d ame      -9.576  17.736  65.830  0.00  0.00    -0.218 OA
ATOM     24  N1  non d ame      -8.601  16.856  65.831  0.00  0.00    -0.123 NA
BRANCH  21  25
ATOM     25  C3  non d ame     -10.832  19.260  67.399  0.00  0.00    -0.029 C 
ATOM     26  H2  non d ame     -10.538  20.233  67.006  0.00  0.00     0.036 H 
ATOM     27  H3  non d ame     -11.796  18.974  66.979  0.00  0.00     0.036 H 
ATOM     28  H4  non d ame     -10.912  19.315  68.485  0.00  0.00     0.036 H 
ENDBRANCH  21  25
ENDBRANCH  16  19
ENDBRANCH  13  15
BRANCH  13  29
ATOM     29  C8  non d ame      -6.035  13.809  70.437  0.00  0.00    -0.049 C 
ATOM     30  H7  non d ame      -5.148  13.248  70.732  0.00  0.00     0.030 H 
ATOM     31  H8  non d ame      -5.992  14.810  70.868  0.00  0.00     0.030 H 
ATOM     32  H9  non d ame      -6.925  13.295  70.799  0.00  0.00     0.030 H 
ENDBRANCH  13  29
ENDBRANCH  10  13
ENDBRANCH   7   9
BRANCH   7  33
ATOM     33  C11 non d ame      -6.075   8.976  69.515  0.00  0.00    -0.033 C 
ATOM     34  H12 non d ame      -6.831   8.530  70.162  0.00  0.00     0.042 H 
BRANCH  33  35
ATOM     35  C12 non d ame      -5.460   7.830  68.653  0.00  0.00    -0.071 C 
ATOM     36  H13 non d ame      -6.193   7.495  67.918  0.00  0.00     0.028 H 
ATOM     37  H14 non d ame      -4.573   8.198  68.139  0.00  0.00     0.028 H 
ATOM     38  H15 non d ame      -5.186   6.997  69.300  0.00  0.00     0.028 H 
ENDBRANCH  33  35
BRANCH  33  39
ATOM     39  C13 non d ame      -4.994   9.643  70.425  0.00  0.00    -0.071 C 
ATOM     40  H16 non d ame      -5.098  10.727  70.378  0.00  0.00     0.028 H 
ATOM     41  H17 non d ame      -5.129   9.310  71.454  0.00  0.00     0.028 H 
ATOM     42  H18 non d ame      -4.001   9.357  70.078  0.00  0.00     0.028 H 
ENDBRANCH  33  39
ENDBRANCH   7  33
ENDBRANCH   4   7
ENDBRANCH   1   3
BRANCH   1  43
ATOM     43  C15 non d ame     -11.268  11.004  68.785  0.00  0.00     0.240 C 
ATOM     44  O5  non d ame     -11.982  10.671  67.895  0.00  0.00    -0.271 OA
ATOM     45  N6  non d ame     -11.042  12.453  69.052  0.00  0.00    -0.355 N 
ATOM     46  H46 non d ame     -10.441  12.748  69.808  0.00  0.00     0.162 HD
BRANCH  45  47
ATOM     47  C20 non d ame     -11.704  13.466  68.202  0.00  0.00     0.013 C 
ATOM     48  H30 non d ame     -12.457  12.959  67.599  0.00  0.00     0.072 H 
BRANCH  47  49
ATOM     49  C21 non d ame     -10.675  14.115  67.304  0.00  0.00    -0.038 C 
ATOM     50  H31 non d ame     -10.385  15.038  67.806  0.00  0.00     0.036 H 
ATOM     51  H32 non d ame      -9.930  13.344  67.106  0.00  0.00     0.036 H 
BRANCH  49  52
ATOM     52  C22 non d ame     -11.251  14.527  65.932  0.00  0.00     0.018 C 
ATOM     53  H33 non d ame     -12.305  14.744  66.107  0.00  0.00     0.048 H 
ATOM     54  H34 non d ame     -10.590  15.308  65.556  0.00  0.00     0.048 H 
BRANCH  52  55
ATOM     55  C23 non d ame     -11.218  13.391  64.872  0.00  0.00     0.259 C 
ATOM     56  O7  non d ame     -12.116  13.255  64.106  0.00  0.00    -0.265 OA
BRANCH  55  57
ATOM     57  O8  non d ame     -10.106  12.506  64.834  0.00  0.00    -0.317 OA
BRANCH  57  58
ATOM     58  C29 non d ame     -10.461  11.132  64.649  0.00  0.00     0.052 C 
ATOM     59  H47 non d ame     -10.342  10.663  65.626  0.00  0.00     0.082 H 
ATOM     60  H48 non d ame     -11.437  11.143  64.165  0.00  0.00     0.082 H 
BRANCH  58  61
ATOM     61  C35 non d ame      -9.435  10.500  63.671  0.00  0.00    -0.034 A 
ATOM     62  C30 non d ame      -8.980   9.202  63.882  0.00  0.00    -0.075 A 
ATOM     63  C31 non d ame      -8.058   8.634  63.004  0.00  0.00    -0.082 A 
ATOM     64  H49 non d ame      -9.347   8.630  64.735  0.00  0.00     0.084 H 
ATOM     65  C32 non d ame      -7.588   9.370  61.913  0.00  0.00    -0.083 A 
ATOM     66  H50 non d ame      -7.706   7.616  63.171  0.00  0.00     0.083 H 
ATOM     67  C33 non d ame      -8.042  10.666  61.709  0.00  0.00    -0.082 A 
ATOM     68  H51 non d ame      -6.868   8.933  61.222  0.00  0.00     0.083 H 
ATOM     69  C34 non d ame      -8.965  11.237  62.583  0.00  0.00    -0.075 A 
ATOM     70  H52 non d ame      -7.672  11.238  60.858  0.00  0.00     0.083 H 
ATOM     71  H53 non d ame      -9.317  12.255  62.415  0.00  0.00     0.084 H 
ENDBRANCH  58  61
ENDBRANCH  57  58
ENDBRANCH  55  57
ENDBRANCH  52  55
ENDBRANCH  49  52
ENDBRANCH  47  49
BRANCH  47  72
ATOM     72  C24 non d ame     -12.357  14.531  69.081  0.00  0.00    -0.039 C 
ATOM     73  H35 non d ame     -11.976  15.484  68.713  0.00  0.00     0.036 H 
ATOM     74  H36 non d ame     -13.426  14.321  69.045  0.00  0.00     0.036 H 
BRANCH  72  75
ATOM     75  C25 non d ame     -11.900  14.399  70.610  0.00  0.00    -0.001 C 
ATOM     76  C26 non d ame     -13.149  13.838  71.521  0.00  0.00    -0.035 C 
ATOM     77  C27 non d ame     -13.315  14.658  72.587  0.00  0.00     0.085 C 
ATOM     78  H38 non d ame     -14.086  13.939  70.974  0.00  0.00     0.036 H 
ATOM     79  H39 non d ame     -12.883  12.883  71.974  0.00  0.00     0.036 H 
ATOM     80  N5  non d ame     -12.510  15.905  72.313  0.00  0.00    -0.049 N 
ATOM     81  H40 non d ame     -14.375  14.914  72.596  0.00  0.00     0.075 H 
ATOM     82  H41 non d ame     -12.874  14.130  73.432  0.00  0.00     0.075 H 
ATOM     83  C28 non d ame     -11.525  15.539  71.087  0.00  0.00     0.193 C 
ATOM     84  H42 non d ame     -13.166  16.607  72.000  0.00  0.00     0.280 HD
ATOM     85  H43 non d ame     -11.949  16.071  73.137  0.00  0.00     0.280 HD
ATOM     86  H44 non d ame     -10.468  15.341  71.266  0.00  0.00     0.129 H 
ATOM     87  H37 non d ame     -10.943  13.887  70.713  0.00  0.00     0.046 H 
BRANCH  83  88
ATOM     88  O6  non d ame     -11.560  16.572  70.101  0.00  0.00    -0.369 OA
ATOM     89  H45 non d ame     -10.775  17.119  70.183  0.00  0.00     0.212 HD
ENDBRANCH  83  88
ENDBRANCH  72  75
ENDBRANCH  47  72
ENDBRANCH  45  47
ENDBRANCH   1  43
BRANCH   1  90
ATOM     90  C16 non d ame     -11.133   9.996  71.084  0.00  0.00    -0.035 C 
ATOM     91  H21 non d ame     -10.259  10.013  71.736  0.00  0.00     0.037 H 
ATOM     92  H22 non d ame     -11.826  10.838  71.081  0.00  0.00     0.037 H 
BRANCH  90  93
ATOM     93  C17 non d ame     -11.966   8.741  71.495  0.00  0.00    -0.059 C 
ATOM     94  H23 non d ame     -11.698   8.487  72.521  0.00  0.00     0.038 H 
BRANCH  93  95
ATOM     95  C18 non d ame     -13.504   9.015  71.459  0.00  0.00    -0.073 C 
ATOM     96  H24 non d ame     -14.012   8.324  72.131  0.00  0.00     0.028 H 
ATOM     97  H25 non d ame     -13.697  10.040  71.778  0.00  0.00     0.028 H 
ATOM     98  H26 non d ame     -13.874   8.875  70.443  0.00  0.00     0.028 H 
ENDBRANCH  93  95
BRANCH  93  99
ATOM     99  C19 non d ame     -11.607   7.537  70.621  0.00  0.00    -0.073 C 
ATOM    100  H27 non d ame     -12.133   6.653  70.985  0.00  0.00     0.028 H 
ATOM    101  H28 non d ame     -11.902   7.736  69.590  0.00  0.00     0.028 H 
ATOM    102  H29 non d ame     -10.532   7.364  70.664  0.00  0.00     0.028 H 
ENDBRANCH  93  99
ENDBRANCH  90  93
ENDBRANCH   1  90
TORSDOF 26
ENDMDL
MODEL 18
REMARK VINA RESULT:      -6.4      2.494      6.614
REMARK  26 active torsions:
REMARK  status: ('A' for Active; 'I' for Inactive)
REMARK    1  A    between atoms: C2_2  and  C3_3 
REMARK    2  A    between atoms: C4_6  and  C5_7 
REMARK       I    between atoms: C5_7  and  N2_9 
REMARK    3  A    between atoms: N2_9  and  C6_10 
REMARK    4  A    between atoms: C6_10  and  C7_11 
REMARK    5  A    between atoms: C6_10  and  C8_13 
REMARK       I    between atoms: C7_11  and  N3_14 
REMARK    6  A    between atoms: N3_14  and  C9_15 
REMARK    7  A    between atoms: C9_15  and  C10_16 
REMARK    8  A    between atoms: C9_15  and  C11_18 
REMARK       I    between atoms: C10_16  and  N4_21 
REMARK    9  A    between atoms: C11_18  and  C12_19 
REMARK   10  A    between atoms: C11_18  and  C13_20 
REMARK   11  A    between atoms: N4_21  and  C14_22 
REMARK   12  A    between atoms: C14_22  and  C15_23 
REMARK   13  A    between atoms: C14_22  and  C16_25 
REMARK       I    between atoms: C15_23  and  N6_40 
REMARK   14  A    between atoms: C16_25  and  C17_26 
REMARK   15  A    between atoms: C17_26  and  C18_27 
REMARK   16  A    between atoms: C17_26  and  C19_28 
REMARK   17  A    between atoms: C20_29  and  C21_30 
REMARK   18  A    between atoms: C20_29  and  C24_33 
REMARK   19  A    between atoms: C20_29  and  N6_40 
REMARK   20  A    between atoms: C21_30  and  C22_31 
REMARK   21  A    between atoms: C22_31  and  C23_32 
REMARK   22  A    between atoms: C23_32  and  O8_43 
REMARK   23  A    between atoms: C24_33  and  C25_34 
REMARK   24  A    between atoms: C28_38  and  O6_39 
REMARK   25  A    between atoms: C29_42  and  O8_43 
REMARK   26  A    between atoms: C29_42  and  C35_49 
ROOT
ATOM      1  C14 non d ame      -8.902   6.786  66.518  0.00  0.00     0.089 C 
ATOM      2  H20 non d ame      -9.112   6.239  65.599  0.00  0.00     0.087 H 
ENDROOT
BRANCH   1   3
ATOM      3  N4  non d ame      -8.443   8.115  66.142  0.00  0.00    -0.346 N 
ATOM      4  C10 non d ame      -8.112   8.428  64.705  0.00  0.00     0.241 C 
ATOM      5  O4  non d ame      -8.221   7.593  63.868  0.00  0.00    -0.271 OA
ATOM      6  H19 non d ame      -8.355   8.810  66.869  0.00  0.00     0.163 HD
BRANCH   4   7
ATOM      7  C9  non d ame      -7.644   9.810  64.333  0.00  0.00     0.092 C 
ATOM      8  H11 non d ame      -7.611   9.897  63.247  0.00  0.00     0.088 H 
BRANCH   7   9
ATOM      9  N3  non d ame      -8.609  10.801  64.818  0.00  0.00    -0.346 N 
ATOM     10  C7  non d ame      -9.744  11.159  64.003  0.00  0.00     0.240 C 
ATOM     11  O3  non d ame      -9.895  10.661  62.954  0.00  0.00    -0.271 OA
ATOM     12  H10 non d ame      -8.492  11.240  65.719  0.00  0.00     0.163 HD
BRANCH  10  13
ATOM     13  C6  non d ame     -10.767  12.217  64.523  0.00  0.00     0.086 C 
ATOM     14  H6  non d ame     -11.149  11.981  65.516  0.00  0.00     0.086 H 
BRANCH  13  15
ATOM     15  N2  non d ame     -10.101  13.504  64.629  0.00  0.00    -0.343 N 
ATOM     16  C5  non d ame     -10.313  14.330  65.820  0.00  0.00     0.273 C 
ATOM     17  O2  non d ame     -11.023  13.951  66.685  0.00  0.00    -0.266 OA
ATOM     18  H5  non d ame      -9.498  13.822  63.883  0.00  0.00     0.163 HD
BRANCH  16  19
ATOM     19  C4  non d ame      -9.614  15.693  65.946  0.00  0.00     0.154 A 
ATOM     20  C1  non d ame      -8.314  15.951  66.485  0.00  0.00    -0.017 A 
ATOM     21  C2  non d ame      -8.145  17.349  66.372  0.00  0.00     0.077 A 
ATOM     22  H1  non d ame      -7.602  15.234  66.895  0.00  0.00     0.091 H 
ATOM     23  O1  non d ame      -9.226  17.828  65.830  0.00  0.00    -0.218 OA
ATOM     24  N1  non d ame     -10.098  16.881  65.572  0.00  0.00    -0.123 NA
BRANCH  21  25
ATOM     25  C3  non d ame      -6.922  18.147  66.805  0.00  0.00    -0.029 C 
ATOM     26  H2  non d ame      -6.023  17.687  66.394  0.00  0.00     0.036 H 
ATOM     27  H3  non d ame      -7.007  19.170  66.437  0.00  0.00     0.036 H 
ATOM     28  H4  non d ame      -6.860  18.157  67.893  0.00  0.00     0.036 H 
ENDBRANCH  21  25
ENDBRANCH  16  19
ENDBRANCH  13  15
BRANCH  13  29
ATOM     29  C8  non d ame     -11.927  12.312  63.565  0.00  0.00    -0.049 C 
ATOM     30  H7  non d ame     -12.813  11.870  64.020  0.00  0.00     0.030 H 
ATOM     31  H8  non d ame     -12.122  13.360  63.333  0.00  0.00     0.030 H 
ATOM     32  H9  non d ame     -11.684  11.776  62.647  0.00  0.00     0.030 H 
ENDBRANCH  13  29
ENDBRANCH  10  13
ENDBRANCH   7   9
BRANCH   7  33
ATOM     33  C11 non d ame      -6.256  10.080  64.985  0.00  0.00    -0.033 C 
ATOM     34  H12 non d ame      -5.867   9.125  65.338  0.00  0.00     0.042 H 
BRANCH  33  35
ATOM     35  C12 non d ame      -5.239  10.645  63.944  0.00  0.00    -0.071 C 
ATOM     36  H13 non d ame      -4.467   9.900  63.749  0.00  0.00     0.028 H 
ATOM     37  H14 non d ame      -5.761  10.877  63.016  0.00  0.00     0.028 H 
ATOM     38  H15 non d ame      -4.780  11.550  64.340  0.00  0.00     0.028 H 
ENDBRANCH  33  35
BRANCH  33  39
ATOM     39  C13 non d ame      -6.392  11.031  66.217  0.00  0.00    -0.071 C 
ATOM     40  H16 non d ame      -5.528  11.693  66.263  0.00  0.00     0.028 H 
ATOM     41  H17 non d ame      -7.300  11.627  66.117  0.00  0.00     0.028 H 
ATOM     42  H18 non d ame      -6.446  10.438  67.129  0.00  0.00     0.028 H 
ENDBRANCH  33  39
ENDBRANCH   7  33
ENDBRANCH   4   7
ENDBRANCH   1   3
BRANCH   1  43
ATOM     43  C15 non d ame     -10.165   6.933  67.414  0.00  0.00     0.240 C 
ATOM     44  O5  non d ame     -11.236   6.659  66.977  0.00  0.00    -0.271 OA
ATOM     45  N6  non d ame     -10.039   7.409  68.821  0.00  0.00    -0.355 N 
ATOM     46  H46 non d ame      -9.135   7.641  69.206  0.00  0.00     0.162 HD
BRANCH  45  47
ATOM     47  C20 non d ame     -11.250   7.543  69.661  0.00  0.00     0.013 C 
ATOM     48  H30 non d ame     -12.101   7.700  68.999  0.00  0.00     0.072 H 
BRANCH  47  49
ATOM     49  C21 non d ame     -11.088   8.728  70.586  0.00  0.00    -0.038 C 
ATOM     50  H31 non d ame     -12.066   9.207  70.625  0.00  0.00     0.036 H 
ATOM     51  H32 non d ame     -10.638   8.331  71.496  0.00  0.00     0.036 H 
BRANCH  49  52
ATOM     52  C22 non d ame     -10.106   9.786  70.038  0.00  0.00     0.018 C 
ATOM     53  H33 non d ame      -9.913  10.467  70.867  0.00  0.00     0.048 H 
ATOM     54  H34 non d ame      -9.284   9.224  69.592  0.00  0.00     0.048 H 
BRANCH  52  55
ATOM     55  C23 non d ame     -10.697  10.658  68.896  0.00  0.00     0.259 C 
ATOM     56  O7  non d ame     -10.428  10.429  67.761  0.00  0.00    -0.265 OA
BRANCH  55  57
ATOM     57  O8  non d ame     -11.557  11.743  69.221  0.00  0.00    -0.317 OA
BRANCH  57  58
ATOM     58  C29 non d ame     -12.268  11.574  70.451  0.00  0.00     0.052 C 
ATOM     59  H47 non d ame     -13.165  11.010  70.197  0.00  0.00     0.082 H 
ATOM     60  H48 non d ame     -11.546  11.161  71.155  0.00  0.00     0.082 H 
BRANCH  58  61
ATOM     61  C35 non d ame     -12.695  12.979  70.954  0.00  0.00    -0.034 A 
ATOM     62  C30 non d ame     -12.311  14.117  70.252  0.00  0.00    -0.075 A 
ATOM     63  C31 non d ame     -12.695  15.379  70.704  0.00  0.00    -0.082 A 
ATOM     64  H49 non d ame     -11.709  14.020  69.349  0.00  0.00     0.084 H 
ATOM     65  C32 non d ame     -13.465  15.500  71.864  0.00  0.00    -0.083 A 
ATOM     66  H50 non d ame     -12.394  16.268  70.151  0.00  0.00     0.083 H 
ATOM     67  C33 non d ame     -13.843  14.362  72.562  0.00  0.00    -0.082 A 
ATOM     68  H51 non d ame     -13.770  16.483  72.223  0.00  0.00     0.083 H 
ATOM     69  C34 non d ame     -13.464  13.099  72.113  0.00  0.00    -0.075 A 
ATOM     70  H52 non d ame     -14.442  14.460  73.468  0.00  0.00     0.083 H 
ATOM     71  H53 non d ame     -13.766  12.209  72.667  0.00  0.00     0.084 H 
ENDBRANCH  58  61
ENDBRANCH  57  58
ENDBRANCH  55  57
ENDBRANCH  52  55
ENDBRANCH  49  52
ENDBRANCH  47  49
BRANCH  47  72
ATOM     72  C24 non d ame     -11.447   6.274  70.488  0.00  0.00    -0.039 C 
ATOM     73  H35 non d ame     -12.069   6.572  71.332  0.00  0.00     0.036 H 
ATOM     74  H36 non d ame     -11.807   5.523  69.785  0.00  0.00     0.036 H 
BRANCH  72  75
ATOM     75  C25 non d ame     -10.062   5.735  71.087  0.00  0.00    -0.001 C 
ATOM     76  C26 non d ame      -9.674   4.296  70.394  0.00  0.00    -0.035 C 
ATOM     77  C27 non d ame      -9.403   3.399  71.372  0.00  0.00     0.085 C 
ATOM     78  H38 non d ame     -10.547   3.873  69.896  0.00  0.00     0.036 H 
ATOM     79  H39 non d ame      -8.729   4.382  69.857  0.00  0.00     0.036 H 
ATOM     80  N5  non d ame      -9.886   4.001  72.669  0.00  0.00    -0.049 N 
ATOM     81  H40 non d ame     -10.008   2.522  71.140  0.00  0.00     0.075 H 
ATOM     82  H41 non d ame      -8.316   3.320  71.401  0.00  0.00     0.075 H 
ATOM     83  C28 non d ame     -10.140   5.566  72.365  0.00  0.00     0.193 C 
ATOM     84  H42 non d ame     -10.774   3.565  72.874  0.00  0.00     0.280 HD
ATOM     85  H43 non d ame      -9.121   3.921  73.324  0.00  0.00     0.280 HD
ATOM     86  H44 non d ame      -9.431   6.319  72.708  0.00  0.00     0.129 H 
ATOM     87  H37 non d ame      -9.290   6.505  71.098  0.00  0.00     0.046 H 
BRANCH  83  88
ATOM     88  O6  non d ame     -11.408   5.970  72.886  0.00  0.00    -0.369 OA
ATOM     89  H45 non d ame     -11.311   6.213  73.809  0.00  0.00     0.212 HD
ENDBRANCH  83  88
ENDBRANCH  72  75
ENDBRANCH  47  72
ENDBRANCH  45  47
ENDBRANCH   1  43
BRANCH   1  90
ATOM     90  C16 non d ame      -7.802   6.083  67.297  0.00  0.00    -0.035 C 
ATOM     91  H21 non d ame      -7.210   6.881  67.744  0.00  0.00     0.037 H 
ATOM     92  H22 non d ame      -8.315   5.362  67.935  0.00  0.00     0.037 H 
BRANCH  90  93
ATOM     93  C17 non d ame      -6.826   5.259  66.398  0.00  0.00    -0.059 C 
ATOM     94  H23 non d ame      -7.320   5.091  65.441  0.00  0.00     0.038 H 
BRANCH  93  95
ATOM     95  C18 non d ame      -5.494   6.026  66.118  0.00  0.00    -0.073 C 
ATOM     96  H24 non d ame      -4.657   5.460  66.527  0.00  0.00     0.028 H 
ATOM     97  H25 non d ame      -5.362   6.145  65.043  0.00  0.00     0.028 H 
ATOM     98  H26 non d ame      -5.534   7.008  66.590  0.00  0.00     0.028 H 
ENDBRANCH  93  95
BRANCH  93  99
ATOM     99  C19 non d ame      -6.545   3.885  67.012  0.00  0.00    -0.073 C 
ATOM    100  H27 non d ame      -7.472   3.312  67.060  0.00  0.00     0.028 H 
ATOM    101  H28 non d ame      -5.820   3.353  66.394  0.00  0.00     0.028 H 
ATOM    102  H29 non d ame      -6.143   4.011  68.016  0.00  0.00     0.028 H 
ENDBRANCH  93  99
ENDBRANCH  90  93
ENDBRANCH   1  90
TORSDOF 26
ENDMDL
MODEL 19
REMARK VINA RESULT:      -6.4      2.559      6.630
REMARK  26 active torsions:
REMARK  status: ('A' for Active; 'I' for Inactive)
REMARK    1  A    between atoms: C2_2  and  C3_3 
REMARK    2  A    between atoms: C4_6  and  C5_7 
REMARK       I    between atoms: C5_7  and  N2_9 
REMARK    3  A    between atoms: N2_9  and  C6_10 
REMARK    4  A    between atoms: C6_10  and  C7_11 
REMARK    5  A    between atoms: C6_10  and  C8_13 
REMARK       I    between atoms: C7_11  and  N3_14 
REMARK    6  A    between atoms: N3_14  and  C9_15 
REMARK    7  A    between atoms: C9_15  and  C10_16 
REMARK    8  A    between atoms: C9_15  and  C11_18 
REMARK       I    between atoms: C10_16  and  N4_21 
REMARK    9  A    between atoms: C11_18  and  C12_19 
REMARK   10  A    between atoms: C11_18  and  C13_20 
REMARK   11  A    between atoms: N4_21  and  C14_22 
REMARK   12  A    between atoms: C14_22  and  C15_23 
REMARK   13  A    between atoms: C14_22  and  C16_25 
REMARK       I    between atoms: C15_23  and  N6_40 
REMARK   14  A    between atoms: C16_25  and  C17_26 
REMARK   15  A    between atoms: C17_26  and  C18_27 
REMARK   16  A    between atoms: C17_26  and  C19_28 
REMARK   17  A    between atoms: C20_29  and  C21_30 
REMARK   18  A    between atoms: C20_29  and  C24_33 
REMARK   19  A    between atoms: C20_29  and  N6_40 
REMARK   20  A    between atoms: C21_30  and  C22_31 
REMARK   21  A    between atoms: C22_31  and  C23_32 
REMARK   22  A    between atoms: C23_32  and  O8_43 
REMARK   23  A    between atoms: C24_33  and  C25_34 
REMARK   24  A    between atoms: C28_38  and  O6_39 
REMARK   25  A    between atoms: C29_42  and  O8_43 
REMARK   26  A    between atoms: C29_42  and  C35_49 
ROOT
ATOM      1  C14 non d ame      -8.568   8.784  68.863  0.00  0.00     0.089 C 
ATOM      2  H20 non d ame      -7.481   8.724  68.800  0.00  0.00     0.087 H 
ENDROOT
BRANCH   1   3
ATOM      3  N4  non d ame      -9.107   8.358  67.580  0.00  0.00    -0.346 N 
ATOM      4  C10 non d ame      -8.200   8.210  66.385  0.00  0.00     0.241 C 
ATOM      5  O4  non d ame      -7.040   8.443  66.479  0.00  0.00    -0.271 OA
ATOM      6  H19 non d ame     -10.097   8.168  67.520  0.00  0.00     0.163 HD
BRANCH   4   7
ATOM      7  C9  non d ame      -8.773   7.763  65.066  0.00  0.00     0.092 C 
ATOM      8  H11 non d ame      -9.787   7.393  65.222  0.00  0.00     0.088 H 
BRANCH   7   9
ATOM      9  N3  non d ame      -8.866   8.911  64.158  0.00  0.00    -0.346 N 
ATOM     10  C7  non d ame      -9.773   9.992  64.456  0.00  0.00     0.240 C 
ATOM     11  O3  non d ame     -10.436   9.954  65.420  0.00  0.00    -0.271 OA
ATOM     12  H10 non d ame      -8.302   8.957  63.322  0.00  0.00     0.163 HD
BRANCH  10  13
ATOM     13  C6  non d ame      -9.870  11.210  63.485  0.00  0.00     0.086 C 
ATOM     14  H6  non d ame     -10.831  11.265  62.972  0.00  0.00     0.086 H 
BRANCH  13  15
ATOM     15  N2  non d ame      -9.738  12.437  64.253  0.00  0.00    -0.343 N 
ATOM     16  C5  non d ame     -10.869  13.364  64.331  0.00  0.00     0.273 C 
ATOM     17  O2  non d ame     -11.880  13.115  63.771  0.00  0.00    -0.266 OA
ATOM     18  H5  non d ame      -8.870  12.643  64.726  0.00  0.00     0.163 HD
BRANCH  16  19
ATOM     19  C4  non d ame     -10.744  14.664  65.140  0.00  0.00     0.154 A 
ATOM     20  C1  non d ame     -10.501  14.788  66.545  0.00  0.00    -0.017 A 
ATOM     21  C2  non d ame     -10.475  16.180  66.788  0.00  0.00     0.077 A 
ATOM     22  H1  non d ame     -10.366  13.991  67.276  0.00  0.00     0.091 H 
ATOM     23  O1  non d ame     -10.678  16.776  65.650  0.00  0.00    -0.218 OA
ATOM     24  N1  non d ame     -10.838  15.912  64.673  0.00  0.00    -0.123 NA
BRANCH  21  25
ATOM     25  C3  non d ame     -10.249  16.856  68.134  0.00  0.00    -0.029 C 
ATOM     26  H2  non d ame      -9.232  16.659  68.474  0.00  0.00     0.036 H 
ATOM     27  H3  non d ame     -10.396  17.931  68.030  0.00  0.00     0.036 H 
ATOM     28  H4  non d ame     -10.958  16.462  68.863  0.00  0.00     0.036 H 
ENDBRANCH  21  25
ENDBRANCH  16  19
ENDBRANCH  13  15
BRANCH  13  29
ATOM     29  C8  non d ame      -8.773  11.124  62.455  0.00  0.00    -0.049 C 
ATOM     30  H7  non d ame      -8.538  12.123  62.089  0.00  0.00     0.030 H 
ATOM     31  H8  non d ame      -7.883  10.685  62.908  0.00  0.00     0.030 H 
ATOM     32  H9  non d ame      -9.103  10.501  61.624  0.00  0.00     0.030 H 
ENDBRANCH  13  29
ENDBRANCH  10  13
ENDBRANCH   7   9
BRANCH   7  33
ATOM     33  C11 non d ame      -7.846   6.682  64.437  0.00  0.00    -0.033 C 
ATOM     34  H12 non d ame      -6.831   6.880  64.781  0.00  0.00     0.042 H 
BRANCH  33  35
ATOM     35  C12 non d ame      -8.234   5.250  64.919  0.00  0.00    -0.071 C 
ATOM     36  H13 non d ame      -9.255   5.259  65.302  0.00  0.00     0.028 H 
ATOM     37  H14 non d ame      -8.167   4.554  64.083  0.00  0.00     0.028 H 
ATOM     38  H15 non d ame      -7.552   4.936  65.709  0.00  0.00     0.028 H 
ENDBRANCH  33  35
BRANCH  33  39
ATOM     39  C13 non d ame      -7.855   6.776  62.877  0.00  0.00    -0.071 C 
ATOM     40  H16 non d ame      -7.051   7.435  62.548  0.00  0.00     0.028 H 
ATOM     41  H17 non d ame      -7.707   5.783  62.452  0.00  0.00     0.028 H 
ATOM     42  H18 non d ame      -8.812   7.176  62.543  0.00  0.00     0.028 H 
ENDBRANCH  33  39
ENDBRANCH   7  33
ENDBRANCH   4   7
ENDBRANCH   1   3
BRANCH   1  43
ATOM     43  C15 non d ame      -9.144   7.859  69.974  0.00  0.00     0.240 C 
ATOM     44  O5  non d ame      -9.418   6.731  69.720  0.00  0.00    -0.271 OA
ATOM     45  N6  non d ame      -9.345   8.378  71.357  0.00  0.00    -0.355 N 
ATOM     46  H46 non d ame      -9.111   9.333  71.586  0.00  0.00     0.162 HD
BRANCH  45  47
ATOM     47  C20 non d ame      -9.892   7.486  72.402  0.00  0.00     0.013 C 
ATOM     48  H30 non d ame      -9.981   6.486  71.976  0.00  0.00     0.072 H 
BRANCH  47  49
ATOM     49  C21 non d ame     -11.252   7.990  72.827  0.00  0.00    -0.038 C 
ATOM     50  H31 non d ame     -11.570   7.333  73.637  0.00  0.00     0.036 H 
ATOM     51  H32 non d ame     -11.127   9.057  73.008  0.00  0.00     0.036 H 
BRANCH  49  52
ATOM     52  C22 non d ame     -12.315   7.857  71.715  0.00  0.00     0.018 C 
ATOM     53  H33 non d ame     -11.814   8.148  70.792  0.00  0.00     0.048 H 
ATOM     54  H34 non d ame     -12.728   6.853  71.819  0.00  0.00     0.048 H 
BRANCH  52  55
ATOM     55  C23 non d ame     -13.515   8.831  71.877  0.00  0.00     0.259 C 
ATOM     56  O7  non d ame     -14.631   8.427  71.826  0.00  0.00    -0.265 OA
BRANCH  55  57
ATOM     57  O8  non d ame     -13.265  10.218  72.074  0.00  0.00    -0.317 OA
BRANCH  57  58
ATOM     58  C29 non d ame     -12.584  10.847  70.985  0.00  0.00     0.052 C 
ATOM     59  H47 non d ame     -11.532  10.587  71.106  0.00  0.00     0.082 H 
ATOM     60  H48 non d ame     -13.121  10.544  70.087  0.00  0.00     0.082 H 
BRANCH  58  61
ATOM     61  C35 non d ame     -12.733  12.383  71.151  0.00  0.00    -0.034 A 
ATOM     62  C30 non d ame     -13.481  12.901  72.204  0.00  0.00    -0.075 A 
ATOM     63  C31 non d ame     -13.615  14.280  72.353  0.00  0.00    -0.082 A 
ATOM     64  H49 non d ame     -13.962  12.226  72.912  0.00  0.00     0.084 H 
ATOM     65  C32 non d ame     -12.999  15.144  71.443  0.00  0.00    -0.083 A 
ATOM     66  H50 non d ame     -14.199  14.683  73.180  0.00  0.00     0.083 H 
ATOM     67  C33 non d ame     -12.256  14.622  70.392  0.00  0.00    -0.082 A 
ATOM     68  H51 non d ame     -13.098  16.224  71.552  0.00  0.00     0.083 H 
ATOM     69  C34 non d ame     -12.118  13.244  70.240  0.00  0.00    -0.075 A 
ATOM     70  H52 non d ame     -11.779  15.298  69.682  0.00  0.00     0.083 H 
ATOM     71  H53 non d ame     -11.532  12.842  69.413  0.00  0.00     0.084 H 
ENDBRANCH  58  61
ENDBRANCH  57  58
ENDBRANCH  55  57
ENDBRANCH  52  55
ENDBRANCH  49  52
ENDBRANCH  47  49
BRANCH  47  72
ATOM     72  C24 non d ame      -8.955   7.467  73.608  0.00  0.00    -0.039 C 
ATOM     73  H35 non d ame      -8.087   8.057  73.310  0.00  0.00     0.036 H 
ATOM     74  H36 non d ame      -9.564   7.784  74.454  0.00  0.00     0.036 H 
BRANCH  72  75
ATOM     75  C25 non d ame      -8.432   5.987  73.929  0.00  0.00    -0.001 C 
ATOM     76  C26 non d ame      -8.875   4.962  72.723  0.00  0.00    -0.035 C 
ATOM     77  C27 non d ame      -9.492   3.886  73.268  0.00  0.00     0.085 C 
ATOM     78  H38 non d ame      -9.653   5.419  72.111  0.00  0.00     0.036 H 
ATOM     79  H39 non d ame      -7.990   4.536  72.250  0.00  0.00     0.036 H 
ATOM     80  N5  non d ame      -9.801   4.236  74.704  0.00  0.00    -0.049 N 
ATOM     81  H40 non d ame     -10.428   3.777  72.720  0.00  0.00     0.075 H 
ATOM     82  H41 non d ame      -8.753   3.086  73.249  0.00  0.00     0.075 H 
ATOM     83  C28 non d ame      -8.924   5.549  75.040  0.00  0.00     0.193 C 
ATOM     84  H42 non d ame     -10.779   4.486  74.734  0.00  0.00     0.280 HD
ATOM     85  H43 non d ame      -9.459   3.469  75.265  0.00  0.00     0.280 HD
ATOM     86  H44 non d ame      -8.018   5.471  75.641  0.00  0.00     0.129 H 
ATOM     87  H37 non d ame      -7.384   5.976  74.230  0.00  0.00     0.046 H 
BRANCH  83  88
ATOM     88  O6  non d ame      -9.733   6.528  75.695  0.00  0.00    -0.369 OA
ATOM     89  H45 non d ame      -9.472   7.405  75.405  0.00  0.00     0.212 HD
ENDBRANCH  83  88
ENDBRANCH  72  75
ENDBRANCH  47  72
ENDBRANCH  45  47
ENDBRANCH   1  43
BRANCH   1  90
ATOM     90  C16 non d ame      -8.989  10.221  69.126  0.00  0.00    -0.035 C 
ATOM     91  H21 non d ame      -9.810  10.413  68.434  0.00  0.00     0.037 H 
ATOM     92  H22 non d ame      -9.159  10.280  70.201  0.00  0.00     0.037 H 
BRANCH  90  93
ATOM     93  C17 non d ame      -7.880  11.270  68.796  0.00  0.00    -0.059 C 
ATOM     94  H23 non d ame      -8.004  12.109  69.479  0.00  0.00     0.038 H 
BRANCH  93  95
ATOM     95  C18 non d ame      -6.443  10.693  69.006  0.00  0.00    -0.073 C 
ATOM     96  H24 non d ame      -5.708  11.404  68.630  0.00  0.00     0.028 H 
ATOM     97  H25 non d ame      -6.273  10.521  70.069  0.00  0.00     0.028 H 
ATOM     98  H26 non d ame      -6.347   9.751  68.466  0.00  0.00     0.028 H 
ENDBRANCH  93  95
BRANCH  93  99
ATOM     99  C19 non d ame      -8.046  11.812  67.374  0.00  0.00    -0.073 C 
ATOM    100  H27 non d ame      -7.762  11.043  66.656  0.00  0.00     0.028 H 
ATOM    101  H28 non d ame      -9.087  12.094  67.212  0.00  0.00     0.028 H 
ATOM    102  H29 non d ame      -7.409  12.686  67.242  0.00  0.00     0.028 H 
ENDBRANCH  93  99
ENDBRANCH  90  93
ENDBRANCH   1  90
TORSDOF 26
ENDMDL
MODEL 20
REMARK VINA RESULT:      -6.2      2.285      3.613
REMARK  26 active torsions:
REMARK  status: ('A' for Active; 'I' for Inactive)
REMARK    1  A    between atoms: C2_2  and  C3_3 
REMARK    2  A    between atoms: C4_6  and  C5_7 
REMARK       I    between atoms: C5_7  and  N2_9 
REMARK    3  A    between atoms: N2_9  and  C6_10 
REMARK    4  A    between atoms: C6_10  and  C7_11 
REMARK    5  A    between atoms: C6_10  and  C8_13 
REMARK       I    between atoms: C7_11  and  N3_14 
REMARK    6  A    between atoms: N3_14  and  C9_15 
REMARK    7  A    between atoms: C9_15  and  C10_16 
REMARK    8  A    between atoms: C9_15  and  C11_18 
REMARK       I    between atoms: C10_16  and  N4_21 
REMARK    9  A    between atoms: C11_18  and  C12_19 
REMARK   10  A    between atoms: C11_18  and  C13_20 
REMARK   11  A    between atoms: N4_21  and  C14_22 
REMARK   12  A    between atoms: C14_22  and  C15_23 
REMARK   13  A    between atoms: C14_22  and  C16_25 
REMARK       I    between atoms: C15_23  and  N6_40 
REMARK   14  A    between atoms: C16_25  and  C17_26 
REMARK   15  A    between atoms: C17_26  and  C18_27 
REMARK   16  A    between atoms: C17_26  and  C19_28 
REMARK   17  A    between atoms: C20_29  and  C21_30 
REMARK   18  A    between atoms: C20_29  and  C24_33 
REMARK   19  A    between atoms: C20_29  and  N6_40 
REMARK   20  A    between atoms: C21_30  and  C22_31 
REMARK   21  A    between atoms: C22_31  and  C23_32 
REMARK   22  A    between atoms: C23_32  and  O8_43 
REMARK   23  A    between atoms: C24_33  and  C25_34 
REMARK   24  A    between atoms: C28_38  and  O6_39 
REMARK   25  A    between atoms: C29_42  and  O8_43 
REMARK   26  A    between atoms: C29_42  and  C35_49 
ROOT
ATOM      1  C14 non d ame      -8.824   9.785  66.964  0.00  0.00     0.089 C 
ATOM      2  H20 non d ame      -9.491   9.143  66.389  0.00  0.00     0.087 H 
ENDROOT
BRANCH   1   3
ATOM      3  N4  non d ame      -9.427  11.108  67.017  0.00  0.00    -0.346 N 
ATOM      4  C10 non d ame     -10.915  11.260  67.211  0.00  0.00     0.241 C 
ATOM      5  O4  non d ame     -11.607  10.301  67.319  0.00  0.00    -0.271 OA
ATOM      6  H19 non d ame      -8.822  11.911  66.920  0.00  0.00     0.163 HD
BRANCH   4   7
ATOM      7  C9  non d ame     -11.522  12.637  67.268  0.00  0.00     0.092 C 
ATOM      8  H11 non d ame     -12.549  12.561  67.625  0.00  0.00     0.088 H 
BRANCH   7   9
ATOM      9  N3  non d ame     -10.786  13.456  68.237  0.00  0.00    -0.346 N 
ATOM     10  C7  non d ame     -11.505  14.262  69.192  0.00  0.00     0.240 C 
ATOM     11  O3  non d ame     -12.676  14.266  69.194  0.00  0.00    -0.271 OA
ATOM     12  H10 non d ame      -9.776  13.464  68.246  0.00  0.00     0.163 HD
BRANCH  10  13
ATOM     13  C6  non d ame     -10.717  15.134  70.218  0.00  0.00     0.086 C 
ATOM     14  H6  non d ame      -9.791  14.662  70.548  0.00  0.00     0.086 H 
BRANCH  13  15
ATOM     15  N2  non d ame     -10.341  16.386  69.583  0.00  0.00    -0.343 N 
ATOM     16  C5  non d ame      -9.114  16.452  68.786  0.00  0.00     0.273 C 
ATOM     17  O2  non d ame      -8.435  15.492  68.665  0.00  0.00    -0.266 OA
ATOM     18  H5  non d ame     -10.927  17.202  69.694  0.00  0.00     0.163 HD
BRANCH  16  19
ATOM     19  C4  non d ame      -8.706  17.769  68.108  0.00  0.00     0.154 A 
ATOM     20  C1  non d ame      -7.916  17.923  66.925  0.00  0.00    -0.017 A 
ATOM     21  C2  non d ame      -7.832  19.319  66.723  0.00  0.00     0.077 A 
ATOM     22  H1  non d ame      -7.471  17.143  66.308  0.00  0.00     0.091 H 
ATOM     23  O1  non d ame      -8.501  19.890  67.682  0.00  0.00    -0.218 OA
ATOM     24  N1  non d ame      -9.020  19.006  68.503  0.00  0.00    -0.123 NA
BRANCH  21  25
ATOM     25  C3  non d ame      -7.097  20.024  65.592  0.00  0.00    -0.029 C 
ATOM     26  H2  non d ame      -6.846  19.302  64.814  0.00  0.00     0.036 H 
ATOM     27  H3  non d ame      -7.735  20.802  65.173  0.00  0.00     0.036 H 
ATOM     28  H4  non d ame      -6.181  20.474  65.978  0.00  0.00     0.036 H 
ENDBRANCH  21  25
ENDBRANCH  16  19
ENDBRANCH  13  15
BRANCH  13  29
ATOM     29  C8  non d ame     -11.582  15.404  71.422  0.00  0.00    -0.049 C 
ATOM     30  H7  non d ame     -12.164  14.513  71.660  0.00  0.00     0.030 H 
ATOM     31  H8  non d ame     -10.952  15.664  72.272  0.00  0.00     0.030 H 
ATOM     32  H9  non d ame     -12.258  16.231  71.205  0.00  0.00     0.030 H 
ENDBRANCH  13  29
ENDBRANCH  10  13
ENDBRANCH   7   9
BRANCH   7  33
ATOM     33  C11 non d ame     -11.438  13.300  65.863  0.00  0.00    -0.033 C 
ATOM     34  H12 non d ame     -11.255  12.509  65.136  0.00  0.00     0.042 H 
BRANCH  33  35
ATOM     35  C12 non d ame     -12.784  13.988  65.477  0.00  0.00    -0.071 C 
ATOM     36  H13 non d ame     -12.591  15.013  65.158  0.00  0.00     0.028 H 
ATOM     37  H14 non d ame     -13.253  13.437  64.662  0.00  0.00     0.028 H 
ATOM     38  H15 non d ame     -13.449  13.996  66.341  0.00  0.00     0.028 H 
ENDBRANCH  33  35
BRANCH  33  39
ATOM     39  C13 non d ame     -10.246  14.308  65.790  0.00  0.00    -0.071 C 
ATOM     40  H16 non d ame     -10.111  14.782  66.762  0.00  0.00     0.028 H 
ATOM     41  H17 non d ame      -9.335  13.775  65.517  0.00  0.00     0.028 H 
ATOM     42  H18 non d ame     -10.460  15.070  65.040  0.00  0.00     0.028 H 
ENDBRANCH  33  39
ENDBRANCH   7  33
ENDBRANCH   4   7
ENDBRANCH   1   3
BRANCH   1  43
ATOM     43  C15 non d ame      -8.625   9.273  68.419  0.00  0.00     0.240 C 
ATOM     44  O5  non d ame      -7.633   9.549  69.012  0.00  0.00    -0.271 OA
ATOM     45  N6  non d ame      -9.676   8.446  69.077  0.00  0.00    -0.355 N 
ATOM     46  H46 non d ame     -10.526   8.209  68.585  0.00  0.00     0.162 HD
BRANCH  45  47
ATOM     47  C20 non d ame      -9.473   7.968  70.461  0.00  0.00     0.013 C 
ATOM     48  H30 non d ame      -8.405   8.000  70.674  0.00  0.00     0.072 H 
BRANCH  47  49
ATOM     49  C21 non d ame      -9.980   6.548  70.579  0.00  0.00    -0.038 C 
ATOM     50  H31 non d ame     -10.334   6.446  71.606  0.00  0.00     0.036 H 
ATOM     51  H32 non d ame     -10.672   6.413  69.748  0.00  0.00     0.036 H 
BRANCH  49  52
ATOM     52  C22 non d ame      -8.865   5.496  70.395  0.00  0.00     0.018 C 
ATOM     53  H33 non d ame      -7.929   6.022  70.584  0.00  0.00     0.048 H 
ATOM     54  H34 non d ame      -9.151   4.650  71.021  0.00  0.00     0.048 H 
BRANCH  52  55
ATOM     55  C23 non d ame      -8.760   4.941  68.947  0.00  0.00     0.259 C 
ATOM     56  O7  non d ame      -8.886   3.779  68.737  0.00  0.00    -0.265 OA
BRANCH  55  57
ATOM     57  O8  non d ame      -8.500   5.838  67.875  0.00  0.00    -0.317 OA
BRANCH  57  58
ATOM     58  C29 non d ame      -7.127   5.882  67.473  0.00  0.00     0.052 C 
ATOM     59  H47 non d ame      -6.755   6.852  67.803  0.00  0.00     0.082 H 
ATOM     60  H48 non d ame      -6.678   4.967  67.857  0.00  0.00     0.082 H 
BRANCH  58  61
ATOM     61  C35 non d ame      -7.080   5.839  65.923  0.00  0.00    -0.034 A 
ATOM     62  C30 non d ame      -5.862   5.945  65.259  0.00  0.00    -0.075 A 
ATOM     63  C31 non d ame      -5.820   5.906  63.866  0.00  0.00    -0.082 A 
ATOM     64  H49 non d ame      -4.941   6.058  65.831  0.00  0.00     0.084 H 
ATOM     65  C32 non d ame      -7.003   5.764  63.136  0.00  0.00    -0.083 A 
ATOM     66  H50 non d ame      -4.863   5.987  63.350  0.00  0.00     0.083 H 
ATOM     67  C33 non d ame      -8.216   5.662  63.802  0.00  0.00    -0.082 A 
ATOM     68  H51 non d ame      -6.979   5.732  62.047  0.00  0.00     0.083 H 
ATOM     69  C34 non d ame      -8.263   5.698  65.194  0.00  0.00    -0.075 A 
ATOM     70  H52 non d ame      -9.138   5.553  63.229  0.00  0.00     0.083 H 
ATOM     71  H53 non d ame      -9.220   5.616  65.710  0.00  0.00     0.084 H 
ENDBRANCH  58  61
ENDBRANCH  57  58
ENDBRANCH  55  57
ENDBRANCH  52  55
ENDBRANCH  49  52
ENDBRANCH  47  49
BRANCH  47  72
ATOM     72  C24 non d ame     -10.236   8.864  71.435  0.00  0.00    -0.039 C 
ATOM     73  H35 non d ame     -10.295   8.298  72.365  0.00  0.00     0.036 H 
ATOM     74  H36 non d ame      -9.717   9.823  71.413  0.00  0.00     0.036 H 
BRANCH  72  75
ATOM     75  C25 non d ame     -11.738   9.127  70.945  0.00  0.00    -0.001 C 
ATOM     76  C26 non d ame     -11.987  10.740  70.743  0.00  0.00    -0.035 C 
ATOM     77  C27 non d ame     -13.106  11.097  71.417  0.00  0.00     0.085 C 
ATOM     78  H38 non d ame     -11.198  11.305  71.240  0.00  0.00     0.036 H 
ATOM     79  H39 non d ame     -12.237  10.953  69.703  0.00  0.00     0.036 H 
ATOM     80  N5  non d ame     -13.460   9.945  72.326  0.00  0.00    -0.049 N 
ATOM     81  H40 non d ame     -12.818  11.955  72.026  0.00  0.00     0.075 H 
ATOM     82  H41 non d ame     -13.881  11.202  70.659  0.00  0.00     0.075 H 
ATOM     83  C28 non d ame     -12.594   8.686  71.805  0.00  0.00     0.193 C 
ATOM     84  H42 non d ame     -13.136  10.199  73.249  0.00  0.00     0.280 HD
ATOM     85  H43 non d ame     -14.438   9.749  72.171  0.00  0.00     0.280 HD
ATOM     86  H44 non d ame     -13.065   7.892  71.226  0.00  0.00     0.129 H 
ATOM     87  H37 non d ame     -12.024   8.474  70.121  0.00  0.00     0.046 H 
BRANCH  83  88
ATOM     88  O6  non d ame     -11.963   8.032  72.908  0.00  0.00    -0.369 OA
ATOM     89  H45 non d ame     -11.557   7.217  72.606  0.00  0.00     0.212 HD
ENDBRANCH  83  88
ENDBRANCH  72  75
ENDBRANCH  47  72
ENDBRANCH  45  47
ENDBRANCH   1  43
BRANCH   1  90
ATOM     90  C16 non d ame      -7.476   9.882  66.267  0.00  0.00    -0.035 C 
ATOM     91  H21 non d ame      -7.303  10.949  66.119  0.00  0.00     0.037 H 
ATOM     92  H22 non d ame      -6.790   9.300  66.883  0.00  0.00     0.037 H 
BRANCH  90  93
ATOM     93  C17 non d ame      -7.456   9.231  64.848  0.00  0.00    -0.059 C 
ATOM     94  H23 non d ame      -7.332   8.156  64.979  0.00  0.00     0.038 H 
BRANCH  93  95
ATOM     95  C18 non d ame      -8.791   9.466  64.072  0.00  0.00    -0.073 C 
ATOM     96  H24 non d ame      -9.589   8.889  64.541  0.00  0.00     0.028 H 
ATOM     97  H25 non d ame      -9.045  10.526  64.099  0.00  0.00     0.028 H 
ATOM     98  H26 non d ame      -8.671   9.146  63.037  0.00  0.00     0.028 H 
ENDBRANCH  93  95
BRANCH  93  99
ATOM     99  C19 non d ame      -6.258   9.729  64.035  0.00  0.00    -0.073 C 
ATOM    100  H27 non d ame      -5.705  10.467  64.617  0.00  0.00     0.028 H 
ATOM    101  H28 non d ame      -5.605   8.889  63.797  0.00  0.00     0.028 H 
ATOM    102  H29 non d ame      -6.612  10.186  63.111  0.00  0.00     0.028 H 
ENDBRANCH  93  99
ENDBRANCH  90  93
ENDBRANCH   1  90
TORSDOF 26
ENDMDL
