MODEL 1
REMARK VINA RESULT:      -7.0      0.000      0.000
REMARK  26 active torsions:
REMARK  status: ('A' for Active; 'I' for Inactive)
REMARK    1  A    between atoms: C2_2  and  C3_3 
REMARK    2  A    between atoms: C4_6  and  C5_7 
REMARK       I    between atoms: C5_7  and  N2_9 
REMARK    3  A    between atoms: N2_9  and  C6_10 
REMARK    4  A    between atoms: C6_10  and  C7_11 
REMARK    5  A    between atoms: C6_10  and  C8_13 
REMARK       I    between atoms: C7_11  and  N3_14 
REMARK    6  A    between atoms: N3_14  and  C9_15 
REMARK    7  A    between atoms: C9_15  and  C10_16 
REMARK    8  A    between atoms: C9_15  and  C11_18 
REMARK       I    between atoms: C10_16  and  N4_21 
REMARK    9  A    between atoms: C11_18  and  C12_19 
REMARK   10  A    between atoms: C11_18  and  C13_20 
REMARK   11  A    between atoms: N4_21  and  C14_22 
REMARK   12  A    between atoms: C14_22  and  C15_23 
REMARK   13  A    between atoms: C14_22  and  C16_25 
REMARK       I    between atoms: C15_23  and  N6_40 
REMARK   14  A    between atoms: C16_25  and  C17_26 
REMARK   15  A    between atoms: C17_26  and  C18_27 
REMARK   16  A    between atoms: C17_26  and  C19_28 
REMARK   17  A    between atoms: C20_29  and  C21_30 
REMARK   18  A    between atoms: C20_29  and  C24_33 
REMARK   19  A    between atoms: C20_29  and  N6_40 
REMARK   20  A    between atoms: C21_30  and  C22_31 
REMARK   21  A    between atoms: C22_31  and  C23_32 
REMARK   22  A    between atoms: C23_32  and  O8_43 
REMARK   23  A    between atoms: C24_33  and  C25_34 
REMARK   24  A    between atoms: C28_38  and  O6_39 
REMARK   25  A    between atoms: C29_42  and  O8_43 
REMARK   26  A    between atoms: C29_42  and  C35_49 
ROOT
ATOM      1  C14 non d ame     -10.931   9.057  69.671  0.00  0.00     0.089 C 
ATOM      2  H20 non d ame     -11.893   8.679  70.018  0.00  0.00     0.087 H 
ENDROOT
BRANCH   1   3
ATOM      3  N4  non d ame     -10.306   8.007  68.881  0.00  0.00    -0.346 N 
ATOM      4  C10 non d ame     -10.799   6.585  68.978  0.00  0.00     0.241 C 
ATOM      5  O4  non d ame     -11.699   6.310  69.702  0.00  0.00    -0.271 OA
ATOM      6  H19 non d ame      -9.541   8.261  68.273  0.00  0.00     0.163 HD
BRANCH   4   7
ATOM      7  C9  non d ame     -10.145   5.511  68.149  0.00  0.00     0.092 C 
ATOM      8  H11 non d ame     -10.877   5.095  67.458  0.00  0.00     0.088 H 
BRANCH   7   9
ATOM      9  N3  non d ame      -9.073   6.102  67.342  0.00  0.00    -0.346 N 
ATOM     10  C7  non d ame      -8.976   5.792  65.936  0.00  0.00     0.240 C 
ATOM     11  O3  non d ame      -9.750   5.068  65.440  0.00  0.00    -0.271 OA
ATOM     12  H10 non d ame      -8.397   6.728  67.756  0.00  0.00     0.163 HD
BRANCH  10  13
ATOM     13  C6  non d ame      -7.832   6.422  65.083  0.00  0.00     0.086 C 
ATOM     14  H6  non d ame      -7.407   5.721  64.364  0.00  0.00     0.086 H 
BRANCH  13  15
ATOM     15  N2  non d ame      -8.373   7.529  64.313  0.00  0.00    -0.343 N 
ATOM     16  C5  non d ame      -8.935   8.687  65.012  0.00  0.00     0.273 C 
ATOM     17  O2  non d ame      -8.949   8.716  66.194  0.00  0.00    -0.266 OA
ATOM     18  H5  non d ame      -8.359   7.495  63.303  0.00  0.00     0.163 HD
BRANCH  16  19
ATOM     19  C4  non d ame      -9.509   9.866  64.212  0.00  0.00     0.154 A 
ATOM     20  C1  non d ame     -10.537  10.772  64.623  0.00  0.00    -0.017 A 
ATOM     21  C2  non d ame     -10.694  11.662  63.537  0.00  0.00     0.077 A 
ATOM     22  H1  non d ame     -11.086  10.782  65.566  0.00  0.00     0.091 H 
ATOM     23  O1  non d ame      -9.850  11.301  62.616  0.00  0.00    -0.218 OA
ATOM     24  N1  non d ame      -9.147  10.256  62.986  0.00  0.00    -0.123 NA
BRANCH  21  25
ATOM     25  C3  non d ame     -11.671  12.828  63.461  0.00  0.00    -0.029 C 
ATOM     26  H2  non d ame     -12.073  13.031  64.454  0.00  0.00     0.036 H 
ATOM     27  H3  non d ame     -11.153  13.712  63.091  0.00  0.00     0.036 H 
ATOM     28  H4  non d ame     -12.487  12.575  62.783  0.00  0.00     0.036 H 
ENDBRANCH  21  25
ENDBRANCH  16  19
ENDBRANCH  13  15
BRANCH  13  29
ATOM     29  C8  non d ame      -6.734   6.912  65.992  0.00  0.00    -0.049 C 
ATOM     30  H7  non d ame      -5.914   6.193  65.992  0.00  0.00     0.030 H 
ATOM     31  H8  non d ame      -6.372   7.877  65.637  0.00  0.00     0.030 H 
ATOM     32  H9  non d ame      -7.122   7.019  67.004  0.00  0.00     0.030 H 
ENDBRANCH  13  29
ENDBRANCH  10  13
ENDBRANCH   7   9
BRANCH   7  33
ATOM     33  C11 non d ame      -9.543   4.425  69.089  0.00  0.00    -0.033 C 
ATOM     34  H12 non d ame     -10.262   4.248  69.889  0.00  0.00     0.042 H 
BRANCH  33  35
ATOM     35  C12 non d ame      -9.336   3.074  68.336  0.00  0.00    -0.071 C 
ATOM     36  H13 non d ame      -9.690   2.253  68.959  0.00  0.00     0.028 H 
ATOM     37  H14 non d ame      -9.897   3.089  67.402  0.00  0.00     0.028 H 
ATOM     38  H15 non d ame      -8.276   2.937  68.122  0.00  0.00     0.028 H 
ENDBRANCH  33  35
BRANCH  33  39
ATOM     39  C13 non d ame      -8.211   4.922  69.738  0.00  0.00    -0.071 C 
ATOM     40  H16 non d ame      -8.336   4.989  70.818  0.00  0.00     0.028 H 
ATOM     41  H17 non d ame      -7.410   4.219  69.507  0.00  0.00     0.028 H 
ATOM     42  H18 non d ame      -7.958   5.905  69.339  0.00  0.00     0.028 H 
ENDBRANCH  33  39
ENDBRANCH   7  33
ENDBRANCH   4   7
ENDBRANCH   1   3
BRANCH   1  43
ATOM     43  C15 non d ame     -11.085  10.323  68.779  0.00  0.00     0.240 C 
ATOM     44  O5  non d ame     -11.580  10.230  67.703  0.00  0.00    -0.271 OA
ATOM     45  N6  non d ame     -10.622  11.652  69.271  0.00  0.00    -0.355 N 
ATOM     46  H46 non d ame     -10.204  11.743  70.185  0.00  0.00     0.162 HD
BRANCH  45  47
ATOM     47  C20 non d ame     -10.777  12.845  68.412  0.00  0.00     0.013 C 
ATOM     48  H30 non d ame     -10.878  12.506  67.381  0.00  0.00     0.072 H 
BRANCH  47  49
ATOM     49  C21 non d ame      -9.552  13.721  68.549  0.00  0.00    -0.038 C 
ATOM     50  H31 non d ame      -9.810  14.474  69.293  0.00  0.00     0.036 H 
ATOM     51  H32 non d ame      -8.721  13.039  68.728  0.00  0.00     0.036 H 
BRANCH  49  52
ATOM     52  C22 non d ame      -9.216  14.488  67.251  0.00  0.00     0.018 C 
ATOM     53  H33 non d ame      -8.137  14.392  67.123  0.00  0.00     0.048 H 
ATOM     54  H34 non d ame      -9.892  14.095  66.492  0.00  0.00     0.048 H 
BRANCH  52  55
ATOM     55  C23 non d ame      -9.504  16.013  67.332  0.00  0.00     0.259 C 
ATOM     56  O7  non d ame     -10.587  16.436  67.088  0.00  0.00    -0.265 OA
BRANCH  55  57
ATOM     57  O8  non d ame      -8.453  16.903  67.690  0.00  0.00    -0.317 OA
BRANCH  57  58
ATOM     58  C29 non d ame      -8.896  18.091  68.351  0.00  0.00     0.052 C 
ATOM     59  H47 non d ame      -9.779  18.422  67.803  0.00  0.00     0.082 H 
ATOM     60  H48 non d ame      -8.976  17.830  69.406  0.00  0.00     0.082 H 
BRANCH  58  61
ATOM     61  C35 non d ame      -7.789  19.167  68.195  0.00  0.00    -0.034 A 
ATOM     62  C30 non d ame      -6.904  19.413  69.240  0.00  0.00    -0.075 A 
ATOM     63  C31 non d ame      -5.910  20.380  69.100  0.00  0.00    -0.082 A 
ATOM     64  H49 non d ame      -6.990  18.848  70.168  0.00  0.00     0.084 H 
ATOM     65  C32 non d ame      -5.803  21.104  67.910  0.00  0.00    -0.083 A 
ATOM     66  H50 non d ame      -5.216  20.569  69.920  0.00  0.00     0.083 H 
ATOM     67  C33 non d ame      -6.690  20.858  66.871  0.00  0.00    -0.082 A 
ATOM     68  H51 non d ame      -5.028  21.861  67.792  0.00  0.00     0.083 H 
ATOM     69  C34 non d ame      -7.685  19.891  67.006  0.00  0.00    -0.075 A 
ATOM     70  H52 non d ame      -6.606  21.426  65.944  0.00  0.00     0.083 H 
ATOM     71  H53 non d ame      -8.377  19.702  66.185  0.00  0.00     0.084 H 
ENDBRANCH  58  61
ENDBRANCH  57  58
ENDBRANCH  55  57
ENDBRANCH  52  55
ENDBRANCH  49  52
ENDBRANCH  47  49
BRANCH  47  72
ATOM     72  C24 non d ame     -12.016  13.631  68.836  0.00  0.00    -0.039 C 
ATOM     73  H35 non d ame     -12.074  14.475  68.149  0.00  0.00     0.036 H 
ATOM     74  H36 non d ame     -12.824  12.900  68.871  0.00  0.00     0.036 H 
BRANCH  72  75
ATOM     75  C25 non d ame     -11.859  14.233  70.313  0.00  0.00    -0.001 C 
ATOM     76  C26 non d ame     -12.815  13.402  71.361  0.00  0.00    -0.035 C 
ATOM     77  C27 non d ame     -13.567  14.285  72.060  0.00  0.00     0.085 C 
ATOM     78  H38 non d ame     -13.552  12.818  70.812  0.00  0.00     0.036 H 
ATOM     79  H39 non d ame     -12.203  12.926  72.128  0.00  0.00     0.036 H 
ATOM     80  N5  non d ame     -13.450  15.617  71.358  0.00  0.00    -0.049 N 
ATOM     81  H40 non d ame     -14.593  13.927  71.974  0.00  0.00     0.075 H 
ATOM     82  H41 non d ame     -13.095  14.358  73.039  0.00  0.00     0.075 H 
ATOM     83  C28 non d ame     -12.198  15.478  70.348  0.00  0.00     0.193 C 
ATOM     84  H42 non d ame     -14.293  15.727  70.812  0.00  0.00     0.280 HD
ATOM     85  H43 non d ame     -13.216  16.296  72.068  0.00  0.00     0.280 HD
ATOM     86  H44 non d ame     -11.240  15.938  70.588  0.00  0.00     0.129 H 
ATOM     87  H37 non d ame     -10.814  14.368  70.594  0.00  0.00     0.046 H 
BRANCH  83  88
ATOM     88  O6  non d ame     -12.549  15.978  69.057  0.00  0.00    -0.369 OA
ATOM     89  H45 non d ame     -13.363  16.482  69.119  0.00  0.00     0.212 HD
ENDBRANCH  83  88
ENDBRANCH  72  75
ENDBRANCH  47  72
ENDBRANCH  45  47
ENDBRANCH   1  43
BRANCH   1  90
ATOM     90  C16 non d ame     -10.043   9.377  70.863  0.00  0.00    -0.035 C 
ATOM     91  H21 non d ame      -9.069   8.950  70.620  0.00  0.00     0.037 H 
ATOM     92  H22 non d ame     -10.144  10.451  71.018  0.00  0.00     0.037 H 
BRANCH  90  93
ATOM     93  C17 non d ame     -10.505   8.694  72.189  0.00  0.00    -0.059 C 
ATOM     94  H23 non d ame     -10.263   9.369  73.010  0.00  0.00     0.038 H 
BRANCH  93  95
ATOM     95  C18 non d ame     -12.047   8.444  72.217  0.00  0.00    -0.073 C 
ATOM     96  H24 non d ame     -12.509   8.925  71.355  0.00  0.00     0.028 H 
ATOM     97  H25 non d ame     -12.242   7.372  72.184  0.00  0.00     0.028 H 
ATOM     98  H26 non d ame     -12.466   8.861  73.133  0.00  0.00     0.028 H 
ENDBRANCH  93  95
BRANCH  93  99
ATOM     99  C19 non d ame      -9.738   7.392  72.430  0.00  0.00    -0.073 C 
ATOM    100  H27 non d ame      -8.950   7.290  71.683  0.00  0.00     0.028 H 
ATOM    101  H28 non d ame      -9.294   7.410  73.426  0.00  0.00     0.028 H 
ATOM    102  H29 non d ame     -10.423   6.547  72.354  0.00  0.00     0.028 H 
ENDBRANCH  93  99
ENDBRANCH  90  93
ENDBRANCH   1  90
TORSDOF 26
ENDMDL
MODEL 2
REMARK VINA RESULT:      -6.9      2.987      9.431
REMARK  26 active torsions:
REMARK  status: ('A' for Active; 'I' for Inactive)
REMARK    1  A    between atoms: C2_2  and  C3_3 
REMARK    2  A    between atoms: C4_6  and  C5_7 
REMARK       I    between atoms: C5_7  and  N2_9 
REMARK    3  A    between atoms: N2_9  and  C6_10 
REMARK    4  A    between atoms: C6_10  and  C7_11 
REMARK    5  A    between atoms: C6_10  and  C8_13 
REMARK       I    between atoms: C7_11  and  N3_14 
REMARK    6  A    between atoms: N3_14  and  C9_15 
REMARK    7  A    between atoms: C9_15  and  C10_16 
REMARK    8  A    between atoms: C9_15  and  C11_18 
REMARK       I    between atoms: C10_16  and  N4_21 
REMARK    9  A    between atoms: C11_18  and  C12_19 
REMARK   10  A    between atoms: C11_18  and  C13_20 
REMARK   11  A    between atoms: N4_21  and  C14_22 
REMARK   12  A    between atoms: C14_22  and  C15_23 
REMARK   13  A    between atoms: C14_22  and  C16_25 
REMARK       I    between atoms: C15_23  and  N6_40 
REMARK   14  A    between atoms: C16_25  and  C17_26 
REMARK   15  A    between atoms: C17_26  and  C18_27 
REMARK   16  A    between atoms: C17_26  and  C19_28 
REMARK   17  A    between atoms: C20_29  and  C21_30 
REMARK   18  A    between atoms: C20_29  and  C24_33 
REMARK   19  A    between atoms: C20_29  and  N6_40 
REMARK   20  A    between atoms: C21_30  and  C22_31 
REMARK   21  A    between atoms: C22_31  and  C23_32 
REMARK   22  A    between atoms: C23_32  and  O8_43 
REMARK   23  A    between atoms: C24_33  and  C25_34 
REMARK   24  A    between atoms: C28_38  and  O6_39 
REMARK   25  A    between atoms: C29_42  and  O8_43 
REMARK   26  A    between atoms: C29_42  and  C35_49 
ROOT
ATOM      1  C14 non d ame      -7.389  11.182  67.339  0.00  0.00     0.089 C 
ATOM      2  H20 non d ame      -7.164  11.181  68.405  0.00  0.00     0.087 H 
ENDROOT
BRANCH   1   3
ATOM      3  N4  non d ame      -7.366  12.565  66.888  0.00  0.00    -0.346 N 
ATOM      4  C10 non d ame      -7.249  13.690  67.885  0.00  0.00     0.241 C 
ATOM      5  O4  non d ame      -7.178  13.457  69.047  0.00  0.00    -0.271 OA
ATOM      6  H19 non d ame      -7.429  12.743  65.895  0.00  0.00     0.163 HD
BRANCH   4   7
ATOM      7  C9  non d ame      -7.220  15.116  67.400  0.00  0.00     0.092 C 
ATOM      8  H11 non d ame      -7.173  15.123  66.311  0.00  0.00     0.088 H 
BRANCH   7   9
ATOM      9  N3  non d ame      -8.465  15.788  67.784  0.00  0.00    -0.346 N 
ATOM     10  C7  non d ame      -9.108  16.694  66.864  0.00  0.00     0.240 C 
ATOM     11  O3  non d ame      -8.636  16.894  65.812  0.00  0.00    -0.271 OA
ATOM     12  H10 non d ame      -8.882  15.627  68.690  0.00  0.00     0.163 HD
BRANCH  10  13
ATOM     13  C6  non d ame     -10.431  17.409  67.280  0.00  0.00     0.086 C 
ATOM     14  H6  non d ame     -11.270  17.153  66.634  0.00  0.00     0.086 H 
BRANCH  13  15
ATOM     15  N2  non d ame     -10.795  16.985  68.622  0.00  0.00    -0.343 N 
ATOM     16  C5  non d ame     -11.541  15.738  68.806  0.00  0.00     0.273 C 
ATOM     17  O2  non d ame     -11.847  15.086  67.869  0.00  0.00    -0.266 OA
ATOM     18  H5  non d ame     -10.532  17.550  69.417  0.00  0.00     0.163 HD
BRANCH  16  19
ATOM     19  C4  non d ame     -11.931  15.277  70.219  0.00  0.00     0.154 A 
ATOM     20  C1  non d ame     -11.821  16.024  71.434  0.00  0.00    -0.017 A 
ATOM     21  C2  non d ame     -12.308  15.159  72.439  0.00  0.00     0.077 A 
ATOM     22  H1  non d ame     -11.446  17.039  71.567  0.00  0.00     0.091 H 
ATOM     23  O1  non d ame     -12.656  14.048  71.858  0.00  0.00    -0.218 OA
ATOM     24  N1  non d ame     -12.445  14.092  70.563  0.00  0.00    -0.123 NA
BRANCH  21  25
ATOM     25  C3  non d ame     -12.408  15.470  73.926  0.00  0.00    -0.029 C 
ATOM     26  H2  non d ame     -11.425  15.369  74.386  0.00  0.00     0.036 H 
ATOM     27  H3  non d ame     -12.769  16.490  74.060  0.00  0.00     0.036 H 
ATOM     28  H4  non d ame     -13.103  14.774  74.398  0.00  0.00     0.036 H 
ENDBRANCH  21  25
ENDBRANCH  16  19
ENDBRANCH  13  15
BRANCH  13  29
ATOM     29  C8  non d ame     -10.229  18.903  67.248  0.00  0.00    -0.049 C 
ATOM     30  H7  non d ame     -10.575  19.296  66.291  0.00  0.00     0.030 H 
ATOM     31  H8  non d ame     -10.797  19.364  68.056  0.00  0.00     0.030 H 
ATOM     32  H9  non d ame      -9.171  19.129  67.371  0.00  0.00     0.030 H 
ENDBRANCH  13  29
ENDBRANCH  10  13
ENDBRANCH   7   9
BRANCH   7  33
ATOM     33  C11 non d ame      -6.013  15.858  68.044  0.00  0.00    -0.033 C 
ATOM     34  H12 non d ame      -5.312  15.102  68.398  0.00  0.00     0.042 H 
BRANCH  33  35
ATOM     35  C12 non d ame      -5.263  16.739  66.997  0.00  0.00    -0.071 C 
ATOM     36  H13 non d ame      -5.222  16.213  66.043  0.00  0.00     0.028 H 
ATOM     37  H14 non d ame      -5.794  17.682  66.868  0.00  0.00     0.028 H 
ATOM     38  H15 non d ame      -4.250  16.936  67.347  0.00  0.00     0.028 H 
ENDBRANCH  33  35
BRANCH  33  39
ATOM     39  C13 non d ame      -6.469  16.707  69.274  0.00  0.00    -0.071 C 
ATOM     40  H16 non d ame      -5.645  16.793  69.982  0.00  0.00     0.028 H 
ATOM     41  H17 non d ame      -6.767  17.701  68.940  0.00  0.00     0.028 H 
ATOM     42  H18 non d ame      -7.314  16.218  69.759  0.00  0.00     0.028 H 
ENDBRANCH  33  39
ENDBRANCH   7  33
ENDBRANCH   4   7
ENDBRANCH   1   3
BRANCH   1  43
ATOM     43  C15 non d ame      -6.344  10.375  66.516  0.00  0.00     0.240 C 
ATOM     44  O5  non d ame      -5.194  10.426  66.810  0.00  0.00    -0.271 OA
ATOM     45  N6  non d ame      -6.780   9.530  65.368  0.00  0.00    -0.355 N 
ATOM     46  H46 non d ame      -7.755   9.474  65.112  0.00  0.00     0.162 HD
BRANCH  45  47
ATOM     47  C20 non d ame      -5.774   8.767  64.597  0.00  0.00     0.013 C 
ATOM     48  H30 non d ame      -4.810   8.887  65.092  0.00  0.00     0.072 H 
BRANCH  47  49
ATOM     49  C21 non d ame      -5.703   9.315  63.189  0.00  0.00    -0.038 C 
ATOM     50  H31 non d ame      -4.711   9.757  63.095  0.00  0.00     0.036 H 
ATOM     51  H32 non d ame      -5.998   8.492  62.538  0.00  0.00     0.036 H 
BRANCH  49  52
ATOM     52  C22 non d ame      -6.714  10.455  62.938  0.00  0.00     0.018 C 
ATOM     53  H33 non d ame      -7.124  10.708  63.916  0.00  0.00     0.048 H 
ATOM     54  H34 non d ame      -6.174  11.207  62.362  0.00  0.00     0.048 H 
BRANCH  52  55
ATOM     55  C23 non d ame      -7.927  10.034  62.062  0.00  0.00     0.259 C 
ATOM     56  O7  non d ame      -7.817   9.168  61.255  0.00  0.00    -0.265 OA
BRANCH  55  57
ATOM     57  O8  non d ame      -9.170  10.705  62.225  0.00  0.00    -0.317 OA
BRANCH  57  58
ATOM     58  C29 non d ame      -9.768  10.519  63.511  0.00  0.00     0.052 C 
ATOM     59  H47 non d ame     -10.472   9.696  63.392  0.00  0.00     0.082 H 
ATOM     60  H48 non d ame      -8.939  10.430  64.212  0.00  0.00     0.082 H 
BRANCH  58  61
ATOM     61  C35 non d ame     -10.568  11.804  63.857  0.00  0.00    -0.034 A 
ATOM     62  C30 non d ame     -11.922  11.886  63.548  0.00  0.00    -0.075 A 
ATOM     63  C31 non d ame     -12.640  13.039  63.859  0.00  0.00    -0.082 A 
ATOM     64  H49 non d ame     -12.420  11.047  63.063  0.00  0.00     0.084 H 
ATOM     65  C32 non d ame     -11.999  14.115  64.479  0.00  0.00    -0.083 A 
ATOM     66  H50 non d ame     -13.701  13.100  63.618  0.00  0.00     0.083 H 
ATOM     67  C33 non d ame     -10.647  14.029  64.783  0.00  0.00    -0.082 A 
ATOM     68  H51 non d ame     -12.553  15.020  64.727  0.00  0.00     0.083 H 
ATOM     69  C34 non d ame      -9.925  12.878  64.476  0.00  0.00    -0.075 A 
ATOM     70  H52 non d ame     -10.149  14.871  65.265  0.00  0.00     0.083 H 
ATOM     71  H53 non d ame      -8.864  12.818  64.718  0.00  0.00     0.084 H 
ENDBRANCH  58  61
ENDBRANCH  57  58
ENDBRANCH  55  57
ENDBRANCH  52  55
ENDBRANCH  49  52
ENDBRANCH  47  49
BRANCH  47  72
ATOM     72  C24 non d ame      -6.168   7.293  64.551  0.00  0.00    -0.039 C 
ATOM     73  H35 non d ame      -5.762   6.913  63.613  0.00  0.00     0.036 H 
ATOM     74  H36 non d ame      -5.832   6.873  65.499  0.00  0.00     0.036 H 
BRANCH  72  75
ATOM     75  C25 non d ame      -7.758   7.105  64.488  0.00  0.00    -0.001 C 
ATOM     76  C26 non d ame      -8.299   6.440  65.891  0.00  0.00    -0.035 C 
ATOM     77  C27 non d ame      -9.070   5.366  65.595  0.00  0.00     0.085 C 
ATOM     78  H38 non d ame      -7.466   6.010  66.446  0.00  0.00     0.036 H 
ATOM     79  H39 non d ame      -8.991   7.121  66.386  0.00  0.00     0.036 H 
ATOM     80  N5  non d ame      -8.838   5.044  64.138  0.00  0.00    -0.049 N 
ATOM     81  H40 non d ame      -8.681   4.550  66.206  0.00  0.00     0.075 H 
ATOM     82  H41 non d ame     -10.099   5.702  65.725  0.00  0.00     0.075 H 
ATOM     83  C28 non d ame      -8.099   6.334  63.510  0.00  0.00     0.193 C 
ATOM     84  H42 non d ame      -8.197   4.264  64.116  0.00  0.00     0.280 HD
ATOM     85  H43 non d ame      -9.752   4.959  63.715  0.00  0.00     0.280 HD
ATOM     86  H44 non d ame      -8.650   7.038  62.885  0.00  0.00     0.129 H 
ATOM     87  H37 non d ame      -8.266   8.004  64.137  0.00  0.00     0.046 H 
BRANCH  83  88
ATOM     88  O6  non d ame      -6.976   5.926  62.727  0.00  0.00    -0.369 OA
ATOM     89  H45 non d ame      -6.180   5.970  63.263  0.00  0.00     0.212 HD
ENDBRANCH  83  88
ENDBRANCH  72  75
ENDBRANCH  47  72
ENDBRANCH  45  47
ENDBRANCH   1  43
BRANCH   1  90
ATOM     90  C16 non d ame      -8.778  10.608  67.105  0.00  0.00    -0.035 C 
ATOM     91  H21 non d ame      -9.084  10.981  66.128  0.00  0.00     0.037 H 
ATOM     92  H22 non d ame      -8.678   9.535  67.272  0.00  0.00     0.037 H 
BRANCH  90  93
ATOM     93  C17 non d ame      -9.846  11.116  68.125  0.00  0.00    -0.059 C 
ATOM     94  H23 non d ame      -9.545  12.112  68.451  0.00  0.00     0.038 H 
BRANCH  93  95
ATOM     95  C18 non d ame     -11.265  11.233  67.483  0.00  0.00    -0.073 C 
ATOM     96  H24 non d ame     -11.245  11.982  66.692  0.00  0.00     0.028 H 
ATOM     97  H25 non d ame     -11.555  10.269  67.064  0.00  0.00     0.028 H 
ATOM     98  H26 non d ame     -11.985  11.528  68.246  0.00  0.00     0.028 H 
ENDBRANCH  93  95
BRANCH  93  99
ATOM     99  C19 non d ame      -9.882  10.224  69.369  0.00  0.00    -0.073 C 
ATOM    100  H27 non d ame      -8.878   9.857  69.583  0.00  0.00     0.028 H 
ATOM    101  H28 non d ame     -10.248  10.800  70.219  0.00  0.00     0.028 H 
ATOM    102  H29 non d ame     -10.547   9.379  69.191  0.00  0.00     0.028 H 
ENDBRANCH  93  99
ENDBRANCH  90  93
ENDBRANCH   1  90
TORSDOF 26
ENDMDL
MODEL 3
REMARK VINA RESULT:      -6.9      2.106      9.435
REMARK  26 active torsions:
REMARK  status: ('A' for Active; 'I' for Inactive)
REMARK    1  A    between atoms: C2_2  and  C3_3 
REMARK    2  A    between atoms: C4_6  and  C5_7 
REMARK       I    between atoms: C5_7  and  N2_9 
REMARK    3  A    between atoms: N2_9  and  C6_10 
REMARK    4  A    between atoms: C6_10  and  C7_11 
REMARK    5  A    between atoms: C6_10  and  C8_13 
REMARK       I    between atoms: C7_11  and  N3_14 
REMARK    6  A    between atoms: N3_14  and  C9_15 
REMARK    7  A    between atoms: C9_15  and  C10_16 
REMARK    8  A    between atoms: C9_15  and  C11_18 
REMARK       I    between atoms: C10_16  and  N4_21 
REMARK    9  A    between atoms: C11_18  and  C12_19 
REMARK   10  A    between atoms: C11_18  and  C13_20 
REMARK   11  A    between atoms: N4_21  and  C14_22 
REMARK   12  A    between atoms: C14_22  and  C15_23 
REMARK   13  A    between atoms: C14_22  and  C16_25 
REMARK       I    between atoms: C15_23  and  N6_40 
REMARK   14  A    between atoms: C16_25  and  C17_26 
REMARK   15  A    between atoms: C17_26  and  C18_27 
REMARK   16  A    between atoms: C17_26  and  C19_28 
REMARK   17  A    between atoms: C20_29  and  C21_30 
REMARK   18  A    between atoms: C20_29  and  C24_33 
REMARK   19  A    between atoms: C20_29  and  N6_40 
REMARK   20  A    between atoms: C21_30  and  C22_31 
REMARK   21  A    between atoms: C22_31  and  C23_32 
REMARK   22  A    between atoms: C23_32  and  O8_43 
REMARK   23  A    between atoms: C24_33  and  C25_34 
REMARK   24  A    between atoms: C28_38  and  O6_39 
REMARK   25  A    between atoms: C29_42  and  O8_43 
REMARK   26  A    between atoms: C29_42  and  C35_49 
ROOT
ATOM      1  C14 non d ame      -8.486   9.085  66.760  0.00  0.00     0.089 C 
ATOM      2  H20 non d ame      -8.747   8.492  65.883  0.00  0.00     0.087 H 
ENDROOT
BRANCH   1   3
ATOM      3  N4  non d ame      -9.359  10.249  66.778  0.00  0.00    -0.346 N 
ATOM      4  C10 non d ame     -10.189  10.598  65.569  0.00  0.00     0.241 C 
ATOM      5  O4  non d ame     -10.135   9.928  64.590  0.00  0.00    -0.271 OA
ATOM      6  H19 non d ame      -9.389  10.807  67.620  0.00  0.00     0.163 HD
BRANCH   4   7
ATOM      7  C9  non d ame     -11.092  11.803  65.607  0.00  0.00     0.092 C 
ATOM      8  H11 non d ame     -12.130  11.472  65.650  0.00  0.00     0.088 H 
BRANCH   7   9
ATOM      9  N3  non d ame     -10.831  12.570  66.829  0.00  0.00    -0.346 N 
ATOM     10  C7  non d ame     -11.481  12.203  68.063  0.00  0.00     0.240 C 
ATOM     11  O3  non d ame     -12.218  11.294  68.091  0.00  0.00    -0.271 OA
ATOM     12  H10 non d ame     -10.199  13.358  66.820  0.00  0.00     0.163 HD
BRANCH  10  13
ATOM     13  C6  non d ame     -11.202  13.025  69.359  0.00  0.00     0.086 C 
ATOM     14  H6  non d ame     -10.216  12.828  69.780  0.00  0.00     0.086 H 
BRANCH  13  15
ATOM     15  N2  non d ame     -11.240  14.442  69.036  0.00  0.00    -0.343 N 
ATOM     16  C5  non d ame      -9.998  15.134  68.683  0.00  0.00     0.273 C 
ATOM     17  O2  non d ame      -8.975  14.543  68.665  0.00  0.00    -0.266 OA
ATOM     18  H5  non d ame     -12.118  14.940  69.057  0.00  0.00     0.163 HD
BRANCH  16  19
ATOM     19  C4  non d ame     -10.023  16.631  68.337  0.00  0.00     0.154 A 
ATOM     20  C1  non d ame      -8.899  17.479  68.085  0.00  0.00    -0.017 A 
ATOM     21  C2  non d ame      -9.455  18.750  67.817  0.00  0.00     0.077 A 
ATOM     22  H1  non d ame      -7.841  17.213  68.094  0.00  0.00     0.091 H 
ATOM     23  O1  non d ame     -10.747  18.634  67.907  0.00  0.00    -0.218 OA
ATOM     24  N1  non d ame     -11.103  17.407  68.210  0.00  0.00    -0.123 NA
BRANCH  21  25
ATOM     25  C3  non d ame      -8.683  20.020  67.485  0.00  0.00    -0.029 C 
ATOM     26  H2  non d ame      -8.852  20.286  66.441  0.00  0.00     0.036 H 
ATOM     27  H3  non d ame      -9.024  20.832  68.127  0.00  0.00     0.036 H 
ATOM     28  H4  non d ame      -7.618  19.852  67.648  0.00  0.00     0.036 H 
ENDBRANCH  21  25
ENDBRANCH  16  19
ENDBRANCH  13  15
BRANCH  13  29
ATOM     29  C8  non d ame     -12.248  12.704  70.396  0.00  0.00    -0.049 C 
ATOM     30  H7  non d ame     -13.164  12.382  69.901  0.00  0.00     0.030 H 
ATOM     31  H8  non d ame     -11.885  11.907  71.044  0.00  0.00     0.030 H 
ATOM     32  H9  non d ame     -12.452  13.593  70.993  0.00  0.00     0.030 H 
ENDBRANCH  13  29
ENDBRANCH  10  13
ENDBRANCH   7   9
BRANCH   7  33
ATOM     33  C11 non d ame     -10.813  12.699  64.366  0.00  0.00    -0.033 C 
ATOM     34  H12 non d ame      -9.946  12.287  63.850  0.00  0.00     0.042 H 
BRANCH  33  35
ATOM     35  C12 non d ame     -12.010  12.672  63.365  0.00  0.00    -0.071 C 
ATOM     36  H13 non d ame     -11.675  12.268  62.409  0.00  0.00     0.028 H 
ATOM     37  H14 non d ame     -12.805  12.043  63.766  0.00  0.00     0.028 H 
ATOM     38  H15 non d ame     -12.386  13.684  63.220  0.00  0.00     0.028 H 
ENDBRANCH  33  35
BRANCH  33  39
ATOM     39  C13 non d ame     -10.469  14.161  64.797  0.00  0.00    -0.071 C 
ATOM     40  H16 non d ame     -11.084  14.861  64.232  0.00  0.00     0.028 H 
ATOM     41  H17 non d ame     -10.667  14.282  65.863  0.00  0.00     0.028 H 
ATOM     42  H18 non d ame      -9.416  14.360  64.598  0.00  0.00     0.028 H 
ENDBRANCH  33  39
ENDBRANCH   7  33
ENDBRANCH   4   7
ENDBRANCH   1   3
BRANCH   1  43
ATOM     43  C15 non d ame      -8.687   8.293  68.084  0.00  0.00     0.240 C 
ATOM     44  O5  non d ame      -7.747   8.023  68.760  0.00  0.00    -0.271 OA
ATOM     45  N6  non d ame     -10.053   7.880  68.514  0.00  0.00    -0.355 N 
ATOM     46  H46 non d ame     -10.860   8.108  67.951  0.00  0.00     0.162 HD
BRANCH  45  47
ATOM     47  C20 non d ame     -10.228   7.130  69.777  0.00  0.00     0.013 C 
ATOM     48  H30 non d ame      -9.241   6.966  70.209  0.00  0.00     0.072 H 
BRANCH  47  49
ATOM     49  C21 non d ame     -10.889   5.802  69.481  0.00  0.00    -0.038 C 
ATOM     50  H31 non d ame     -11.640   5.667  70.260  0.00  0.00     0.036 H 
ATOM     51  H32 non d ame     -11.191   5.850  68.435  0.00  0.00     0.036 H 
BRANCH  49  52
ATOM     52  C22 non d ame      -9.916   4.609  69.601  0.00  0.00     0.018 C 
ATOM     53  H33 non d ame      -9.061   4.980  70.165  0.00  0.00     0.048 H 
ATOM     54  H34 non d ame     -10.510   3.782  69.992  0.00  0.00     0.048 H 
BRANCH  52  55
ATOM     55  C23 non d ame      -9.351   4.123  68.237  0.00  0.00     0.259 C 
ATOM     56  O7  non d ame      -9.562   3.017  67.856  0.00  0.00    -0.265 OA
BRANCH  55  57
ATOM     57  O8  non d ame      -8.566   5.011  67.452  0.00  0.00    -0.317 OA
BRANCH  57  58
ATOM     58  C29 non d ame      -9.049   5.191  66.117  0.00  0.00     0.052 C 
ATOM     59  H47 non d ame      -9.520   4.246  65.845  0.00  0.00     0.082 H 
ATOM     60  H48 non d ame      -9.637   6.108  66.137  0.00  0.00     0.082 H 
BRANCH  58  61
ATOM     61  C35 non d ame      -7.824   5.413  65.191  0.00  0.00    -0.034 A 
ATOM     62  C30 non d ame      -6.536   5.222  65.681  0.00  0.00    -0.075 A 
ATOM     63  C31 non d ame      -5.435   5.423  64.849  0.00  0.00    -0.082 A 
ATOM     64  H49 non d ame      -6.389   4.915  66.716  0.00  0.00     0.084 H 
ATOM     65  C32 non d ame      -5.626   5.818  63.522  0.00  0.00    -0.083 A 
ATOM     66  H50 non d ame      -4.427   5.270  65.235  0.00  0.00     0.083 H 
ATOM     67  C33 non d ame      -6.913   6.011  63.038  0.00  0.00    -0.082 A 
ATOM     68  H51 non d ame      -4.771   5.976  62.865  0.00  0.00     0.083 H 
ATOM     69  C34 non d ame      -8.016   5.810  63.866  0.00  0.00    -0.075 A 
ATOM     70  H52 non d ame      -7.059   6.321  62.003  0.00  0.00     0.083 H 
ATOM     71  H53 non d ame      -9.024   5.962  63.478  0.00  0.00     0.084 H 
ENDBRANCH  58  61
ENDBRANCH  57  58
ENDBRANCH  55  57
ENDBRANCH  52  55
ENDBRANCH  49  52
ENDBRANCH  47  49
BRANCH  47  72
ATOM     72  C24 non d ame     -11.102   7.932  70.738  0.00  0.00    -0.039 C 
ATOM     73  H35 non d ame     -11.248   8.900  70.258  0.00  0.00     0.036 H 
ATOM     74  H36 non d ame     -11.961   7.295  70.950  0.00  0.00     0.036 H 
BRANCH  72  75
ATOM     75  C25 non d ame     -10.359   8.202  72.131  0.00  0.00    -0.001 C 
ATOM     76  C26 non d ame      -8.803   7.674  72.047  0.00  0.00    -0.035 C 
ATOM     77  C27 non d ame      -8.557   6.870  73.109  0.00  0.00     0.085 C 
ATOM     78  H38 non d ame      -8.679   7.011  71.191  0.00  0.00     0.036 H 
ATOM     79  H39 non d ame      -8.117   8.509  72.194  0.00  0.00     0.036 H 
ATOM     80  N5  non d ame      -9.892   6.539  73.730  0.00  0.00    -0.049 N 
ATOM     81  H40 non d ame      -8.124   5.961  72.691  0.00  0.00     0.075 H 
ATOM     82  H41 non d ame      -7.982   7.478  73.806  0.00  0.00     0.075 H 
ATOM     83  C28 non d ame     -10.947   7.587  73.102  0.00  0.00     0.193 C 
ATOM     84  H42 non d ame     -10.133   5.611  73.413  0.00  0.00     0.280 HD
ATOM     85  H43 non d ame      -9.802   6.727  74.719  0.00  0.00     0.280 HD
ATOM     86  H44 non d ame     -11.301   8.435  73.688  0.00  0.00     0.129 H 
ATOM     87  H37 non d ame     -10.519   9.217  72.495  0.00  0.00     0.046 H 
BRANCH  83  88
ATOM     88  O6  non d ame     -12.125   6.903  72.671  0.00  0.00    -0.369 OA
ATOM     89  H45 non d ame     -12.881   7.488  72.749  0.00  0.00     0.212 HD
ENDBRANCH  83  88
ENDBRANCH  72  75
ENDBRANCH  47  72
ENDBRANCH  45  47
ENDBRANCH   1  43
BRANCH   1  90
ATOM     90  C16 non d ame      -7.042   9.549  66.656  0.00  0.00    -0.035 C 
ATOM     91  H21 non d ame      -7.096  10.627  66.499  0.00  0.00     0.037 H 
ATOM     92  H22 non d ame      -6.547   9.153  67.543  0.00  0.00     0.037 H 
BRANCH  90  93
ATOM     93  C17 non d ame      -6.281   8.961  65.426  0.00  0.00    -0.059 C 
ATOM     94  H23 non d ame      -6.543   7.906  65.348  0.00  0.00     0.038 H 
BRANCH  93  95
ATOM     95  C18 non d ame      -6.697   9.655  64.089  0.00  0.00    -0.073 C 
ATOM     96  H24 non d ame      -5.888  10.299  63.747  0.00  0.00     0.028 H 
ATOM     97  H25 non d ame      -6.901   8.895  63.334  0.00  0.00     0.028 H 
ATOM     98  H26 non d ame      -7.594  10.253  64.254  0.00  0.00     0.028 H 
ENDBRANCH  93  95
BRANCH  93  99
ATOM     99  C19 non d ame      -4.766   9.039  65.631  0.00  0.00    -0.073 C 
ATOM    100  H27 non d ame      -4.541   9.776  66.402  0.00  0.00     0.028 H 
ATOM    101  H28 non d ame      -4.391   8.063  65.940  0.00  0.00     0.028 H 
ATOM    102  H29 non d ame      -4.288   9.332  64.697  0.00  0.00     0.028 H 
ENDBRANCH  93  99
ENDBRANCH  90  93
ENDBRANCH   1  90
TORSDOF 26
ENDMDL
MODEL 4
REMARK VINA RESULT:      -6.8      2.951      8.883
REMARK  26 active torsions:
REMARK  status: ('A' for Active; 'I' for Inactive)
REMARK    1  A    between atoms: C2_2  and  C3_3 
REMARK    2  A    between atoms: C4_6  and  C5_7 
REMARK       I    between atoms: C5_7  and  N2_9 
REMARK    3  A    between atoms: N2_9  and  C6_10 
REMARK    4  A    between atoms: C6_10  and  C7_11 
REMARK    5  A    between atoms: C6_10  and  C8_13 
REMARK       I    between atoms: C7_11  and  N3_14 
REMARK    6  A    between atoms: N3_14  and  C9_15 
REMARK    7  A    between atoms: C9_15  and  C10_16 
REMARK    8  A    between atoms: C9_15  and  C11_18 
REMARK       I    between atoms: C10_16  and  N4_21 
REMARK    9  A    between atoms: C11_18  and  C12_19 
REMARK   10  A    between atoms: C11_18  and  C13_20 
REMARK   11  A    between atoms: N4_21  and  C14_22 
REMARK   12  A    between atoms: C14_22  and  C15_23 
REMARK   13  A    between atoms: C14_22  and  C16_25 
REMARK       I    between atoms: C15_23  and  N6_40 
REMARK   14  A    between atoms: C16_25  and  C17_26 
REMARK   15  A    between atoms: C17_26  and  C18_27 
REMARK   16  A    between atoms: C17_26  and  C19_28 
REMARK   17  A    between atoms: C20_29  and  C21_30 
REMARK   18  A    between atoms: C20_29  and  C24_33 
REMARK   19  A    between atoms: C20_29  and  N6_40 
REMARK   20  A    between atoms: C21_30  and  C22_31 
REMARK   21  A    between atoms: C22_31  and  C23_32 
REMARK   22  A    between atoms: C23_32  and  O8_43 
REMARK   23  A    between atoms: C24_33  and  C25_34 
REMARK   24  A    between atoms: C28_38  and  O6_39 
REMARK   25  A    between atoms: C29_42  and  O8_43 
REMARK   26  A    between atoms: C29_42  and  C35_49 
ROOT
ATOM      1  C14 non d ame      -6.141  11.345  67.228  0.00  0.00     0.089 C 
ATOM      2  H20 non d ame      -5.301  10.663  67.097  0.00  0.00     0.087 H 
ENDROOT
BRANCH   1   3
ATOM      3  N4  non d ame      -6.936  11.301  66.010  0.00  0.00    -0.346 N 
ATOM      4  C10 non d ame      -7.037  10.024  65.213  0.00  0.00     0.241 C 
ATOM      5  O4  non d ame      -6.468   9.046  65.571  0.00  0.00    -0.271 OA
ATOM      6  H19 non d ame      -7.410  12.144  65.721  0.00  0.00     0.163 HD
BRANCH   4   7
ATOM      7  C9  non d ame      -7.869   9.995  63.957  0.00  0.00     0.092 C 
ATOM      8  H11 non d ame      -8.393   9.041  63.897  0.00  0.00     0.088 H 
BRANCH   7   9
ATOM      9  N3  non d ame      -8.888  11.047  64.021  0.00  0.00    -0.346 N 
ATOM     10  C7  non d ame     -10.125  10.810  64.722  0.00  0.00     0.240 C 
ATOM     11  O3  non d ame     -10.318   9.778  65.240  0.00  0.00    -0.271 OA
ATOM     12  H10 non d ame      -8.736  11.941  63.577  0.00  0.00     0.163 HD
BRANCH  10  13
ATOM     13  C6  non d ame     -11.207  11.932  64.784  0.00  0.00     0.086 C 
ATOM     14  H6  non d ame     -11.889  11.815  65.626  0.00  0.00     0.086 H 
BRANCH  13  15
ATOM     15  N2  non d ame     -10.547  13.215  64.958  0.00  0.00    -0.343 N 
ATOM     16  C5  non d ame     -11.187  14.252  65.771  0.00  0.00     0.273 C 
ATOM     17  O2  non d ame     -12.235  14.045  66.277  0.00  0.00    -0.266 OA
ATOM     18  H5  non d ame      -9.652  13.384  64.520  0.00  0.00     0.163 HD
BRANCH  16  19
ATOM     19  C4  non d ame     -10.499  15.612  65.966  0.00  0.00     0.154 A 
ATOM     20  C1  non d ame      -9.691  16.021  67.073  0.00  0.00    -0.017 A 
ATOM     21  C2  non d ame      -9.303  17.345  66.770  0.00  0.00     0.077 A 
ATOM     22  H1  non d ame      -9.427  15.446  67.961  0.00  0.00     0.091 H 
ATOM     23  O1  non d ame      -9.831  17.650  65.621  0.00  0.00    -0.218 OA
ATOM     24  N1  non d ame     -10.533  16.655  65.131  0.00  0.00    -0.123 NA
BRANCH  21  25
ATOM     25  C3  non d ame      -8.428  18.248  67.630  0.00  0.00    -0.029 C 
ATOM     26  H2  non d ame      -7.509  18.483  67.093  0.00  0.00     0.036 H 
ATOM     27  H3  non d ame      -8.965  19.170  67.852  0.00  0.00     0.036 H 
ATOM     28  H4  non d ame      -8.184  17.737  68.562  0.00  0.00     0.036 H 
ENDBRANCH  21  25
ENDBRANCH  16  19
ENDBRANCH  13  15
BRANCH  13  29
ATOM     29  C8  non d ame     -12.007  11.933  63.506  0.00  0.00    -0.049 C 
ATOM     30  H7  non d ame     -11.570  12.643  62.804  0.00  0.00     0.030 H 
ATOM     31  H8  non d ame     -11.995  10.935  63.068  0.00  0.00     0.030 H 
ATOM     32  H9  non d ame     -13.035  12.223  63.721  0.00  0.00     0.030 H 
ENDBRANCH  13  29
ENDBRANCH  10  13
ENDBRANCH   7   9
BRANCH   7  33
ATOM     33  C11 non d ame      -6.952  10.238  62.723  0.00  0.00    -0.033 C 
ATOM     34  H12 non d ame      -6.155  10.913  63.033  0.00  0.00     0.042 H 
BRANCH  33  35
ATOM     35  C12 non d ame      -6.284   8.912  62.241  0.00  0.00    -0.071 C 
ATOM     36  H13 non d ame      -6.229   8.908  61.152  0.00  0.00     0.028 H 
ATOM     37  H14 non d ame      -5.279   8.841  62.655  0.00  0.00     0.028 H 
ATOM     38  H15 non d ame      -6.878   8.063  62.578  0.00  0.00     0.028 H 
ENDBRANCH  33  35
BRANCH  33  39
ATOM     39  C13 non d ame      -7.744  10.926  61.565  0.00  0.00    -0.071 C 
ATOM     40  H16 non d ame      -8.057  10.174  60.841  0.00  0.00     0.028 H 
ATOM     41  H17 non d ame      -8.624  11.425  61.973  0.00  0.00     0.028 H 
ATOM     42  H18 non d ame      -7.105  11.660  61.074  0.00  0.00     0.028 H 
ENDBRANCH  33  39
ENDBRANCH   7  33
ENDBRANCH   4   7
ENDBRANCH   1   3
BRANCH   1  43
ATOM     43  C15 non d ame      -7.047  10.939  68.426  0.00  0.00     0.240 C 
ATOM     44  O5  non d ame      -7.158  11.668  69.357  0.00  0.00    -0.271 OA
ATOM     45  N6  non d ame      -7.784   9.643  68.407  0.00  0.00    -0.355 N 
ATOM     46  H46 non d ame      -7.701   9.017  67.619  0.00  0.00     0.162 HD
BRANCH  45  47
ATOM     47  C20 non d ame      -8.642   9.271  69.552  0.00  0.00     0.013 C 
ATOM     48  H30 non d ame      -8.400   9.935  70.382  0.00  0.00     0.072 H 
BRANCH  47  49
ATOM     49  C21 non d ame      -8.365   7.837  69.940  0.00  0.00    -0.038 C 
ATOM     50  H31 non d ame      -7.516   7.875  70.624  0.00  0.00     0.036 H 
ATOM     51  H32 non d ame      -9.319   7.433  70.278  0.00  0.00     0.036 H 
BRANCH  49  52
ATOM     52  C22 non d ame      -7.922   6.967  68.743  0.00  0.00     0.018 C 
ATOM     53  H33 non d ame      -7.952   7.624  67.874  0.00  0.00     0.048 H 
ATOM     54  H34 non d ame      -6.982   6.505  69.046  0.00  0.00     0.048 H 
BRANCH  52  55
ATOM     55  C23 non d ame      -8.893   5.795  68.428  0.00  0.00     0.259 C 
ATOM     56  O7  non d ame      -9.835   5.589  69.123  0.00  0.00    -0.265 OA
BRANCH  55  57
ATOM     57  O8  non d ame      -8.637   4.962  67.304  0.00  0.00    -0.317 OA
BRANCH  57  58
ATOM     58  C29 non d ame      -9.817   4.462  66.669  0.00  0.00     0.052 C 
ATOM     59  H47 non d ame      -9.901   3.421  66.981  0.00  0.00     0.082 H 
ATOM     60  H48 non d ame     -10.608   5.170  66.916  0.00  0.00     0.082 H 
BRANCH  58  61
ATOM     61  C35 non d ame      -9.588   4.498  65.135  0.00  0.00    -0.034 A 
ATOM     62  C30 non d ame      -8.533   5.234  64.605  0.00  0.00    -0.075 A 
ATOM     63  C31 non d ame      -8.326   5.267  63.227  0.00  0.00    -0.082 A 
ATOM     64  H49 non d ame      -7.867   5.784  65.271  0.00  0.00     0.084 H 
ATOM     65  C32 non d ame      -9.182   4.562  62.376  0.00  0.00    -0.083 A 
ATOM     66  H50 non d ame      -7.497   5.843  62.816  0.00  0.00     0.083 H 
ATOM     67  C33 non d ame     -10.236   3.832  62.909  0.00  0.00    -0.082 A 
ATOM     68  H51 non d ame      -9.028   4.582  61.298  0.00  0.00     0.083 H 
ATOM     69  C34 non d ame     -10.445   3.794  64.286  0.00  0.00    -0.075 A 
ATOM     70  H52 non d ame     -10.903   3.285  62.242  0.00  0.00     0.083 H 
ATOM     71  H53 non d ame     -11.274   3.218  64.697  0.00  0.00     0.084 H 
ENDBRANCH  58  61
ENDBRANCH  57  58
ENDBRANCH  55  57
ENDBRANCH  52  55
ENDBRANCH  49  52
ENDBRANCH  47  49
BRANCH  47  72
ATOM     72  C24 non d ame     -10.112   9.420  69.165  0.00  0.00    -0.039 C 
ATOM     73  H35 non d ame     -10.116  10.047  68.273  0.00  0.00     0.036 H 
ATOM     74  H36 non d ame     -10.504   8.403  69.119  0.00  0.00     0.036 H 
BRANCH  72  75
ATOM     75  C25 non d ame     -10.946  10.196  70.292  0.00  0.00    -0.001 C 
ATOM     76  C26 non d ame     -11.349   9.160  71.504  0.00  0.00    -0.035 C 
ATOM     77  C27 non d ame     -12.680   9.257  71.736  0.00  0.00     0.085 C 
ATOM     78  H38 non d ame     -11.222   8.130  71.173  0.00  0.00     0.036 H 
ATOM     79  H39 non d ame     -10.902   9.491  72.442  0.00  0.00     0.036 H 
ATOM     80  N5  non d ame     -13.276  10.019  70.577  0.00  0.00    -0.049 N 
ATOM     81  H40 non d ame     -13.054   8.232  71.717  0.00  0.00     0.075 H 
ATOM     82  H41 non d ame     -12.775   9.855  72.641  0.00  0.00     0.075 H 
ATOM     83  C28 non d ame     -12.031  10.700  69.806  0.00  0.00     0.193 C 
ATOM     84  H42 non d ame     -13.695   9.331  69.967  0.00  0.00     0.280 HD
ATOM     85  H43 non d ame     -13.845  10.751  70.978  0.00  0.00     0.280 HD
ATOM     86  H44 non d ame     -11.825  11.764  69.920  0.00  0.00     0.129 H 
ATOM     87  H37 non d ame     -10.476  11.137  70.579  0.00  0.00     0.046 H 
BRANCH  83  88
ATOM     88  O6  non d ame     -12.144  10.481  68.399  0.00  0.00    -0.369 OA
ATOM     89  H45 non d ame     -12.961  10.871  68.079  0.00  0.00     0.212 HD
ENDBRANCH  83  88
ENDBRANCH  72  75
ENDBRANCH  47  72
ENDBRANCH  45  47
ENDBRANCH   1  43
BRANCH   1  90
ATOM     90  C16 non d ame      -5.627  12.761  67.434  0.00  0.00    -0.035 C 
ATOM     91  H21 non d ame      -5.738  13.252  66.466  0.00  0.00     0.037 H 
ATOM     92  H22 non d ame      -6.166  13.141  68.302  0.00  0.00     0.037 H 
BRANCH  90  93
ATOM     93  C17 non d ame      -4.108  12.831  67.792  0.00  0.00    -0.059 C 
ATOM     94  H23 non d ame      -3.645  13.560  67.127  0.00  0.00     0.038 H 
BRANCH  93  95
ATOM     95  C18 non d ame      -3.870  13.306  69.261  0.00  0.00    -0.073 C 
ATOM     96  H24 non d ame      -2.923  13.841  69.321  0.00  0.00     0.028 H 
ATOM     97  H25 non d ame      -4.682  13.968  69.565  0.00  0.00     0.028 H 
ATOM     98  H26 non d ame      -3.842  12.439  69.922  0.00  0.00     0.028 H 
ENDBRANCH  93  95
BRANCH  93  99
ATOM     99  C19 non d ame      -3.425  11.485  67.537  0.00  0.00    -0.073 C 
ATOM    100  H27 non d ame      -3.298  11.339  66.464  0.00  0.00     0.028 H 
ATOM    101  H28 non d ame      -2.448  11.476  68.022  0.00  0.00     0.028 H 
ATOM    102  H29 non d ame      -4.039  10.682  67.944  0.00  0.00     0.028 H 
ENDBRANCH  93  99
ENDBRANCH  90  93
ENDBRANCH   1  90
TORSDOF 26
ENDMDL
MODEL 5
REMARK VINA RESULT:      -6.8      3.166      6.904
REMARK  26 active torsions:
REMARK  status: ('A' for Active; 'I' for Inactive)
REMARK    1  A    between atoms: C2_2  and  C3_3 
REMARK    2  A    between atoms: C4_6  and  C5_7 
REMARK       I    between atoms: C5_7  and  N2_9 
REMARK    3  A    between atoms: N2_9  and  C6_10 
REMARK    4  A    between atoms: C6_10  and  C7_11 
REMARK    5  A    between atoms: C6_10  and  C8_13 
REMARK       I    between atoms: C7_11  and  N3_14 
REMARK    6  A    between atoms: N3_14  and  C9_15 
REMARK    7  A    between atoms: C9_15  and  C10_16 
REMARK    8  A    between atoms: C9_15  and  C11_18 
REMARK       I    between atoms: C10_16  and  N4_21 
REMARK    9  A    between atoms: C11_18  and  C12_19 
REMARK   10  A    between atoms: C11_18  and  C13_20 
REMARK   11  A    between atoms: N4_21  and  C14_22 
REMARK   12  A    between atoms: C14_22  and  C15_23 
REMARK   13  A    between atoms: C14_22  and  C16_25 
REMARK       I    between atoms: C15_23  and  N6_40 
REMARK   14  A    between atoms: C16_25  and  C17_26 
REMARK   15  A    between atoms: C17_26  and  C18_27 
REMARK   16  A    between atoms: C17_26  and  C19_28 
REMARK   17  A    between atoms: C20_29  and  C21_30 
REMARK   18  A    between atoms: C20_29  and  C24_33 
REMARK   19  A    between atoms: C20_29  and  N6_40 
REMARK   20  A    between atoms: C21_30  and  C22_31 
REMARK   21  A    between atoms: C22_31  and  C23_32 
REMARK   22  A    between atoms: C23_32  and  O8_43 
REMARK   23  A    between atoms: C24_33  and  C25_34 
REMARK   24  A    between atoms: C28_38  and  O6_39 
REMARK   25  A    between atoms: C29_42  and  O8_43 
REMARK   26  A    between atoms: C29_42  and  C35_49 
ROOT
ATOM      1  C14 non d ame      -9.425  10.023  65.204  0.00  0.00     0.089 C 
ATOM      2  H20 non d ame      -8.549  10.656  65.350  0.00  0.00     0.087 H 
ENDROOT
BRANCH   1   3
ATOM      3  N4  non d ame      -8.951   8.691  64.863  0.00  0.00    -0.346 N 
ATOM      4  C10 non d ame      -7.568   8.247  65.268  0.00  0.00     0.241 C 
ATOM      5  O4  non d ame      -6.853   8.982  65.866  0.00  0.00    -0.271 OA
ATOM      6  H19 non d ame      -9.574   8.081  64.352  0.00  0.00     0.163 HD
BRANCH   4   7
ATOM      7  C9  non d ame      -7.096   6.862  64.912  0.00  0.00     0.092 C 
ATOM      8  H11 non d ame      -6.207   6.625  65.496  0.00  0.00     0.088 H 
BRANCH   7   9
ATOM      9  N3  non d ame      -8.126   5.885  65.275  0.00  0.00    -0.346 N 
ATOM     10  C7  non d ame      -7.884   4.946  66.343  0.00  0.00     0.240 C 
ATOM     11  O3  non d ame      -6.865   4.961  66.918  0.00  0.00    -0.271 OA
ATOM     12  H10 non d ame      -9.010   5.859  64.787  0.00  0.00     0.163 HD
BRANCH  10  13
ATOM     13  C6  non d ame      -8.984   3.906  66.723  0.00  0.00     0.086 C 
ATOM     14  H6  non d ame      -8.588   2.899  66.844  0.00  0.00     0.086 H 
BRANCH  13  15
ATOM     15  N2  non d ame      -9.565   4.281  68.001  0.00  0.00    -0.343 N 
ATOM     16  C5  non d ame      -9.140   3.586  69.218  0.00  0.00     0.273 C 
ATOM     17  O2  non d ame      -8.332   2.725  69.158  0.00  0.00    -0.266 OA
ATOM     18  H5  non d ame     -10.256   5.017  68.044  0.00  0.00     0.163 HD
BRANCH  16  19
ATOM     19  C4  non d ame      -9.744   3.973  70.577  0.00  0.00     0.154 A 
ATOM     20  C1  non d ame      -9.666   3.234  71.800  0.00  0.00    -0.017 A 
ATOM     21  C2  non d ame     -10.376   4.013  72.741  0.00  0.00     0.077 A 
ATOM     22  H1  non d ame      -9.170   2.280  71.978  0.00  0.00     0.091 H 
ATOM     23  O1  non d ame     -10.806   5.073  72.121  0.00  0.00    -0.218 OA
ATOM     24  N1  non d ame     -10.450   5.072  70.857  0.00  0.00    -0.123 NA
BRANCH  21  25
ATOM     25  C3  non d ame     -10.596   3.674  74.210  0.00  0.00    -0.029 C 
ATOM     26  H2  non d ame     -11.221   2.784  74.288  0.00  0.00     0.036 H 
ATOM     27  H3  non d ame      -9.634   3.486  74.687  0.00  0.00     0.036 H 
ATOM     28  H4  non d ame     -11.090   4.510  74.706  0.00  0.00     0.036 H 
ENDBRANCH  21  25
ENDBRANCH  16  19
ENDBRANCH  13  15
BRANCH  13  29
ATOM     29  C8  non d ame     -10.050   3.886  65.657  0.00  0.00    -0.049 C 
ATOM     30  H7  non d ame      -9.982   2.956  65.093  0.00  0.00     0.030 H 
ATOM     31  H8  non d ame     -11.032   3.956  66.125  0.00  0.00     0.030 H 
ATOM     32  H9  non d ame      -9.906   4.731  64.984  0.00  0.00     0.030 H 
ENDBRANCH  13  29
ENDBRANCH  10  13
ENDBRANCH   7   9
BRANCH   7  33
ATOM     33  C11 non d ame      -6.828   6.784  63.380  0.00  0.00    -0.033 C 
ATOM     34  H12 non d ame      -7.070   7.757  62.954  0.00  0.00     0.042 H 
BRANCH  33  35
ATOM     35  C12 non d ame      -5.323   6.501  63.080  0.00  0.00    -0.071 C 
ATOM     36  H13 non d ame      -4.842   7.419  62.739  0.00  0.00     0.028 H 
ATOM     37  H14 non d ame      -4.831   6.150  63.987  0.00  0.00     0.028 H 
ATOM     38  H15 non d ame      -5.244   5.740  62.305  0.00  0.00     0.028 H 
ENDBRANCH  33  35
BRANCH  33  39
ATOM     39  C13 non d ame      -7.750   5.718  62.705  0.00  0.00    -0.071 C 
ATOM     40  H16 non d ame      -7.254   5.315  61.822  0.00  0.00     0.028 H 
ATOM     41  H17 non d ame      -7.949   4.911  63.410  0.00  0.00     0.028 H 
ATOM     42  H18 non d ame      -8.690   6.185  62.412  0.00  0.00     0.028 H 
ENDBRANCH  33  39
ENDBRANCH   7  33
ENDBRANCH   4   7
ENDBRANCH   1   3
BRANCH   1  43
ATOM     43  C15 non d ame     -10.299   9.925  66.488  0.00  0.00     0.240 C 
ATOM     44  O5  non d ame     -10.920   8.935  66.705  0.00  0.00    -0.271 OA
ATOM     45  N6  non d ame     -10.354  11.062  67.450  0.00  0.00    -0.355 N 
ATOM     46  H46 non d ame      -9.827  11.906  67.278  0.00  0.00     0.162 HD
BRANCH  45  47
ATOM     47  C20 non d ame     -11.188  10.952  68.666  0.00  0.00     0.013 C 
ATOM     48  H30 non d ame     -12.006  10.265  68.452  0.00  0.00     0.072 H 
BRANCH  47  49
ATOM     49  C21 non d ame     -11.739  12.316  69.019  0.00  0.00    -0.038 C 
ATOM     50  H31 non d ame     -12.823  12.203  69.024  0.00  0.00     0.036 H 
ATOM     51  H32 non d ame     -11.217  12.617  69.928  0.00  0.00     0.036 H 
BRANCH  49  52
ATOM     52  C22 non d ame     -11.416  13.386  67.954  0.00  0.00     0.018 C 
ATOM     53  H33 non d ame     -11.070  12.837  67.078  0.00  0.00     0.048 H 
ATOM     54  H34 non d ame     -12.305  14.014  67.888  0.00  0.00     0.048 H 
BRANCH  52  55
ATOM     55  C23 non d ame     -10.251  14.335  68.353  0.00  0.00     0.259 C 
ATOM     56  O7  non d ame      -9.141  14.110  67.995  0.00  0.00    -0.265 OA
BRANCH  55  57
ATOM     57  O8  non d ame     -10.525  15.472  69.163  0.00  0.00    -0.317 OA
BRANCH  57  58
ATOM     58  C29 non d ame     -11.908  15.834  69.210  0.00  0.00     0.052 C 
ATOM     59  H47 non d ame     -11.942  16.898  68.975  0.00  0.00     0.082 H 
ATOM     60  H48 non d ame     -12.422  15.117  68.571  0.00  0.00     0.082 H 
BRANCH  58  61
ATOM     61  C35 non d ame     -12.404  15.636  70.667  0.00  0.00    -0.034 A 
ATOM     62  C30 non d ame     -13.573  14.924  70.914  0.00  0.00    -0.075 A 
ATOM     63  C31 non d ame     -14.020  14.746  72.223  0.00  0.00    -0.082 A 
ATOM     64  H49 non d ame     -14.139  14.503  70.083  0.00  0.00     0.084 H 
ATOM     65  C32 non d ame     -13.294  15.288  73.287  0.00  0.00    -0.083 A 
ATOM     66  H50 non d ame     -14.935  14.185  72.413  0.00  0.00     0.083 H 
ATOM     67  C33 non d ame     -12.130  16.001  73.036  0.00  0.00    -0.082 A 
ATOM     68  H51 non d ame     -13.636  15.153  74.313  0.00  0.00     0.083 H 
ATOM     69  C34 non d ame     -11.679  16.179  71.730  0.00  0.00    -0.075 A 
ATOM     70  H52 non d ame     -11.567  16.424  73.868  0.00  0.00     0.083 H 
ATOM     71  H53 non d ame     -10.763  16.739  71.540  0.00  0.00     0.084 H 
ENDBRANCH  58  61
ENDBRANCH  57  58
ENDBRANCH  55  57
ENDBRANCH  52  55
ENDBRANCH  49  52
ENDBRANCH  47  49
BRANCH  47  72
ATOM     72  C24 non d ame     -10.344  10.428  69.826  0.00  0.00    -0.039 C 
ATOM     73  H35 non d ame      -9.331  10.340  69.431  0.00  0.00     0.036 H 
ATOM     74  H36 non d ame     -10.547  11.099  70.660  0.00  0.00     0.036 H 
BRANCH  72  75
ATOM     75  C25 non d ame     -10.804   8.961  70.277  0.00  0.00    -0.001 C 
ATOM     76  C26 non d ame     -12.214   9.051  71.119  0.00  0.00    -0.035 C 
ATOM     77  C27 non d ame     -12.068   8.379  72.287  0.00  0.00     0.085 C 
ATOM     78  H38 non d ame     -12.395  10.077  71.437  0.00  0.00     0.036 H 
ATOM     79  H39 non d ame     -12.995   8.494  70.601  0.00  0.00     0.036 H 
ATOM     80  N5  non d ame     -10.592   8.119  72.465  0.00  0.00    -0.049 N 
ATOM     81  H40 non d ame     -12.404   9.067  73.063  0.00  0.00     0.075 H 
ATOM     82  H41 non d ame     -12.581   7.429  72.141  0.00  0.00     0.075 H 
ATOM     83  C28 non d ame      -9.914   8.402  71.028  0.00  0.00     0.193 C 
ATOM     84  H42 non d ame     -10.257   8.810  73.121  0.00  0.00     0.280 HD
ATOM     85  H43 non d ame     -10.498   7.135  72.676  0.00  0.00     0.280 HD
ATOM     86  H44 non d ame      -9.606   7.575  70.388  0.00  0.00     0.129 H 
ATOM     87  H37 non d ame     -10.761   8.244  69.457  0.00  0.00     0.046 H 
BRANCH  83  88
ATOM     88  O6  non d ame      -8.751   9.218  71.184  0.00  0.00    -0.369 OA
ATOM     89  H45 non d ame      -8.478   9.553  70.327  0.00  0.00     0.212 HD
ENDBRANCH  83  88
ENDBRANCH  72  75
ENDBRANCH  47  72
ENDBRANCH  45  47
ENDBRANCH   1  43
BRANCH   1  90
ATOM     90  C16 non d ame     -10.263  10.561  64.055  0.00  0.00    -0.035 C 
ATOM     91  H21 non d ame      -9.546  10.937  63.325  0.00  0.00     0.037 H 
ATOM     92  H22 non d ame     -10.939   9.749  63.786  0.00  0.00     0.037 H 
BRANCH  90  93
ATOM     93  C17 non d ame     -11.166  11.773  64.451  0.00  0.00    -0.059 C 
ATOM     94  H23 non d ame     -11.516  11.605  65.470  0.00  0.00     0.038 H 
BRANCH  93  95
ATOM     95  C18 non d ame     -10.380  13.123  64.433  0.00  0.00    -0.073 C 
ATOM     96  H24 non d ame     -10.874  13.821  63.757  0.00  0.00     0.028 H 
ATOM     97  H25 non d ame     -10.359  13.544  65.439  0.00  0.00     0.028 H 
ATOM     98  H26 non d ame      -9.360  12.945  64.092  0.00  0.00     0.028 H 
ENDBRANCH  93  95
BRANCH  93  99
ATOM     99  C19 non d ame     -12.403  11.850  63.553  0.00  0.00    -0.073 C 
ATOM    100  H27 non d ame     -13.258  11.417  64.073  0.00  0.00     0.028 H 
ATOM    101  H28 non d ame     -12.613  12.893  63.313  0.00  0.00     0.028 H 
ATOM    102  H29 non d ame     -12.219  11.296  62.632  0.00  0.00     0.028 H 
ENDBRANCH  93  99
ENDBRANCH  90  93
ENDBRANCH   1  90
TORSDOF 26
ENDMDL
MODEL 6
REMARK VINA RESULT:      -6.8      2.852      5.588
REMARK  26 active torsions:
REMARK  status: ('A' for Active; 'I' for Inactive)
REMARK    1  A    between atoms: C2_2  and  C3_3 
REMARK    2  A    between atoms: C4_6  and  C5_7 
REMARK       I    between atoms: C5_7  and  N2_9 
REMARK    3  A    between atoms: N2_9  and  C6_10 
REMARK    4  A    between atoms: C6_10  and  C7_11 
REMARK    5  A    between atoms: C6_10  and  C8_13 
REMARK       I    between atoms: C7_11  and  N3_14 
REMARK    6  A    between atoms: N3_14  and  C9_15 
REMARK    7  A    between atoms: C9_15  and  C10_16 
REMARK    8  A    between atoms: C9_15  and  C11_18 
REMARK       I    between atoms: C10_16  and  N4_21 
REMARK    9  A    between atoms: C11_18  and  C12_19 
REMARK   10  A    between atoms: C11_18  and  C13_20 
REMARK   11  A    between atoms: N4_21  and  C14_22 
REMARK   12  A    between atoms: C14_22  and  C15_23 
REMARK   13  A    between atoms: C14_22  and  C16_25 
REMARK       I    between atoms: C15_23  and  N6_40 
REMARK   14  A    between atoms: C16_25  and  C17_26 
REMARK   15  A    between atoms: C17_26  and  C18_27 
REMARK   16  A    between atoms: C17_26  and  C19_28 
REMARK   17  A    between atoms: C20_29  and  C21_30 
REMARK   18  A    between atoms: C20_29  and  C24_33 
REMARK   19  A    between atoms: C20_29  and  N6_40 
REMARK   20  A    between atoms: C21_30  and  C22_31 
REMARK   21  A    between atoms: C22_31  and  C23_32 
REMARK   22  A    between atoms: C23_32  and  O8_43 
REMARK   23  A    between atoms: C24_33  and  C25_34 
REMARK   24  A    between atoms: C28_38  and  O6_39 
REMARK   25  A    between atoms: C29_42  and  O8_43 
REMARK   26  A    between atoms: C29_42  and  C35_49 
ROOT
ATOM      1  C14 non d ame     -12.144  13.643  69.853  0.00  0.00     0.089 C 
ATOM      2  H20 non d ame     -13.232  13.610  69.809  0.00  0.00     0.087 H 
ENDROOT
BRANCH   1   3
ATOM      3  N4  non d ame     -11.691  12.389  70.436  0.00  0.00    -0.346 N 
ATOM      4  C10 non d ame     -11.872  11.092  69.689  0.00  0.00     0.241 C 
ATOM      5  O4  non d ame     -12.388  11.082  68.620  0.00  0.00    -0.271 OA
ATOM      6  H19 non d ame     -11.257  12.418  71.348  0.00  0.00     0.163 HD
BRANCH   4   7
ATOM      7  C9  non d ame     -11.393   9.804  70.305  0.00  0.00     0.092 C 
ATOM      8  H11 non d ame     -11.551   8.988  69.599  0.00  0.00     0.088 H 
BRANCH   7   9
ATOM      9  N3  non d ame      -9.951   9.888  70.554  0.00  0.00    -0.346 N 
ATOM     10  C7  non d ame      -9.018   9.522  69.517  0.00  0.00     0.240 C 
ATOM     11  O3  non d ame      -9.410   9.157  68.476  0.00  0.00    -0.271 OA
ATOM     12  H10 non d ame      -9.597  10.199  71.448  0.00  0.00     0.163 HD
BRANCH  10  13
ATOM     13  C6  non d ame      -7.484   9.611  69.789  0.00  0.00     0.086 C 
ATOM     14  H6  non d ame      -6.888   9.154  69.000  0.00  0.00     0.086 H 
BRANCH  13  15
ATOM     15  N2  non d ame      -7.095  11.010  69.846  0.00  0.00    -0.343 N 
ATOM     16  C5  non d ame      -6.250  11.568  68.788  0.00  0.00     0.273 C 
ATOM     17  O2  non d ame      -5.885  10.881  67.897  0.00  0.00    -0.266 OA
ATOM     18  H5  non d ame      -7.409  11.589  70.612  0.00  0.00     0.163 HD
BRANCH  16  19
ATOM     19  C4  non d ame      -5.833  13.046  68.834  0.00  0.00     0.154 A 
ATOM     20  C1  non d ame      -6.034  14.033  67.818  0.00  0.00    -0.017 A 
ATOM     21  C2  non d ame      -5.475  15.218  68.347  0.00  0.00     0.077 A 
ATOM     22  H1  non d ame      -6.512  13.909  66.846  0.00  0.00     0.091 H 
ATOM     23  O1  non d ame      -5.011  14.934  69.528  0.00  0.00    -0.218 OA
ATOM     24  N1  non d ame      -5.208  13.672  69.835  0.00  0.00    -0.123 NA
BRANCH  21  25
ATOM     25  C3  non d ame      -5.425  16.576  67.660  0.00  0.00    -0.029 C 
ATOM     26  H2  non d ame      -4.863  16.494  66.730  0.00  0.00     0.036 H 
ATOM     27  H3  non d ame      -6.440  16.910  67.442  0.00  0.00     0.036 H 
ATOM     28  H4  non d ame      -4.938  17.299  68.316  0.00  0.00     0.036 H 
ENDBRANCH  21  25
ENDBRANCH  16  19
ENDBRANCH  13  15
BRANCH  13  29
ATOM     29  C8  non d ame      -7.163   8.933  71.097  0.00  0.00    -0.049 C 
ATOM     30  H7  non d ame      -7.979   8.264  71.370  0.00  0.00     0.030 H 
ATOM     31  H8  non d ame      -6.242   8.358  70.992  0.00  0.00     0.030 H 
ATOM     32  H9  non d ame      -7.035   9.685  71.874  0.00  0.00     0.030 H 
ENDBRANCH  13  29
ENDBRANCH  10  13
ENDBRANCH   7   9
BRANCH   7  33
ATOM     33  C11 non d ame     -12.136   9.565  71.652  0.00  0.00    -0.033 C 
ATOM     34  H12 non d ame     -11.965  10.438  72.281  0.00  0.00     0.042 H 
BRANCH  33  35
ATOM     35  C12 non d ame     -13.676   9.438  71.436  0.00  0.00    -0.071 C 
ATOM     36  H13 non d ame     -13.947   9.880  70.477  0.00  0.00     0.028 H 
ATOM     37  H14 non d ame     -13.958   8.385  71.442  0.00  0.00     0.028 H 
ATOM     38  H15 non d ame     -14.199   9.959  72.237  0.00  0.00     0.028 H 
ENDBRANCH  33  35
BRANCH  33  39
ATOM     39  C13 non d ame     -11.563   8.315  72.393  0.00  0.00    -0.071 C 
ATOM     40  H16 non d ame     -12.213   7.458  72.218  0.00  0.00     0.028 H 
ATOM     41  H17 non d ame     -10.563   8.095  72.017  0.00  0.00     0.028 H 
ATOM     42  H18 non d ame     -11.511   8.519  73.463  0.00  0.00     0.028 H 
ENDBRANCH  33  39
ENDBRANCH   7  33
ENDBRANCH   4   7
ENDBRANCH   1   3
BRANCH   1  43
ATOM     43  C15 non d ame     -11.503  13.793  68.444  0.00  0.00     0.240 C 
ATOM     44  O5  non d ame     -12.134  14.267  67.555  0.00  0.00    -0.271 OA
ATOM     45  N6  non d ame     -10.098  13.355  68.204  0.00  0.00    -0.355 N 
ATOM     46  H46 non d ame      -9.550  12.956  68.953  0.00  0.00     0.162 HD
BRANCH  45  47
ATOM     47  C20 non d ame      -9.502  13.507  66.859  0.00  0.00     0.013 C 
ATOM     48  H30 non d ame      -8.419  13.526  66.972  0.00  0.00     0.072 H 
BRANCH  47  49
ATOM     49  C21 non d ame      -9.981  14.802  66.244  0.00  0.00    -0.038 C 
ATOM     50  H31 non d ame     -10.041  14.614  65.171  0.00  0.00     0.036 H 
ATOM     51  H32 non d ame     -10.877  15.079  66.800  0.00  0.00     0.036 H 
BRANCH  49  52
ATOM     52  C22 non d ame      -8.977  15.960  66.429  0.00  0.00     0.018 C 
ATOM     53  H33 non d ame      -7.991  15.496  66.446  0.00  0.00     0.048 H 
ATOM     54  H34 non d ame      -9.222  16.690  65.657  0.00  0.00     0.048 H 
BRANCH  52  55
ATOM     55  C23 non d ame      -9.124  16.706  67.784  0.00  0.00     0.259 C 
ATOM     56  O7  non d ame      -8.914  16.142  68.809  0.00  0.00    -0.265 OA
BRANCH  55  57
ATOM     57  O8  non d ame      -9.526  18.070  67.789  0.00  0.00    -0.317 OA
BRANCH  57  58
ATOM     58  C29 non d ame      -8.850  18.880  66.823  0.00  0.00     0.052 C 
ATOM     59  H47 non d ame      -8.429  18.184  66.098  0.00  0.00     0.082 H 
ATOM     60  H48 non d ame      -9.577  19.626  66.503  0.00  0.00     0.082 H 
BRANCH  58  61
ATOM     61  C35 non d ame      -7.683  19.608  67.541  0.00  0.00    -0.034 A 
ATOM     62  C30 non d ame      -7.450  19.385  68.895  0.00  0.00    -0.075 A 
ATOM     63  C31 non d ame      -6.401  20.039  69.540  0.00  0.00    -0.082 A 
ATOM     64  H49 non d ame      -8.089  18.698  69.449  0.00  0.00     0.084 H 
ATOM     65  C32 non d ame      -5.585  20.921  68.827  0.00  0.00    -0.083 A 
ATOM     66  H50 non d ame      -6.220  19.860  70.600  0.00  0.00     0.083 H 
ATOM     67  C33 non d ame      -5.823  21.142  67.477  0.00  0.00    -0.082 A 
ATOM     68  H51 non d ame      -4.762  21.436  69.323  0.00  0.00     0.083 H 
ATOM     69  C34 non d ame      -6.869  20.490  66.828  0.00  0.00    -0.075 A 
ATOM     70  H52 non d ame      -5.186  21.833  66.924  0.00  0.00     0.083 H 
ATOM     71  H53 non d ame      -7.048  20.668  65.767  0.00  0.00     0.084 H 
ENDBRANCH  58  61
ENDBRANCH  57  58
ENDBRANCH  55  57
ENDBRANCH  52  55
ENDBRANCH  49  52
ENDBRANCH  47  49
BRANCH  47  72
ATOM     72  C24 non d ame      -9.923  12.335  65.974  0.00  0.00    -0.039 C 
ATOM     73  H35 non d ame      -8.994  11.839  65.689  0.00  0.00     0.036 H 
ATOM     74  H36 non d ame     -10.676  11.794  66.546  0.00  0.00     0.036 H 
BRANCH  72  75
ATOM     75  C25 non d ame     -10.625  12.835  64.623  0.00  0.00    -0.001 C 
ATOM     76  C26 non d ame     -12.241  12.540  64.690  0.00  0.00    -0.035 C 
ATOM     77  C27 non d ame     -12.611  11.878  63.567  0.00  0.00     0.085 C 
ATOM     78  H38 non d ame     -12.458  11.829  65.487  0.00  0.00     0.036 H 
ATOM     79  H39 non d ame     -12.796  13.476  64.629  0.00  0.00     0.036 H 
ATOM     80  N5  non d ame     -11.344  11.409  62.894  0.00  0.00    -0.049 N 
ATOM     81  H40 non d ame     -13.173  11.010  63.912  0.00  0.00     0.075 H 
ATOM     82  H41 non d ame     -13.092  12.624  62.936  0.00  0.00     0.075 H 
ATOM     83  C28 non d ame     -10.140  12.228  63.592  0.00  0.00     0.193 C 
ATOM     84  H42 non d ame     -11.243  10.431  63.125  0.00  0.00     0.280 HD
ATOM     85  H43 non d ame     -11.410  11.695  61.928  0.00  0.00     0.280 HD
ATOM     86  H44 non d ame      -9.667  13.063  63.075  0.00  0.00     0.129 H 
ATOM     87  H37 non d ame     -10.317  13.843  64.346  0.00  0.00     0.046 H 
BRANCH  83  88
ATOM     88  O6  non d ame      -9.076  11.341  63.939  0.00  0.00    -0.369 OA
ATOM     89  H45 non d ame      -9.137  11.117  64.870  0.00  0.00     0.212 HD
ENDBRANCH  83  88
ENDBRANCH  72  75
ENDBRANCH  47  72
ENDBRANCH  45  47
ENDBRANCH   1  43
BRANCH   1  90
ATOM     90  C16 non d ame     -11.698  14.793  70.743  0.00  0.00    -0.035 C 
ATOM     91  H21 non d ame     -11.111  14.332  71.538  0.00  0.00     0.037 H 
ATOM     92  H22 non d ame     -11.234  15.514  70.071  0.00  0.00     0.037 H 
BRANCH  90  93
ATOM     93  C17 non d ame     -12.880  15.537  71.442  0.00  0.00    -0.059 C 
ATOM     94  H23 non d ame     -13.140  16.398  70.825  0.00  0.00     0.038 H 
BRANCH  93  95
ATOM     95  C18 non d ame     -14.152  14.639  71.566  0.00  0.00    -0.073 C 
ATOM     96  H24 non d ame     -13.873  13.670  71.979  0.00  0.00     0.028 H 
ATOM     97  H25 non d ame     -14.874  15.121  72.226  0.00  0.00     0.028 H 
ATOM     98  H26 non d ame     -14.597  14.501  70.581  0.00  0.00     0.028 H 
ENDBRANCH  93  95
BRANCH  93  99
ATOM     99  C19 non d ame     -12.455  16.072  72.812  0.00  0.00    -0.073 C 
ATOM    100  H27 non d ame     -13.294  16.589  73.277  0.00  0.00     0.028 H 
ATOM    101  H28 non d ame     -12.144  15.241  73.445  0.00  0.00     0.028 H 
ATOM    102  H29 non d ame     -11.623  16.766  72.689  0.00  0.00     0.028 H 
ENDBRANCH  93  99
ENDBRANCH  90  93
ENDBRANCH   1  90
TORSDOF 26
ENDMDL
MODEL 7
REMARK VINA RESULT:      -6.7      3.209      9.438
REMARK  26 active torsions:
REMARK  status: ('A' for Active; 'I' for Inactive)
REMARK    1  A    between atoms: C2_2  and  C3_3 
REMARK    2  A    between atoms: C4_6  and  C5_7 
REMARK       I    between atoms: C5_7  and  N2_9 
REMARK    3  A    between atoms: N2_9  and  C6_10 
REMARK    4  A    between atoms: C6_10  and  C7_11 
REMARK    5  A    between atoms: C6_10  and  C8_13 
REMARK       I    between atoms: C7_11  and  N3_14 
REMARK    6  A    between atoms: N3_14  and  C9_15 
REMARK    7  A    between atoms: C9_15  and  C10_16 
REMARK    8  A    between atoms: C9_15  and  C11_18 
REMARK       I    between atoms: C10_16  and  N4_21 
REMARK    9  A    between atoms: C11_18  and  C12_19 
REMARK   10  A    between atoms: C11_18  and  C13_20 
REMARK   11  A    between atoms: N4_21  and  C14_22 
REMARK   12  A    between atoms: C14_22  and  C15_23 
REMARK   13  A    between atoms: C14_22  and  C16_25 
REMARK       I    between atoms: C15_23  and  N6_40 
REMARK   14  A    between atoms: C16_25  and  C17_26 
REMARK   15  A    between atoms: C17_26  and  C18_27 
REMARK   16  A    between atoms: C17_26  and  C19_28 
REMARK   17  A    between atoms: C20_29  and  C21_30 
REMARK   18  A    between atoms: C20_29  and  C24_33 
REMARK   19  A    between atoms: C20_29  and  N6_40 
REMARK   20  A    between atoms: C21_30  and  C22_31 
REMARK   21  A    between atoms: C22_31  and  C23_32 
REMARK   22  A    between atoms: C23_32  and  O8_43 
REMARK   23  A    between atoms: C24_33  and  C25_34 
REMARK   24  A    between atoms: C28_38  and  O6_39 
REMARK   25  A    between atoms: C29_42  and  O8_43 
REMARK   26  A    between atoms: C29_42  and  C35_49 
ROOT
ATOM      1  C14 non d ame      -6.138  15.239  67.883  0.00  0.00     0.089 C 
ATOM      2  H20 non d ame      -5.491  15.713  67.144  0.00  0.00     0.087 H 
ENDROOT
BRANCH   1   3
ATOM      3  N4  non d ame      -7.513  15.568  67.537  0.00  0.00    -0.346 N 
ATOM      4  C10 non d ame      -7.817  16.782  66.697  0.00  0.00     0.241 C 
ATOM      5  O4  non d ame      -6.939  17.482  66.313  0.00  0.00    -0.271 OA
ATOM      6  H19 non d ame      -8.246  14.961  67.875  0.00  0.00     0.163 HD
BRANCH   4   7
ATOM      7  C9  non d ame      -9.245  17.104  66.343  0.00  0.00     0.092 C 
ATOM      8  H11 non d ame      -9.262  17.725  65.448  0.00  0.00     0.088 H 
BRANCH   7   9
ATOM      9  N3  non d ame      -9.962  15.865  66.025  0.00  0.00    -0.346 N 
ATOM     10  C7  non d ame     -10.916  15.843  64.944  0.00  0.00     0.240 C 
ATOM     11  O3  non d ame     -11.121  16.812  64.321  0.00  0.00    -0.271 OA
ATOM     12  H10 non d ame      -9.797  15.022  66.555  0.00  0.00     0.163 HD
BRANCH  10  13
ATOM     13  C6  non d ame     -11.678  14.522  64.612  0.00  0.00     0.086 C 
ATOM     14  H6  non d ame     -12.236  14.580  63.678  0.00  0.00     0.086 H 
BRANCH  13  15
ATOM     15  N2  non d ame     -10.711  13.448  64.452  0.00  0.00    -0.343 N 
ATOM     16  C5  non d ame     -11.031  12.314  63.582  0.00  0.00     0.273 C 
ATOM     17  O2  non d ame     -12.068  12.274  63.017  0.00  0.00    -0.266 OA
ATOM     18  H5  non d ame      -9.828  13.489  64.940  0.00  0.00     0.163 HD
BRANCH  16  19
ATOM     19  C4  non d ame     -10.018  11.173  63.402  0.00  0.00     0.154 A 
ATOM     20  C1  non d ame      -8.926  11.123  62.478  0.00  0.00    -0.017 A 
ATOM     21  C2  non d ame      -8.309   9.873  62.712  0.00  0.00     0.077 A 
ATOM     22  H1  non d ame      -8.628  11.877  61.750  0.00  0.00     0.091 H 
ATOM     23  O1  non d ame      -8.975   9.284  63.661  0.00  0.00    -0.218 OA
ATOM     24  N1  non d ame      -9.977  10.022  64.080  0.00  0.00    -0.123 NA
BRANCH  21  25
ATOM     25  C3  non d ame      -7.089   9.321  61.986  0.00  0.00    -0.029 C 
ATOM     26  H2  non d ame      -7.167   8.235  61.919  0.00  0.00     0.036 H 
ATOM     27  H3  non d ame      -7.041   9.744  60.983  0.00  0.00     0.036 H 
ATOM     28  H4  non d ame      -6.187   9.587  62.537  0.00  0.00     0.036 H 
ENDBRANCH  21  25
ENDBRANCH  16  19
ENDBRANCH  13  15
BRANCH  13  29
ATOM     29  C8  non d ame     -12.633  14.194  65.732  0.00  0.00    -0.049 C 
ATOM     30  H7  non d ame     -12.073  14.046  66.655  0.00  0.00     0.030 H 
ATOM     31  H8  non d ame     -13.336  15.017  65.861  0.00  0.00     0.030 H 
ATOM     32  H9  non d ame     -13.179  13.284  65.488  0.00  0.00     0.030 H 
ENDBRANCH  13  29
ENDBRANCH  10  13
ENDBRANCH   7   9
BRANCH   7  33
ATOM     33  C11 non d ame      -9.934  17.803  67.553  0.00  0.00    -0.033 C 
ATOM     34  H12 non d ame      -9.151  18.103  68.249  0.00  0.00     0.042 H 
BRANCH  33  35
ATOM     35  C12 non d ame     -10.687  19.095  67.109  0.00  0.00    -0.071 C 
ATOM     36  H13 non d ame     -10.072  19.649  66.399  0.00  0.00     0.028 H 
ATOM     37  H14 non d ame     -11.630  18.821  66.636  0.00  0.00     0.028 H 
ATOM     38  H15 non d ame     -10.885  19.717  67.981  0.00  0.00     0.028 H 
ENDBRANCH  33  35
BRANCH  33  39
ATOM     39  C13 non d ame     -10.890  16.817  68.297  0.00  0.00    -0.071 C 
ATOM     40  H16 non d ame     -11.102  17.200  69.295  0.00  0.00     0.028 H 
ATOM     41  H17 non d ame     -11.822  16.723  67.739  0.00  0.00     0.028 H 
ATOM     42  H18 non d ame     -10.414  15.839  68.376  0.00  0.00     0.028 H 
ENDBRANCH  33  39
ENDBRANCH   7  33
ENDBRANCH   4   7
ENDBRANCH   1   3
BRANCH   1  43
ATOM     43  C15 non d ame      -5.985  13.691  67.890  0.00  0.00     0.240 C 
ATOM     44  O5  non d ame      -5.182  13.179  68.601  0.00  0.00    -0.271 OA
ATOM     45  N6  non d ame      -6.848  12.845  67.017  0.00  0.00    -0.355 N 
ATOM     46  H46 non d ame      -7.538  13.267  66.413  0.00  0.00     0.162 HD
BRANCH  45  47
ATOM     47  C20 non d ame      -6.692  11.374  67.037  0.00  0.00     0.013 C 
ATOM     48  H30 non d ame      -6.284  11.093  68.007  0.00  0.00     0.072 H 
BRANCH  47  49
ATOM     49  C21 non d ame      -5.742  10.958  65.936  0.00  0.00    -0.038 C 
ATOM     50  H31 non d ame      -6.155  10.037  65.523  0.00  0.00     0.036 H 
ATOM     51  H32 non d ame      -5.626  11.836  65.301  0.00  0.00     0.036 H 
BRANCH  49  52
ATOM     52  C22 non d ame      -4.333  10.608  66.461  0.00  0.00     0.018 C 
ATOM     53  H33 non d ame      -3.780  10.235  65.599  0.00  0.00     0.048 H 
ATOM     54  H34 non d ame      -3.985  11.497  66.989  0.00  0.00     0.048 H 
BRANCH  52  55
ATOM     55  C23 non d ame      -4.322   9.459  67.507  0.00  0.00     0.259 C 
ATOM     56  O7  non d ame      -3.835   9.622  68.578  0.00  0.00    -0.265 OA
BRANCH  55  57
ATOM     57  O8  non d ame      -4.890   8.200  67.165  0.00  0.00    -0.317 OA
BRANCH  57  58
ATOM     58  C29 non d ame      -4.246   7.550  66.066  0.00  0.00     0.052 C 
ATOM     59  H47 non d ame      -3.735   8.339  65.514  0.00  0.00     0.082 H 
ATOM     60  H48 non d ame      -3.673   6.731  66.501  0.00  0.00     0.082 H 
BRANCH  58  61
ATOM     61  C35 non d ame      -5.347   6.947  65.153  0.00  0.00    -0.034 A 
ATOM     62  C30 non d ame      -5.007   6.393  63.923  0.00  0.00    -0.075 A 
ATOM     63  C31 non d ame      -5.996   5.852  63.104  0.00  0.00    -0.082 A 
ATOM     64  H49 non d ame      -3.965   6.383  63.602  0.00  0.00     0.084 H 
ATOM     65  C32 non d ame      -7.331   5.868  63.517  0.00  0.00    -0.083 A 
ATOM     66  H50 non d ame      -5.726   5.417  62.141  0.00  0.00     0.083 H 
ATOM     67  C33 non d ame      -7.666   6.425  64.744  0.00  0.00    -0.082 A 
ATOM     68  H51 non d ame      -8.110   5.447  62.883  0.00  0.00     0.083 H 
ATOM     69  C34 non d ame      -6.680   6.965  65.567  0.00  0.00    -0.075 A 
ATOM     70  H52 non d ame      -8.709   6.438  65.062  0.00  0.00     0.083 H 
ATOM     71  H53 non d ame      -6.951   7.400  66.530  0.00  0.00     0.084 H 
ENDBRANCH  58  61
ENDBRANCH  57  58
ENDBRANCH  55  57
ENDBRANCH  52  55
ENDBRANCH  49  52
ENDBRANCH  47  49
BRANCH  47  72
ATOM     72  C24 non d ame      -8.049  10.708  66.818  0.00  0.00    -0.039 C 
ATOM     73  H35 non d ame      -8.630  11.418  66.230  0.00  0.00     0.036 H 
ATOM     74  H36 non d ame      -7.826   9.720  66.415  0.00  0.00     0.036 H 
BRANCH  72  75
ATOM     75  C25 non d ame      -8.830  10.488  68.200  0.00  0.00    -0.001 C 
ATOM     76  C26 non d ame      -8.854   8.889  68.581  0.00  0.00    -0.035 C 
ATOM     77  C27 non d ame     -10.131   8.523  68.847  0.00  0.00     0.085 C 
ATOM     78  H38 non d ame      -8.595   8.292  67.707  0.00  0.00     0.036 H 
ATOM     79  H39 non d ame      -8.339   8.723  69.528  0.00  0.00     0.036 H 
ATOM     80  N5  non d ame     -11.021   9.643  68.365  0.00  0.00    -0.049 N 
ATOM     81  H40 non d ame     -10.314   7.637  68.238  0.00  0.00     0.075 H 
ATOM     82  H41 non d ame     -10.196   8.461  69.933  0.00  0.00     0.075 H 
ATOM     83  C28 non d ame     -10.049  10.908  68.119  0.00  0.00     0.193 C 
ATOM     84  H42 non d ame     -11.396   9.348  67.475  0.00  0.00     0.280 HD
ATOM     85  H43 non d ame     -11.646   9.862  69.128  0.00  0.00     0.280 HD
ATOM     86  H44 non d ame     -10.022  11.733  68.832  0.00  0.00     0.129 H 
ATOM     87  H37 non d ame      -8.499  11.179  68.976  0.00  0.00     0.046 H 
BRANCH  83  88
ATOM     88  O6  non d ame     -10.330  11.507  66.853  0.00  0.00    -0.369 OA
ATOM     89  H45 non d ame     -11.173  11.964  66.895  0.00  0.00     0.212 HD
ENDBRANCH  83  88
ENDBRANCH  72  75
ENDBRANCH  47  72
ENDBRANCH  45  47
ENDBRANCH   1  43
BRANCH   1  90
ATOM     90  C16 non d ame      -5.829  15.789  69.266  0.00  0.00    -0.035 C 
ATOM     91  H21 non d ame      -6.798  16.038  69.701  0.00  0.00     0.037 H 
ATOM     92  H22 non d ame      -5.196  15.039  69.741  0.00  0.00     0.037 H 
BRANCH  90  93
ATOM     93  C17 non d ame      -5.002  17.114  69.243  0.00  0.00    -0.059 C 
ATOM     94  H23 non d ame      -5.384  17.728  68.427  0.00  0.00     0.038 H 
BRANCH  93  95
ATOM     95  C18 non d ame      -5.159  17.930  70.567  0.00  0.00    -0.073 C 
ATOM     96  H24 non d ame      -6.112  18.458  70.557  0.00  0.00     0.028 H 
ATOM     97  H25 non d ame      -5.129  17.249  71.418  0.00  0.00     0.028 H 
ATOM     98  H26 non d ame      -4.344  18.649  70.648  0.00  0.00     0.028 H 
ENDBRANCH  93  95
BRANCH  93  99
ATOM     99  C19 non d ame      -3.527  16.833  68.948  0.00  0.00    -0.073 C 
ATOM    100  H27 non d ame      -2.920  17.668  69.299  0.00  0.00     0.028 H 
ATOM    101  H28 non d ame      -3.221  15.921  69.462  0.00  0.00     0.028 H 
ATOM    102  H29 non d ame      -3.388  16.708  67.874  0.00  0.00     0.028 H 
ENDBRANCH  93  99
ENDBRANCH  90  93
ENDBRANCH   1  90
TORSDOF 26
ENDMDL
MODEL 8
REMARK VINA RESULT:      -6.6      1.413      2.035
REMARK  26 active torsions:
REMARK  status: ('A' for Active; 'I' for Inactive)
REMARK    1  A    between atoms: C2_2  and  C3_3 
REMARK    2  A    between atoms: C4_6  and  C5_7 
REMARK       I    between atoms: C5_7  and  N2_9 
REMARK    3  A    between atoms: N2_9  and  C6_10 
REMARK    4  A    between atoms: C6_10  and  C7_11 
REMARK    5  A    between atoms: C6_10  and  C8_13 
REMARK       I    between atoms: C7_11  and  N3_14 
REMARK    6  A    between atoms: N3_14  and  C9_15 
REMARK    7  A    between atoms: C9_15  and  C10_16 
REMARK    8  A    between atoms: C9_15  and  C11_18 
REMARK       I    between atoms: C10_16  and  N4_21 
REMARK    9  A    between atoms: C11_18  and  C12_19 
REMARK   10  A    between atoms: C11_18  and  C13_20 
REMARK   11  A    between atoms: N4_21  and  C14_22 
REMARK   12  A    between atoms: C14_22  and  C15_23 
REMARK   13  A    between atoms: C14_22  and  C16_25 
REMARK       I    between atoms: C15_23  and  N6_40 
REMARK   14  A    between atoms: C16_25  and  C17_26 
REMARK   15  A    between atoms: C17_26  and  C18_27 
REMARK   16  A    between atoms: C17_26  and  C19_28 
REMARK   17  A    between atoms: C20_29  and  C21_30 
REMARK   18  A    between atoms: C20_29  and  C24_33 
REMARK   19  A    between atoms: C20_29  and  N6_40 
REMARK   20  A    between atoms: C21_30  and  C22_31 
REMARK   21  A    between atoms: C22_31  and  C23_32 
REMARK   22  A    between atoms: C23_32  and  O8_43 
REMARK   23  A    between atoms: C24_33  and  C25_34 
REMARK   24  A    between atoms: C28_38  and  O6_39 
REMARK   25  A    between atoms: C29_42  and  O8_43 
REMARK   26  A    between atoms: C29_42  and  C35_49 
ROOT
ATOM      1  C14 non d ame     -10.983   9.192  69.419  0.00  0.00     0.089 C 
ATOM      2  H20 non d ame     -11.950   8.721  69.595  0.00  0.00     0.087 H 
ENDROOT
BRANCH   1   3
ATOM      3  N4  non d ame     -10.160   8.243  68.684  0.00  0.00    -0.346 N 
ATOM      4  C10 non d ame     -10.466   6.768  68.739  0.00  0.00     0.241 C 
ATOM      5  O4  non d ame     -11.378   6.368  69.385  0.00  0.00    -0.271 OA
ATOM      6  H19 non d ame      -9.387   8.604  68.142  0.00  0.00     0.163 HD
BRANCH   4   7
ATOM      7  C9  non d ame      -9.608   5.800  67.967  0.00  0.00     0.092 C 
ATOM      8  H11 non d ame     -10.248   5.155  67.365  0.00  0.00     0.088 H 
BRANCH   7   9
ATOM      9  N3  non d ame      -8.746   6.541  67.042  0.00  0.00    -0.346 N 
ATOM     10  C7  non d ame      -8.651   6.133  65.662  0.00  0.00     0.240 C 
ATOM     11  O3  non d ame      -9.261   5.210  65.279  0.00  0.00    -0.271 OA
ATOM     12  H10 non d ame      -8.212   7.338  67.358  0.00  0.00     0.163 HD
BRANCH  10  13
ATOM     13  C6  non d ame      -7.729   6.924  64.683  0.00  0.00     0.086 C 
ATOM     14  H6  non d ame      -7.362   6.310  63.860  0.00  0.00     0.086 H 
BRANCH  13  15
ATOM     15  N2  non d ame      -8.495   8.006  64.084  0.00  0.00    -0.343 N 
ATOM     16  C5  non d ame      -8.881   9.156  64.905  0.00  0.00     0.273 C 
ATOM     17  O2  non d ame      -8.574   9.200  66.046  0.00  0.00    -0.266 OA
ATOM     18  H5  non d ame      -8.755   7.959  63.110  0.00  0.00     0.163 HD
BRANCH  16  19
ATOM     19  C4  non d ame      -9.689  10.307  64.286  0.00  0.00     0.154 A 
ATOM     20  C1  non d ame     -10.428  11.316  64.980  0.00  0.00    -0.017 A 
ATOM     21  C2  non d ame     -10.981  12.126  63.963  0.00  0.00     0.077 A 
ATOM     22  H1  non d ame     -10.545  11.442  66.057  0.00  0.00     0.091 H 
ATOM     23  O1  non d ame     -10.597  11.632  62.823  0.00  0.00    -0.218 OA
ATOM     24  N1  non d ame      -9.843  10.570  62.985  0.00  0.00    -0.123 NA
BRANCH  21  25
ATOM     25  C3  non d ame     -11.862  13.352  64.166  0.00  0.00    -0.029 C 
ATOM     26  H2  non d ame     -12.890  13.110  63.893  0.00  0.00     0.036 H 
ATOM     27  H3  non d ame     -11.826  13.656  65.212  0.00  0.00     0.036 H 
ATOM     28  H4  non d ame     -11.502  14.167  63.538  0.00  0.00     0.036 H 
ENDBRANCH  21  25
ENDBRANCH  16  19
ENDBRANCH  13  15
BRANCH  13  29
ATOM     29  C8  non d ame      -6.550   7.482  65.438  0.00  0.00    -0.049 C 
ATOM     30  H7  non d ame      -6.533   7.065  66.445  0.00  0.00     0.030 H 
ATOM     31  H8  non d ame      -5.629   7.219  64.919  0.00  0.00     0.030 H 
ATOM     32  H9  non d ame      -6.638   8.567  65.498  0.00  0.00     0.030 H 
ENDBRANCH  13  29
ENDBRANCH  10  13
ENDBRANCH   7   9
BRANCH   7  33
ATOM     33  C11 non d ame      -8.724   4.987  68.958  0.00  0.00    -0.033 C 
ATOM     34  H12 non d ame      -7.899   4.560  68.387  0.00  0.00     0.042 H 
BRANCH  33  35
ATOM     35  C12 non d ame      -8.108   5.908  70.057  0.00  0.00    -0.071 C 
ATOM     36  H13 non d ame      -8.736   5.880  70.948  0.00  0.00     0.028 H 
ATOM     37  H14 non d ame      -7.108   5.555  70.307  0.00  0.00     0.028 H 
ATOM     38  H15 non d ame      -8.051   6.930  69.684  0.00  0.00     0.028 H 
ENDBRANCH  33  35
BRANCH  33  39
ATOM     39  C13 non d ame      -9.532   3.810  69.592  0.00  0.00    -0.071 C 
ATOM     40  H16 non d ame      -8.865   2.968  69.774  0.00  0.00     0.028 H 
ATOM     41  H17 non d ame      -9.970   4.137  70.536  0.00  0.00     0.028 H 
ATOM     42  H18 non d ame     -10.326   3.505  68.910  0.00  0.00     0.028 H 
ENDBRANCH  33  39
ENDBRANCH   7  33
ENDBRANCH   4   7
ENDBRANCH   1   3
BRANCH   1  43
ATOM     43  C15 non d ame     -11.109  10.495  68.577  0.00  0.00     0.240 C 
ATOM     44  O5  non d ame     -11.607  10.456  67.499  0.00  0.00    -0.271 OA
ATOM     45  N6  non d ame     -10.615  11.793  69.119  0.00  0.00    -0.355 N 
ATOM     46  H46 non d ame     -10.194  11.839  70.036  0.00  0.00     0.162 HD
BRANCH  45  47
ATOM     47  C20 non d ame     -10.743  13.022  68.307  0.00  0.00     0.013 C 
ATOM     48  H30 non d ame     -10.835  12.726  67.263  0.00  0.00     0.072 H 
BRANCH  47  49
ATOM     49  C21 non d ame      -9.510  13.876  68.496  0.00  0.00    -0.038 C 
ATOM     50  H31 non d ame      -9.489  14.556  67.644  0.00  0.00     0.036 H 
ATOM     51  H32 non d ame      -9.580  14.273  69.509  0.00  0.00     0.036 H 
BRANCH  49  52
ATOM     52  C22 non d ame      -8.201  13.060  68.436  0.00  0.00     0.018 C 
ATOM     53  H33 non d ame      -7.930  12.859  69.472  0.00  0.00     0.048 H 
ATOM     54  H34 non d ame      -8.400  12.233  67.754  0.00  0.00     0.048 H 
BRANCH  52  55
ATOM     55  C23 non d ame      -7.004  13.841  67.824  0.00  0.00     0.259 C 
ATOM     56  O7  non d ame      -6.348  13.358  66.959  0.00  0.00    -0.265 OA
BRANCH  55  57
ATOM     57  O8  non d ame      -6.692  15.137  68.319  0.00  0.00    -0.317 OA
BRANCH  57  58
ATOM     58  C29 non d ame      -6.647  16.151  67.311  0.00  0.00     0.052 C 
ATOM     59  H47 non d ame      -5.885  16.858  67.638  0.00  0.00     0.082 H 
ATOM     60  H48 non d ame      -6.530  15.622  66.366  0.00  0.00     0.082 H 
BRANCH  58  61
ATOM     61  C35 non d ame      -8.019  16.876  67.301  0.00  0.00    -0.034 A 
ATOM     62  C30 non d ame      -8.868  16.747  66.206  0.00  0.00    -0.075 A 
ATOM     63  C31 non d ame     -10.100  17.398  66.197  0.00  0.00    -0.082 A 
ATOM     64  H49 non d ame      -8.568  16.134  65.356  0.00  0.00     0.084 H 
ATOM     65  C32 non d ame     -10.482  18.185  67.287  0.00  0.00    -0.083 A 
ATOM     66  H50 non d ame     -10.764  17.293  65.339  0.00  0.00     0.083 H 
ATOM     67  C33 non d ame      -9.630  18.314  68.376  0.00  0.00    -0.082 A 
ATOM     68  H51 non d ame     -11.444  18.698  67.288  0.00  0.00     0.083 H 
ATOM     69  C34 non d ame      -8.399  17.663  68.390  0.00  0.00    -0.075 A 
ATOM     70  H52 non d ame      -9.930  18.931  69.224  0.00  0.00     0.083 H 
ATOM     71  H53 non d ame      -7.736  17.768  69.250  0.00  0.00     0.084 H 
ENDBRANCH  58  61
ENDBRANCH  57  58
ENDBRANCH  55  57
ENDBRANCH  52  55
ENDBRANCH  49  52
ENDBRANCH  47  49
BRANCH  47  72
ATOM     72  C24 non d ame     -11.979  13.805  68.747  0.00  0.00    -0.039 C 
ATOM     73  H35 non d ame     -11.986  14.705  68.132  0.00  0.00     0.036 H 
ATOM     74  H36 non d ame     -12.806  13.098  68.689  0.00  0.00     0.036 H 
BRANCH  72  75
ATOM     75  C25 non d ame     -11.868  14.278  70.274  0.00  0.00    -0.001 C 
ATOM     76  C26 non d ame     -12.820  13.331  71.224  0.00  0.00    -0.035 C 
ATOM     77  C27 non d ame     -13.611  14.128  71.981  0.00  0.00     0.085 C 
ATOM     78  H38 non d ame     -13.529  12.778  70.609  0.00  0.00     0.036 H 
ATOM     79  H39 non d ame     -12.210  12.805  71.959  0.00  0.00     0.036 H 
ATOM     80  N5  non d ame     -13.519  15.519  71.402  0.00  0.00    -0.049 N 
ATOM     81  H40 non d ame     -14.625  13.751  71.841  0.00  0.00     0.075 H 
ATOM     82  H41 non d ame     -13.161  14.127  72.973  0.00  0.00     0.075 H 
ATOM     83  C28 non d ame     -12.244  15.505  70.412  0.00  0.00     0.193 C 
ATOM     84  H42 non d ame     -14.354  15.655  70.849  0.00  0.00     0.280 HD
ATOM     85  H43 non d ame     -13.319  16.138  72.175  0.00  0.00     0.280 HD
ATOM     86  H44 non d ame     -11.304  15.968  70.713  0.00  0.00     0.129 H 
ATOM     87  H37 non d ame     -10.834  14.416  70.590  0.00  0.00     0.046 H 
BRANCH  83  88
ATOM     88  O6  non d ame     -12.584  16.108  69.162  0.00  0.00    -0.369 OA
ATOM     89  H45 non d ame     -13.536  16.088  69.046  0.00  0.00     0.212 HD
ENDBRANCH  83  88
ENDBRANCH  72  75
ENDBRANCH  47  72
ENDBRANCH  45  47
ENDBRANCH   1  43
BRANCH   1  90
ATOM     90  C16 non d ame     -10.312   9.505  70.747  0.00  0.00    -0.035 C 
ATOM     91  H21 non d ame      -9.387   8.928  70.747  0.00  0.00     0.037 H 
ATOM     92  H22 non d ame     -10.275  10.593  70.803  0.00  0.00     0.037 H 
BRANCH  90  93
ATOM     93  C17 non d ame     -11.129   9.027  71.989  0.00  0.00    -0.059 C 
ATOM     94  H23 non d ame     -10.988   9.762  72.781  0.00  0.00     0.038 H 
BRANCH  93  95
ATOM     95  C18 non d ame     -12.660   8.939  71.689  0.00  0.00    -0.073 C 
ATOM     96  H24 non d ame     -13.012   7.927  71.890  0.00  0.00     0.028 H 
ATOM     97  H25 non d ame     -13.196   9.643  72.327  0.00  0.00     0.028 H 
ATOM     98  H26 non d ame     -12.840   9.187  70.643  0.00  0.00     0.028 H 
ENDBRANCH  93  95
BRANCH  93  99
ATOM     99  C19 non d ame     -10.599   7.689  72.511  0.00  0.00    -0.073 C 
ATOM    100  H27 non d ame     -11.290   7.288  73.253  0.00  0.00     0.028 H 
ATOM    101  H28 non d ame     -10.508   6.987  71.682  0.00  0.00     0.028 H 
ATOM    102  H29 non d ame      -9.621   7.839  72.968  0.00  0.00     0.028 H 
ENDBRANCH  93  99
ENDBRANCH  90  93
ENDBRANCH   1  90
TORSDOF 26
ENDMDL
MODEL 9
REMARK VINA RESULT:      -6.6      2.464      4.328
REMARK  26 active torsions:
REMARK  status: ('A' for Active; 'I' for Inactive)
REMARK    1  A    between atoms: C2_2  and  C3_3 
REMARK    2  A    between atoms: C4_6  and  C5_7 
REMARK       I    between atoms: C5_7  and  N2_9 
REMARK    3  A    between atoms: N2_9  and  C6_10 
REMARK    4  A    between atoms: C6_10  and  C7_11 
REMARK    5  A    between atoms: C6_10  and  C8_13 
REMARK       I    between atoms: C7_11  and  N3_14 
REMARK    6  A    between atoms: N3_14  and  C9_15 
REMARK    7  A    between atoms: C9_15  and  C10_16 
REMARK    8  A    between atoms: C9_15  and  C11_18 
REMARK       I    between atoms: C10_16  and  N4_21 
REMARK    9  A    between atoms: C11_18  and  C12_19 
REMARK   10  A    between atoms: C11_18  and  C13_20 
REMARK   11  A    between atoms: N4_21  and  C14_22 
REMARK   12  A    between atoms: C14_22  and  C15_23 
REMARK   13  A    between atoms: C14_22  and  C16_25 
REMARK       I    between atoms: C15_23  and  N6_40 
REMARK   14  A    between atoms: C16_25  and  C17_26 
REMARK   15  A    between atoms: C17_26  and  C18_27 
REMARK   16  A    between atoms: C17_26  and  C19_28 
REMARK   17  A    between atoms: C20_29  and  C21_30 
REMARK   18  A    between atoms: C20_29  and  C24_33 
REMARK   19  A    between atoms: C20_29  and  N6_40 
REMARK   20  A    between atoms: C21_30  and  C22_31 
REMARK   21  A    between atoms: C22_31  and  C23_32 
REMARK   22  A    between atoms: C23_32  and  O8_43 
REMARK   23  A    between atoms: C24_33  and  C25_34 
REMARK   24  A    between atoms: C28_38  and  O6_39 
REMARK   25  A    between atoms: C29_42  and  O8_43 
REMARK   26  A    between atoms: C29_42  and  C35_49 
ROOT
ATOM      1  C14 non d ame      -9.874   7.883  68.981  0.00  0.00     0.089 C 
ATOM      2  H20 non d ame     -10.918   7.577  68.916  0.00  0.00     0.087 H 
ENDROOT
BRANCH   1   3
ATOM      3  N4  non d ame      -9.141   7.163  67.950  0.00  0.00    -0.346 N 
ATOM      4  C10 non d ame      -9.881   6.451  66.846  0.00  0.00     0.241 C 
ATOM      5  O4  non d ame     -11.067   6.469  66.809  0.00  0.00    -0.271 OA
ATOM      6  H19 non d ame      -8.132   7.157  68.001  0.00  0.00     0.163 HD
BRANCH   4   7
ATOM      7  C9  non d ame      -9.106   5.715  65.785  0.00  0.00     0.092 C 
ATOM      8  H11 non d ame      -9.747   5.558  64.917  0.00  0.00     0.088 H 
BRANCH   7   9
ATOM      9  N3  non d ame      -7.976   6.539  65.345  0.00  0.00    -0.346 N 
ATOM     10  C7  non d ame      -7.602   6.564  63.952  0.00  0.00     0.240 C 
ATOM     11  O3  non d ame      -8.199   5.928  63.172  0.00  0.00    -0.271 OA
ATOM     12  H10 non d ame      -7.450   7.092  66.007  0.00  0.00     0.163 HD
BRANCH  10  13
ATOM     13  C6  non d ame      -6.396   7.440  63.491  0.00  0.00     0.086 C 
ATOM     14  H6  non d ame      -6.622   8.038  62.608  0.00  0.00     0.086 H 
BRANCH  13  15
ATOM     15  N2  non d ame      -6.060   8.376  64.551  0.00  0.00    -0.343 N 
ATOM     16  C5  non d ame      -5.717   9.759  64.211  0.00  0.00     0.273 C 
ATOM     17  O2  non d ame      -5.711  10.107  63.081  0.00  0.00    -0.266 OA
ATOM     18  H5  non d ame      -6.065   8.069  65.513  0.00  0.00     0.163 HD
BRANCH  16  19
ATOM     19  C4  non d ame      -5.362  10.759  65.321  0.00  0.00     0.154 A 
ATOM     20  C1  non d ame      -6.130  11.063  66.490  0.00  0.00    -0.017 A 
ATOM     21  C2  non d ame      -5.372  12.036  67.180  0.00  0.00     0.077 A 
ATOM     22  H1  non d ame      -7.089  10.642  66.791  0.00  0.00     0.091 H 
ATOM     23  O1  non d ame      -4.297  12.256  66.482  0.00  0.00    -0.218 OA
ATOM     24  N1  non d ame      -4.268  11.523  65.393  0.00  0.00    -0.123 NA
BRANCH  21  25
ATOM     25  C3  non d ame      -5.746  12.701  68.498  0.00  0.00    -0.029 C 
ATOM     26  H2  non d ame      -6.137  13.700  68.303  0.00  0.00     0.036 H 
ATOM     27  H3  non d ame      -6.507  12.105  69.003  0.00  0.00     0.036 H 
ATOM     28  H4  non d ame      -4.862  12.774  69.132  0.00  0.00     0.036 H 
ENDBRANCH  21  25
ENDBRANCH  16  19
ENDBRANCH  13  15
BRANCH  13  29
ATOM     29  C8  non d ame      -5.214   6.554  63.190  0.00  0.00    -0.049 C 
ATOM     30  H7  non d ame      -4.872   6.080  64.110  0.00  0.00     0.030 H 
ATOM     31  H8  non d ame      -5.507   5.788  62.473  0.00  0.00     0.030 H 
ATOM     32  H9  non d ame      -4.407   7.155  62.771  0.00  0.00     0.030 H 
ENDBRANCH  13  29
ENDBRANCH  10  13
ENDBRANCH   7   9
BRANCH   7  33
ATOM     33  C11 non d ame      -8.572   4.374  66.368  0.00  0.00    -0.033 C 
ATOM     34  H12 non d ame      -8.550   3.648  65.556  0.00  0.00     0.042 H 
BRANCH  33  35
ATOM     35  C12 non d ame      -7.113   4.528  66.900  0.00  0.00    -0.071 C 
ATOM     36  H13 non d ame      -6.630   3.550  66.925  0.00  0.00     0.028 H 
ATOM     37  H14 non d ame      -6.554   5.191  66.241  0.00  0.00     0.028 H 
ATOM     38  H15 non d ame      -7.135   4.947  67.905  0.00  0.00     0.028 H 
ENDBRANCH  33  35
BRANCH  33  39
ATOM     39  C13 non d ame      -9.525   3.828  67.479  0.00  0.00    -0.071 C 
ATOM     40  H16 non d ame     -10.096   2.987  67.087  0.00  0.00     0.028 H 
ATOM     41  H17 non d ame      -8.935   3.500  68.335  0.00  0.00     0.028 H 
ATOM     42  H18 non d ame     -10.209   4.618  67.791  0.00  0.00     0.028 H 
ENDBRANCH  33  39
ENDBRANCH   7  33
ENDBRANCH   4   7
ENDBRANCH   1   3
BRANCH   1  43
ATOM     43  C15 non d ame      -9.692   9.409  68.743  0.00  0.00     0.240 C 
ATOM     44  O5  non d ame      -8.820   9.995  69.298  0.00  0.00    -0.271 OA
ATOM     45  N6  non d ame     -10.602  10.140  67.815  0.00  0.00    -0.355 N 
ATOM     46  H46 non d ame     -11.344   9.653  67.334  0.00  0.00     0.162 HD
BRANCH  45  47
ATOM     47  C20 non d ame     -10.416  11.591  67.598  0.00  0.00     0.013 C 
ATOM     48  H30 non d ame      -9.854  11.988  68.443  0.00  0.00     0.072 H 
BRANCH  47  49
ATOM     49  C21 non d ame     -11.768  12.262  67.516  0.00  0.00    -0.038 C 
ATOM     50  H31 non d ame     -12.037  12.254  66.459  0.00  0.00     0.036 H 
ATOM     51  H32 non d ame     -12.396  11.747  68.243  0.00  0.00     0.036 H 
BRANCH  49  52
ATOM     52  C22 non d ame     -11.729  13.745  67.945  0.00  0.00     0.018 C 
ATOM     53  H33 non d ame     -12.718  13.961  68.350  0.00  0.00     0.048 H 
ATOM     54  H34 non d ame     -10.847  13.845  68.578  0.00  0.00     0.048 H 
BRANCH  52  55
ATOM     55  C23 non d ame     -11.523  14.734  66.764  0.00  0.00     0.259 C 
ATOM     56  O7  non d ame     -12.126  14.595  65.749  0.00  0.00    -0.265 OA
BRANCH  55  57
ATOM     57  O8  non d ame     -10.596  15.803  66.904  0.00  0.00    -0.317 OA
BRANCH  57  58
ATOM     58  C29 non d ame     -10.833  16.634  68.044  0.00  0.00     0.052 C 
ATOM     59  H47 non d ame     -11.897  16.867  68.023  0.00  0.00     0.082 H 
ATOM     60  H48 non d ame     -10.409  16.098  68.893  0.00  0.00     0.082 H 
BRANCH  58  61
ATOM     61  C35 non d ame     -10.037  17.952  67.849  0.00  0.00    -0.034 A 
ATOM     62  C30 non d ame      -8.724  18.047  68.298  0.00  0.00    -0.075 A 
ATOM     63  C31 non d ame      -8.010  19.231  68.123  0.00  0.00    -0.082 A 
ATOM     64  H49 non d ame      -8.255  17.193  68.787  0.00  0.00     0.084 H 
ATOM     65  C32 non d ame      -8.615  20.325  67.498  0.00  0.00    -0.083 A 
ATOM     66  H50 non d ame      -6.980  19.302  68.474  0.00  0.00     0.083 H 
ATOM     67  C33 non d ame      -9.926  20.227  67.054  0.00  0.00    -0.082 A 
ATOM     68  H51 non d ame      -8.063  21.255  67.356  0.00  0.00     0.083 H 
ATOM     69  C34 non d ame     -10.643  19.045  67.225  0.00  0.00    -0.075 A 
ATOM     70  H52 non d ame     -10.396  21.083  66.568  0.00  0.00     0.083 H 
ATOM     71  H53 non d ame     -11.673  18.975  66.872  0.00  0.00     0.084 H 
ENDBRANCH  58  61
ENDBRANCH  57  58
ENDBRANCH  55  57
ENDBRANCH  52  55
ENDBRANCH  49  52
ENDBRANCH  47  49
BRANCH  47  72
ATOM     72  C24 non d ame      -9.651  11.825  66.296  0.00  0.00    -0.039 C 
ATOM     73  H35 non d ame      -9.698  12.900  66.121  0.00  0.00     0.036 H 
ATOM     74  H36 non d ame      -8.685  11.338  66.436  0.00  0.00     0.036 H 
BRANCH  72  75
ATOM     75  C25 non d ame     -10.365  11.111  65.053  0.00  0.00    -0.001 C 
ATOM     76  C26 non d ame      -9.502   9.788  64.595  0.00  0.00    -0.035 C 
ATOM     77  C27 non d ame      -9.272   9.857  63.262  0.00  0.00     0.085 C 
ATOM     78  H38 non d ame      -8.502   9.826  65.028  0.00  0.00     0.036 H 
ATOM     79  H39 non d ame     -10.109   8.890  64.703  0.00  0.00     0.036 H 
ATOM     80  N5  non d ame      -9.615  11.261  62.827  0.00  0.00    -0.049 N 
ATOM     81  H40 non d ame      -8.200   9.700  63.142  0.00  0.00     0.075 H 
ATOM     82  H41 non d ame      -9.979   9.163  62.809  0.00  0.00     0.075 H 
ATOM     83  C28 non d ame     -10.454  11.911  64.043  0.00  0.00     0.193 C 
ATOM     84  H42 non d ame      -8.739  11.756  62.740  0.00  0.00     0.280 HD
ATOM     85  H43 non d ame     -10.225  11.172  62.027  0.00  0.00     0.280 HD
ATOM     86  H44 non d ame     -11.537  12.020  63.972  0.00  0.00     0.129 H 
ATOM     87  H37 non d ame     -11.434  10.974  65.214  0.00  0.00     0.046 H 
BRANCH  83  88
ATOM     88  O6  non d ame      -9.957  13.216  64.343  0.00  0.00    -0.369 OA
ATOM     89  H45 non d ame      -8.998  13.204  64.328  0.00  0.00     0.212 HD
ENDBRANCH  83  88
ENDBRANCH  72  75
ENDBRANCH  47  72
ENDBRANCH  45  47
ENDBRANCH   1  43
BRANCH   1  90
ATOM     90  C16 non d ame      -9.312   7.508  70.343  0.00  0.00    -0.035 C 
ATOM     91  H21 non d ame      -8.586   6.718  70.149  0.00  0.00     0.037 H 
ATOM     92  H22 non d ame      -8.988   8.448  70.790  0.00  0.00     0.037 H 
BRANCH  90  93
ATOM     93  C17 non d ame     -10.375   6.901  71.314  0.00  0.00    -0.059 C 
ATOM     94  H23 non d ame      -9.947   5.999  71.750  0.00  0.00     0.038 H 
BRANCH  93  95
ATOM     95  C18 non d ame     -10.729   7.875  72.483  0.00  0.00    -0.073 C 
ATOM     96  H24 non d ame     -11.693   7.595  72.908  0.00  0.00     0.028 H 
ATOM     97  H25 non d ame      -9.960   7.813  73.253  0.00  0.00     0.028 H 
ATOM     98  H26 non d ame     -10.781   8.895  72.103  0.00  0.00     0.028 H 
ENDBRANCH  93  95
BRANCH  93  99
ATOM     99  C19 non d ame     -11.635   6.483  70.552  0.00  0.00    -0.073 C 
ATOM    100  H27 non d ame     -11.779   5.407  70.649  0.00  0.00     0.028 H 
ATOM    101  H28 non d ame     -12.499   7.004  70.966  0.00  0.00     0.028 H 
ATOM    102  H29 non d ame     -11.526   6.741  69.499  0.00  0.00     0.028 H 
ENDBRANCH  93  99
ENDBRANCH  90  93
ENDBRANCH   1  90
TORSDOF 26
ENDMDL
MODEL 10
REMARK VINA RESULT:      -6.6      2.665      5.622
REMARK  26 active torsions:
REMARK  status: ('A' for Active; 'I' for Inactive)
REMARK    1  A    between atoms: C2_2  and  C3_3 
REMARK    2  A    between atoms: C4_6  and  C5_7 
REMARK       I    between atoms: C5_7  and  N2_9 
REMARK    3  A    between atoms: N2_9  and  C6_10 
REMARK    4  A    between atoms: C6_10  and  C7_11 
REMARK    5  A    between atoms: C6_10  and  C8_13 
REMARK       I    between atoms: C7_11  and  N3_14 
REMARK    6  A    between atoms: N3_14  and  C9_15 
REMARK    7  A    between atoms: C9_15  and  C10_16 
REMARK    8  A    between atoms: C9_15  and  C11_18 
REMARK       I    between atoms: C10_16  and  N4_21 
REMARK    9  A    between atoms: C11_18  and  C12_19 
REMARK   10  A    between atoms: C11_18  and  C13_20 
REMARK   11  A    between atoms: N4_21  and  C14_22 
REMARK   12  A    between atoms: C14_22  and  C15_23 
REMARK   13  A    between atoms: C14_22  and  C16_25 
REMARK       I    between atoms: C15_23  and  N6_40 
REMARK   14  A    between atoms: C16_25  and  C17_26 
REMARK   15  A    between atoms: C17_26  and  C18_27 
REMARK   16  A    between atoms: C17_26  and  C19_28 
REMARK   17  A    between atoms: C20_29  and  C21_30 
REMARK   18  A    between atoms: C20_29  and  C24_33 
REMARK   19  A    between atoms: C20_29  and  N6_40 
REMARK   20  A    between atoms: C21_30  and  C22_31 
REMARK   21  A    between atoms: C22_31  and  C23_32 
REMARK   22  A    between atoms: C23_32  and  O8_43 
REMARK   23  A    between atoms: C24_33  and  C25_34 
REMARK   24  A    between atoms: C28_38  and  O6_39 
REMARK   25  A    between atoms: C29_42  and  O8_43 
REMARK   26  A    between atoms: C29_42  and  C35_49 
ROOT
ATOM      1  C14 non d ame      -9.964  12.343  66.637  0.00  0.00     0.089 C 
ATOM      2  H20 non d ame      -9.397  12.811  65.832  0.00  0.00     0.087 H 
ENDROOT
BRANCH   1   3
ATOM      3  N4  non d ame      -9.017  11.637  67.487  0.00  0.00    -0.346 N 
ATOM      4  C10 non d ame      -7.625  12.181  67.691  0.00  0.00     0.241 C 
ATOM      5  O4  non d ame      -7.289  13.187  67.158  0.00  0.00    -0.271 OA
ATOM      6  H19 non d ame      -9.321  10.782  67.930  0.00  0.00     0.163 HD
BRANCH   4   7
ATOM      7  C9  non d ame      -6.659  11.441  68.579  0.00  0.00     0.092 C 
ATOM      8  H11 non d ame      -6.589  11.954  69.538  0.00  0.00     0.088 H 
BRANCH   7   9
ATOM      9  N3  non d ame      -7.173  10.094  68.845  0.00  0.00    -0.346 N 
ATOM     10  C7  non d ame      -7.246   9.605  70.200  0.00  0.00     0.240 C 
ATOM     11  O3  non d ame      -6.895  10.282  71.088  0.00  0.00    -0.271 OA
ATOM     12  H10 non d ame      -7.479   9.498  68.089  0.00  0.00     0.163 HD
BRANCH  10  13
ATOM     13  C6  non d ame      -7.791   8.169  70.476  0.00  0.00     0.086 C 
ATOM     14  H6  non d ame      -7.174   7.612  71.180  0.00  0.00     0.086 H 
BRANCH  13  15
ATOM     15  N2  non d ame      -9.112   8.273  71.074  0.00  0.00    -0.343 N 
ATOM     16  C5  non d ame     -10.167   9.004  70.368  0.00  0.00     0.273 C 
ATOM     17  O2  non d ame      -9.943   9.508  69.323  0.00  0.00    -0.266 OA
ATOM     18  H5  non d ame      -9.295   7.843  71.969  0.00  0.00     0.163 HD
BRANCH  16  19
ATOM     19  C4  non d ame     -11.569   9.121  70.988  0.00  0.00     0.154 A 
ATOM     20  C1  non d ame     -12.522   8.070  71.175  0.00  0.00    -0.017 A 
ATOM     21  C2  non d ame     -13.637   8.693  71.778  0.00  0.00     0.077 A 
ATOM     22  H1  non d ame     -12.419   7.016  70.915  0.00  0.00     0.091 H 
ATOM     23  O1  non d ame     -13.348   9.954  71.917  0.00  0.00    -0.218 OA
ATOM     24  N1  non d ame     -12.147  10.228  71.463  0.00  0.00    -0.123 NA
BRANCH  21  25
ATOM     25  C3  non d ame     -14.936   8.014  72.190  0.00  0.00    -0.029 C 
ATOM     26  H2  non d ame     -15.779   8.530  71.729  0.00  0.00     0.036 H 
ATOM     27  H3  non d ame     -14.923   6.975  71.861  0.00  0.00     0.036 H 
ATOM     28  H4  non d ame     -15.038   8.050  73.275  0.00  0.00     0.036 H 
ENDBRANCH  21  25
ENDBRANCH  16  19
ENDBRANCH  13  15
BRANCH  13  29
ATOM     29  C8  non d ame      -7.869   7.400  69.182  0.00  0.00    -0.049 C 
ATOM     30  H7  non d ame      -8.719   6.719  69.214  0.00  0.00     0.030 H 
ATOM     31  H8  non d ame      -7.993   8.097  68.352  0.00  0.00     0.030 H 
ATOM     32  H9  non d ame      -6.952   6.829  69.043  0.00  0.00     0.030 H 
ENDBRANCH  13  29
ENDBRANCH  10  13
ENDBRANCH   7   9
BRANCH   7  33
ATOM     33  C11 non d ame      -5.278  11.335  67.869  0.00  0.00    -0.033 C 
ATOM     34  H12 non d ame      -4.994  12.339  67.552  0.00  0.00     0.042 H 
BRANCH  33  35
ATOM     35  C12 non d ame      -4.175  10.821  68.845  0.00  0.00    -0.071 C 
ATOM     36  H13 non d ame      -4.599  10.067  69.508  0.00  0.00     0.028 H 
ATOM     37  H14 non d ame      -3.359  10.381  68.271  0.00  0.00     0.028 H 
ATOM     38  H15 non d ame      -3.796  11.654  69.436  0.00  0.00     0.028 H 
ENDBRANCH  33  35
BRANCH  33  39
ATOM     39  C13 non d ame      -5.372  10.435  66.595  0.00  0.00    -0.071 C 
ATOM     40  H16 non d ame      -5.522   9.398  66.893  0.00  0.00     0.028 H 
ATOM     41  H17 non d ame      -6.211  10.762  65.980  0.00  0.00     0.028 H 
ATOM     42  H18 non d ame      -4.448  10.519  66.023  0.00  0.00     0.028 H 
ENDBRANCH  33  39
ENDBRANCH   7  33
ENDBRANCH   4   7
ENDBRANCH   1   3
BRANCH   1  43
ATOM     43  C15 non d ame     -10.725  13.387  67.503  0.00  0.00     0.240 C 
ATOM     44  O5  non d ame     -11.863  13.199  67.791  0.00  0.00    -0.271 OA
ATOM     45  N6  non d ame     -10.033  14.617  67.982  0.00  0.00    -0.355 N 
ATOM     46  H46 non d ame      -9.065  14.785  67.748  0.00  0.00     0.162 HD
BRANCH  45  47
ATOM     47  C20 non d ame     -10.770  15.599  68.806  0.00  0.00     0.013 C 
ATOM     48  H30 non d ame     -11.787  15.666  68.418  0.00  0.00     0.072 H 
BRANCH  47  49
ATOM     49  C21 non d ame     -10.089  16.945  68.707  0.00  0.00    -0.038 C 
ATOM     50  H31 non d ame     -10.469  17.530  69.546  0.00  0.00     0.036 H 
ATOM     51  H32 non d ame      -9.023  16.731  68.630  0.00  0.00     0.036 H 
BRANCH  49  52
ATOM     52  C22 non d ame     -10.473  17.719  67.427  0.00  0.00     0.018 C 
ATOM     53  H33 non d ame     -11.392  17.256  67.067  0.00  0.00     0.048 H 
ATOM     54  H34 non d ame     -10.467  18.773  67.706  0.00  0.00     0.048 H 
BRANCH  52  55
ATOM     55  C23 non d ame      -9.441  17.575  66.275  0.00  0.00     0.259 C 
ATOM     56  O7  non d ame      -9.316  16.541  65.702  0.00  0.00    -0.265 OA
BRANCH  55  57
ATOM     57  O8  non d ame      -8.634  18.691  65.919  0.00  0.00    -0.317 OA
BRANCH  57  58
ATOM     58  C29 non d ame      -8.863  19.854  66.719  0.00  0.00     0.052 C 
ATOM     59  H47 non d ame      -8.983  20.677  66.015  0.00  0.00     0.082 H 
ATOM     60  H48 non d ame      -9.678  19.592  67.394  0.00  0.00     0.082 H 
BRANCH  58  61
ATOM     61  C35 non d ame      -7.588  20.112  67.566  0.00  0.00    -0.034 A 
ATOM     62  C30 non d ame      -6.569  20.915  67.063  0.00  0.00    -0.075 A 
ATOM     63  C31 non d ame      -5.424  21.147  67.823  0.00  0.00    -0.082 A 
ATOM     64  H49 non d ame      -6.669  21.363  66.074  0.00  0.00     0.084 H 
ATOM     65  C32 non d ame      -5.298  20.571  69.090  0.00  0.00    -0.083 A 
ATOM     66  H50 non d ame      -4.629  21.779  67.427  0.00  0.00     0.083 H 
ATOM     67  C33 non d ame      -6.316  19.768  69.586  0.00  0.00    -0.082 A 
ATOM     68  H51 non d ame      -4.407  20.748  69.691  0.00  0.00     0.083 H 
ATOM     69  C34 non d ame      -7.464  19.535  68.830  0.00  0.00    -0.075 A 
ATOM     70  H52 non d ame      -6.214  19.317  70.573  0.00  0.00     0.083 H 
ATOM     71  H53 non d ame      -8.259  18.904  69.227  0.00  0.00     0.084 H 
ENDBRANCH  58  61
ENDBRANCH  57  58
ENDBRANCH  55  57
ENDBRANCH  52  55
ENDBRANCH  49  52
ENDBRANCH  47  49
BRANCH  47  72
ATOM     72  C24 non d ame     -10.787  15.142  70.263  0.00  0.00    -0.039 C 
ATOM     73  H35 non d ame     -10.641  14.062  70.230  0.00  0.00     0.036 H 
ATOM     74  H36 non d ame     -10.062  15.774  70.774  0.00  0.00     0.036 H 
BRANCH  72  75
ATOM     75  C25 non d ame     -12.210  15.404  70.950  0.00  0.00    -0.001 C 
ATOM     76  C26 non d ame     -12.010  16.245  72.349  0.00  0.00    -0.035 C 
ATOM     77  C27 non d ame     -12.665  15.599  73.344  0.00  0.00     0.085 C 
ATOM     78  H38 non d ame     -10.967  16.206  72.663  0.00  0.00     0.036 H 
ATOM     79  H39 non d ame     -12.525  17.204  72.286  0.00  0.00     0.036 H 
ATOM     80  N5  non d ame     -13.018  14.227  72.822  0.00  0.00    -0.049 N 
ATOM     81  H40 non d ame     -11.939  15.497  74.152  0.00  0.00     0.075 H 
ATOM     82  H41 non d ame     -13.582  16.165  73.504  0.00  0.00     0.075 H 
ATOM     83  C28 non d ame     -12.810  14.294  71.222  0.00  0.00     0.193 C 
ATOM     84  H42 non d ame     -12.336  13.590  73.209  0.00  0.00     0.280 HD
ATOM     85  H43 non d ame     -14.000  14.093  73.013  0.00  0.00     0.280 HD
ATOM     86  H44 non d ame     -13.669  14.364  70.555  0.00  0.00     0.129 H 
ATOM     87  H37 non d ame     -12.946  15.787  70.243  0.00  0.00     0.046 H 
BRANCH  83  88
ATOM     88  O6  non d ame     -12.070  13.157  70.774  0.00  0.00    -0.369 OA
ATOM     89  H45 non d ame     -12.326  12.386  71.285  0.00  0.00     0.212 HD
ENDBRANCH  83  88
ENDBRANCH  72  75
ENDBRANCH  47  72
ENDBRANCH  45  47
ENDBRANCH   1  43
BRANCH   1  90
ATOM     90  C16 non d ame     -10.951  11.342  66.057  0.00  0.00    -0.035 C 
ATOM     91  H21 non d ame     -10.656  10.375  66.467  0.00  0.00     0.037 H 
ATOM     92  H22 non d ame     -11.938  11.749  66.278  0.00  0.00     0.037 H 
BRANCH  90  93
ATOM     93  C17 non d ame     -10.867  11.207  64.503  0.00  0.00    -0.059 C 
ATOM     94  H23 non d ame     -11.796  10.754  64.160  0.00  0.00     0.038 H 
BRANCH  93  95
ATOM     95  C18 non d ame     -10.724  12.594  63.798  0.00  0.00    -0.073 C 
ATOM     96  H24 non d ame     -10.190  12.469  62.856  0.00  0.00     0.028 H 
ATOM     97  H25 non d ame     -11.715  13.006  63.603  0.00  0.00     0.028 H 
ATOM     98  H26 non d ame     -10.169  13.274  64.444  0.00  0.00     0.028 H 
ENDBRANCH  93  95
BRANCH  93  99
ATOM     99  C19 non d ame      -9.726  10.270  64.097  0.00  0.00    -0.073 C 
ATOM    100  H27 non d ame      -9.091  10.767  63.364  0.00  0.00     0.028 H 
ATOM    101  H28 non d ame      -9.135  10.015  64.977  0.00  0.00     0.028 H 
ATOM    102  H29 non d ame     -10.141   9.361  63.662  0.00  0.00     0.028 H 
ENDBRANCH  93  99
ENDBRANCH  90  93
ENDBRANCH   1  90
TORSDOF 26
ENDMDL
MODEL 11
REMARK VINA RESULT:      -6.5      3.383      5.342
REMARK  26 active torsions:
REMARK  status: ('A' for Active; 'I' for Inactive)
REMARK    1  A    between atoms: C2_2  and  C3_3 
REMARK    2  A    between atoms: C4_6  and  C5_7 
REMARK       I    between atoms: C5_7  and  N2_9 
REMARK    3  A    between atoms: N2_9  and  C6_10 
REMARK    4  A    between atoms: C6_10  and  C7_11 
REMARK    5  A    between atoms: C6_10  and  C8_13 
REMARK       I    between atoms: C7_11  and  N3_14 
REMARK    6  A    between atoms: N3_14  and  C9_15 
REMARK    7  A    between atoms: C9_15  and  C10_16 
REMARK    8  A    between atoms: C9_15  and  C11_18 
REMARK       I    between atoms: C10_16  and  N4_21 
REMARK    9  A    between atoms: C11_18  and  C12_19 
REMARK   10  A    between atoms: C11_18  and  C13_20 
REMARK   11  A    between atoms: N4_21  and  C14_22 
REMARK   12  A    between atoms: C14_22  and  C15_23 
REMARK   13  A    between atoms: C14_22  and  C16_25 
REMARK       I    between atoms: C15_23  and  N6_40 
REMARK   14  A    between atoms: C16_25  and  C17_26 
REMARK   15  A    between atoms: C17_26  and  C18_27 
REMARK   16  A    between atoms: C17_26  and  C19_28 
REMARK   17  A    between atoms: C20_29  and  C21_30 
REMARK   18  A    between atoms: C20_29  and  C24_33 
REMARK   19  A    between atoms: C20_29  and  N6_40 
REMARK   20  A    between atoms: C21_30  and  C22_31 
REMARK   21  A    between atoms: C22_31  and  C23_32 
REMARK   22  A    between atoms: C23_32  and  O8_43 
REMARK   23  A    between atoms: C24_33  and  C25_34 
REMARK   24  A    between atoms: C28_38  and  O6_39 
REMARK   25  A    between atoms: C29_42  and  O8_43 
REMARK   26  A    between atoms: C29_42  and  C35_49 
ROOT
ATOM      1  C14 non d ame      -8.827   6.278  67.702  0.00  0.00     0.089 C 
ATOM      2  H20 non d ame      -9.478   5.580  67.176  0.00  0.00     0.087 H 
ENDROOT
BRANCH   1   3
ATOM      3  N4  non d ame      -7.617   6.431  66.908  0.00  0.00    -0.346 N 
ATOM      4  C10 non d ame      -7.193   5.348  65.948  0.00  0.00     0.241 C 
ATOM      5  O4  non d ame      -7.841   4.361  65.834  0.00  0.00    -0.271 OA
ATOM      6  H19 non d ame      -7.078   7.278  67.022  0.00  0.00     0.163 HD
BRANCH   4   7
ATOM      7  C9  non d ame      -5.941   5.526  65.130  0.00  0.00     0.092 C 
ATOM      8  H11 non d ame      -5.944   4.809  64.310  0.00  0.00     0.088 H 
BRANCH   7   9
ATOM      9  N3  non d ame      -5.932   6.866  64.534  0.00  0.00    -0.346 N 
ATOM     10  C7  non d ame      -5.426   7.056  63.197  0.00  0.00     0.240 C 
ATOM     11  O3  non d ame      -5.021   6.143  62.587  0.00  0.00    -0.271 OA
ATOM     12  H10 non d ame      -6.277   7.663  65.049  0.00  0.00     0.163 HD
BRANCH  10  13
ATOM     13  C6  non d ame      -5.417   8.484  62.569  0.00  0.00     0.086 C 
ATOM     14  H6  non d ame      -5.596   8.473  61.494  0.00  0.00     0.086 H 
BRANCH  13  15
ATOM     15  N2  non d ame      -6.489   9.267  63.162  0.00  0.00    -0.343 N 
ATOM     16  C5  non d ame      -7.730   9.472  62.413  0.00  0.00     0.273 C 
ATOM     17  O2  non d ame      -7.856   9.006  61.333  0.00  0.00    -0.266 OA
ATOM     18  H5  non d ame      -6.372   9.663  64.083  0.00  0.00     0.163 HD
BRANCH  16  19
ATOM     19  C4  non d ame      -8.873  10.296  63.027  0.00  0.00     0.154 A 
ATOM     20  C1  non d ame      -9.446  10.143  64.329  0.00  0.00    -0.017 A 
ATOM     21  C2  non d ame     -10.450  11.133  64.403  0.00  0.00     0.077 A 
ATOM     22  H1  non d ame      -9.175   9.423  65.102  0.00  0.00     0.091 H 
ATOM     23  O1  non d ame     -10.445  11.775  63.272  0.00  0.00    -0.218 OA
ATOM     24  N1  non d ame      -9.534  11.305  62.452  0.00  0.00    -0.123 NA
BRANCH  21  25
ATOM     25  C3  non d ame     -11.368  11.400  65.589  0.00  0.00    -0.029 C 
ATOM     26  H2  non d ame     -12.406  11.394  65.255  0.00  0.00     0.036 H 
ATOM     27  H3  non d ame     -11.224  10.625  66.342  0.00  0.00     0.036 H 
ATOM     28  H4  non d ame     -11.131  12.373  66.021  0.00  0.00     0.036 H 
ENDBRANCH  21  25
ENDBRANCH  16  19
ENDBRANCH  13  15
BRANCH  13  29
ATOM     29  C8  non d ame      -4.088   9.144  62.836  0.00  0.00    -0.049 C 
ATOM     30  H7  non d ame      -4.217   9.939  63.571  0.00  0.00     0.030 H 
ATOM     31  H8  non d ame      -3.385   8.405  63.219  0.00  0.00     0.030 H 
ATOM     32  H9  non d ame      -3.701   9.567  61.909  0.00  0.00     0.030 H 
ENDBRANCH  13  29
ENDBRANCH  10  13
ENDBRANCH   7   9
BRANCH   7  33
ATOM     33  C11 non d ame      -4.694   5.362  66.048  0.00  0.00    -0.033 C 
ATOM     34  H12 non d ame      -5.034   4.928  66.989  0.00  0.00     0.042 H 
BRANCH  33  35
ATOM     35  C12 non d ame      -3.656   4.378  65.425  0.00  0.00    -0.071 C 
ATOM     36  H13 non d ame      -3.755   4.384  64.340  0.00  0.00     0.028 H 
ATOM     37  H14 non d ame      -2.649   4.692  65.699  0.00  0.00     0.028 H 
ATOM     38  H15 non d ame      -3.838   3.372  65.802  0.00  0.00     0.028 H 
ENDBRANCH  33  35
BRANCH  33  39
ATOM     39  C13 non d ame      -4.044   6.748  66.363  0.00  0.00    -0.071 C 
ATOM     40  H16 non d ame      -2.971   6.695  66.181  0.00  0.00     0.028 H 
ATOM     41  H17 non d ame      -4.485   7.510  65.719  0.00  0.00     0.028 H 
ATOM     42  H18 non d ame      -4.225   7.005  67.406  0.00  0.00     0.028 H 
ENDBRANCH  33  39
ENDBRANCH   7  33
ENDBRANCH   4   7
ENDBRANCH   1   3
BRANCH   1  43
ATOM     43  C15 non d ame      -9.485   7.677  67.877  0.00  0.00     0.240 C 
ATOM     44  O5  non d ame     -10.242   8.081  67.055  0.00  0.00    -0.271 OA
ATOM     45  N6  non d ame      -9.177   8.509  69.075  0.00  0.00    -0.355 N 
ATOM     46  H46 non d ame      -8.539   8.175  69.783  0.00  0.00     0.162 HD
BRANCH  45  47
ATOM     47  C20 non d ame      -9.812   9.836  69.228  0.00  0.00     0.013 C 
ATOM     48  H30 non d ame     -10.533   9.958  68.420  0.00  0.00     0.072 H 
BRANCH  47  49
ATOM     49  C21 non d ame      -8.752  10.911  69.140  0.00  0.00    -0.038 C 
ATOM     50  H31 non d ame      -9.035  11.664  69.875  0.00  0.00     0.036 H 
ATOM     51  H32 non d ame      -7.798  10.390  69.232  0.00  0.00     0.036 H 
BRANCH  49  52
ATOM     52  C22 non d ame      -8.731  11.622  67.770  0.00  0.00     0.018 C 
ATOM     53  H33 non d ame      -7.680  11.689  67.488  0.00  0.00     0.048 H 
ATOM     54  H34 non d ame      -9.431  11.072  67.141  0.00  0.00     0.048 H 
BRANCH  52  55
ATOM     55  C23 non d ame      -9.256  13.084  67.816  0.00  0.00     0.259 C 
ATOM     56  O7  non d ame      -9.055  13.826  66.910  0.00  0.00    -0.265 OA
BRANCH  55  57
ATOM     57  O8  non d ame      -9.971  13.532  68.962  0.00  0.00    -0.317 OA
BRANCH  57  58
ATOM     58  C29 non d ame     -11.216  14.169  68.659  0.00  0.00     0.052 C 
ATOM     59  H47 non d ame     -10.962  15.185  68.359  0.00  0.00     0.082 H 
ATOM     60  H48 non d ame     -11.724  13.505  67.960  0.00  0.00     0.082 H 
BRANCH  58  61
ATOM     61  C35 non d ame     -12.050  14.237  69.966  0.00  0.00    -0.034 A 
ATOM     62  C30 non d ame     -12.484  15.465  70.452  0.00  0.00    -0.075 A 
ATOM     63  C31 non d ame     -13.233  15.527  71.626  0.00  0.00    -0.082 A 
ATOM     64  H49 non d ame     -12.239  16.380  69.913  0.00  0.00     0.084 H 
ATOM     65  C32 non d ame     -13.545  14.352  72.317  0.00  0.00    -0.083 A 
ATOM     66  H50 non d ame     -13.575  16.491  72.003  0.00  0.00     0.083 H 
ATOM     67  C33 non d ame     -13.106  13.129  71.830  0.00  0.00    -0.082 A 
ATOM     68  H51 non d ame     -14.130  14.391  73.236  0.00  0.00     0.083 H 
ATOM     69  C34 non d ame     -12.359  13.063  70.656  0.00  0.00    -0.075 A 
ATOM     70  H52 non d ame     -13.348  12.215  72.373  0.00  0.00     0.083 H 
ATOM     71  H53 non d ame     -12.019  12.098  70.279  0.00  0.00     0.084 H 
ENDBRANCH  58  61
ENDBRANCH  57  58
ENDBRANCH  55  57
ENDBRANCH  52  55
ENDBRANCH  49  52
ENDBRANCH  47  49
BRANCH  47  72
ATOM     72  C24 non d ame     -10.513   9.921  70.582  0.00  0.00    -0.039 C 
ATOM     73  H35 non d ame      -9.746   9.689  71.321  0.00  0.00     0.036 H 
ATOM     74  H36 non d ame     -11.005  10.893  70.594  0.00  0.00     0.036 H 
BRANCH  72  75
ATOM     75  C25 non d ame     -11.659   8.810  70.726  0.00  0.00    -0.001 C 
ATOM     76  C26 non d ame     -13.089   9.527  71.108  0.00  0.00    -0.035 C 
ATOM     77  C27 non d ame     -13.612   8.907  72.192  0.00  0.00     0.085 C 
ATOM     78  H38 non d ame     -12.915  10.545  71.456  0.00  0.00     0.036 H 
ATOM     79  H39 non d ame     -13.824   9.336  70.326  0.00  0.00     0.036 H 
ATOM     80  N5  non d ame     -12.518   8.049  72.782  0.00  0.00    -0.049 N 
ATOM     81  H40 non d ame     -13.856   9.704  72.895  0.00  0.00     0.075 H 
ATOM     82  H41 non d ame     -14.400   8.261  71.806  0.00  0.00     0.075 H 
ATOM     83  C28 non d ame     -11.369   7.957  71.651  0.00  0.00     0.193 C 
ATOM     84  H42 non d ame     -12.151   8.558  73.573  0.00  0.00     0.280 HD
ATOM     85  H43 non d ame     -12.914   7.130  72.913  0.00  0.00     0.280 HD
ATOM     86  H44 non d ame     -11.250   7.052  71.056  0.00  0.00     0.129 H 
ATOM     87  H37 non d ame     -11.663   8.110  69.891  0.00  0.00     0.046 H 
BRANCH  83  88
ATOM     88  O6  non d ame     -10.087   8.205  72.231  0.00  0.00    -0.369 OA
ATOM     89  H45 non d ame      -9.583   7.388  72.254  0.00  0.00     0.212 HD
ENDBRANCH  83  88
ENDBRANCH  72  75
ENDBRANCH  47  72
ENDBRANCH  45  47
ENDBRANCH   1  43
BRANCH   1  90
ATOM     90  C16 non d ame      -8.458   5.712  69.064  0.00  0.00    -0.035 C 
ATOM     91  H21 non d ame      -7.429   5.365  68.964  0.00  0.00     0.037 H 
ATOM     92  H22 non d ame      -8.700   6.499  69.779  0.00  0.00     0.037 H 
BRANCH  90  93
ATOM     93  C17 non d ame      -9.306   4.467  69.476  0.00  0.00    -0.059 C 
ATOM     94  H23 non d ame      -9.821   4.108  68.585  0.00  0.00     0.038 H 
BRANCH  93  95
ATOM     95  C18 non d ame      -8.416   3.300  70.013  0.00  0.00    -0.073 C 
ATOM     96  H24 non d ame      -9.054   2.518  70.425  0.00  0.00     0.028 H 
ATOM     97  H25 non d ame      -7.821   2.891  69.197  0.00  0.00     0.028 H 
ATOM     98  H26 non d ame      -7.754   3.678  70.792  0.00  0.00     0.028 H 
ENDBRANCH  93  95
BRANCH  93  99
ATOM     99  C19 non d ame     -10.379   4.849  70.498  0.00  0.00    -0.073 C 
ATOM    100  H27 non d ame     -11.367   4.698  70.062  0.00  0.00     0.028 H 
ATOM    101  H28 non d ame     -10.273   4.225  71.386  0.00  0.00     0.028 H 
ATOM    102  H29 non d ame     -10.260   5.896  70.775  0.00  0.00     0.028 H 
ENDBRANCH  93  99
ENDBRANCH  90  93
ENDBRANCH   1  90
TORSDOF 26
ENDMDL
MODEL 12
REMARK VINA RESULT:      -6.5      3.394      5.699
REMARK  26 active torsions:
REMARK  status: ('A' for Active; 'I' for Inactive)
REMARK    1  A    between atoms: C2_2  and  C3_3 
REMARK    2  A    between atoms: C4_6  and  C5_7 
REMARK       I    between atoms: C5_7  and  N2_9 
REMARK    3  A    between atoms: N2_9  and  C6_10 
REMARK    4  A    between atoms: C6_10  and  C7_11 
REMARK    5  A    between atoms: C6_10  and  C8_13 
REMARK       I    between atoms: C7_11  and  N3_14 
REMARK    6  A    between atoms: N3_14  and  C9_15 
REMARK    7  A    between atoms: C9_15  and  C10_16 
REMARK    8  A    between atoms: C9_15  and  C11_18 
REMARK       I    between atoms: C10_16  and  N4_21 
REMARK    9  A    between atoms: C11_18  and  C12_19 
REMARK   10  A    between atoms: C11_18  and  C13_20 
REMARK   11  A    between atoms: N4_21  and  C14_22 
REMARK   12  A    between atoms: C14_22  and  C15_23 
REMARK   13  A    between atoms: C14_22  and  C16_25 
REMARK       I    between atoms: C15_23  and  N6_40 
REMARK   14  A    between atoms: C16_25  and  C17_26 
REMARK   15  A    between atoms: C17_26  and  C18_27 
REMARK   16  A    between atoms: C17_26  and  C19_28 
REMARK   17  A    between atoms: C20_29  and  C21_30 
REMARK   18  A    between atoms: C20_29  and  C24_33 
REMARK   19  A    between atoms: C20_29  and  N6_40 
REMARK   20  A    between atoms: C21_30  and  C22_31 
REMARK   21  A    between atoms: C22_31  and  C23_32 
REMARK   22  A    between atoms: C23_32  and  O8_43 
REMARK   23  A    between atoms: C24_33  and  C25_34 
REMARK   24  A    between atoms: C28_38  and  O6_39 
REMARK   25  A    between atoms: C29_42  and  O8_43 
REMARK   26  A    between atoms: C29_42  and  C35_49 
ROOT
ATOM      1  C14 non d ame      -9.093   5.907  67.726  0.00  0.00     0.089 C 
ATOM      2  H20 non d ame      -9.568   5.031  67.284  0.00  0.00     0.087 H 
ENDROOT
BRANCH   1   3
ATOM      3  N4  non d ame      -8.228   6.495  66.714  0.00  0.00    -0.346 N 
ATOM      4  C10 non d ame      -8.193   5.925  65.318  0.00  0.00     0.241 C 
ATOM      5  O4  non d ame      -8.867   4.990  65.034  0.00  0.00    -0.271 OA
ATOM      6  H19 non d ame      -7.661   7.289  66.976  0.00  0.00     0.163 HD
BRANCH   4   7
ATOM      7  C9  non d ame      -7.297   6.550  64.281  0.00  0.00     0.092 C 
ATOM      8  H11 non d ame      -7.528   6.125  63.304  0.00  0.00     0.088 H 
BRANCH   7   9
ATOM      9  N3  non d ame      -7.568   7.989  64.203  0.00  0.00    -0.346 N 
ATOM     10  C7  non d ame      -8.245   8.533  63.052  0.00  0.00     0.240 C 
ATOM     11  O3  non d ame      -8.577   7.828  62.179  0.00  0.00    -0.271 OA
ATOM     12  H10 non d ame      -7.286   8.609  64.948  0.00  0.00     0.163 HD
BRANCH  10  13
ATOM     13  C6  non d ame      -8.528  10.065  62.974  0.00  0.00     0.086 C 
ATOM     14  H6  non d ame      -9.593  10.297  62.962  0.00  0.00     0.086 H 
BRANCH  13  15
ATOM     15  N2  non d ame      -7.976  10.708  64.155  0.00  0.00    -0.343 N 
ATOM     16  C5  non d ame      -8.847  10.985  65.299  0.00  0.00     0.273 C 
ATOM     17  O2  non d ame      -9.991  10.691  65.258  0.00  0.00    -0.266 OA
ATOM     18  H5  non d ame      -6.997  10.959  64.180  0.00  0.00     0.163 HD
BRANCH  16  19
ATOM     19  C4  non d ame      -8.276  11.663  66.554  0.00  0.00     0.154 A 
ATOM     20  C1  non d ame      -7.433  11.071  67.548  0.00  0.00    -0.017 A 
ATOM     21  C2  non d ame      -7.192  12.104  68.482  0.00  0.00     0.077 A 
ATOM     22  H1  non d ame      -7.055  10.050  67.587  0.00  0.00     0.091 H 
ATOM     23  O1  non d ame      -7.825  13.161  68.063  0.00  0.00    -0.218 OA
ATOM     24  N1  non d ame      -8.465  12.928  66.940  0.00  0.00    -0.123 NA
BRANCH  21  25
ATOM     25  C3  non d ame      -6.346  11.999  69.744  0.00  0.00    -0.029 C 
ATOM     26  H2  non d ame      -5.301  11.850  69.470  0.00  0.00     0.036 H 
ATOM     27  H3  non d ame      -6.442  12.918  70.323  0.00  0.00     0.036 H 
ATOM     28  H4  non d ame      -6.689  11.155  70.343  0.00  0.00     0.036 H 
ENDBRANCH  21  25
ENDBRANCH  16  19
ENDBRANCH  13  15
BRANCH  13  29
ATOM     29  C8  non d ame      -7.891  10.634  61.731  0.00  0.00    -0.049 C 
ATOM     30  H7  non d ame      -7.876   9.873  60.950  0.00  0.00     0.030 H 
ATOM     31  H8  non d ame      -8.467  11.494  61.389  0.00  0.00     0.030 H 
ATOM     32  H9  non d ame      -6.871  10.944  61.955  0.00  0.00     0.030 H 
ENDBRANCH  13  29
ENDBRANCH  10  13
ENDBRANCH   7   9
BRANCH   7  33
ATOM     33  C11 non d ame      -5.808   6.326  64.679  0.00  0.00    -0.033 C 
ATOM     34  H12 non d ame      -5.579   7.013  65.494  0.00  0.00     0.042 H 
BRANCH  33  35
ATOM     35  C12 non d ame      -5.573   4.877  65.207  0.00  0.00    -0.071 C 
ATOM     36  H13 non d ame      -4.794   4.890  65.970  0.00  0.00     0.028 H 
ATOM     37  H14 non d ame      -6.497   4.494  65.640  0.00  0.00     0.028 H 
ATOM     38  H15 non d ame      -5.264   4.236  64.383  0.00  0.00     0.028 H 
ENDBRANCH  33  35
BRANCH  33  39
ATOM     39  C13 non d ame      -4.855   6.656  63.486  0.00  0.00    -0.071 C 
ATOM     40  H16 non d ame      -4.762   7.737  63.384  0.00  0.00     0.028 H 
ATOM     41  H17 non d ame      -3.872   6.223  63.676  0.00  0.00     0.028 H 
ATOM     42  H18 non d ame      -5.265   6.238  62.567  0.00  0.00     0.028 H 
ENDBRANCH  33  39
ENDBRANCH   7  33
ENDBRANCH   4   7
ENDBRANCH   1   3
BRANCH   1  43
ATOM     43  C15 non d ame     -10.131   6.976  68.173  0.00  0.00     0.240 C 
ATOM     44  O5  non d ame     -11.171   7.063  67.604  0.00  0.00    -0.271 OA
ATOM     45  N6  non d ame      -9.832   7.884  69.316  0.00  0.00    -0.355 N 
ATOM     46  H46 non d ame      -8.954   7.816  69.810  0.00  0.00     0.162 HD
BRANCH  45  47
ATOM     47  C20 non d ame     -10.831   8.894  69.729  0.00  0.00     0.013 C 
ATOM     48  H30 non d ame     -11.819   8.512  69.475  0.00  0.00     0.072 H 
BRANCH  47  49
ATOM     49  C21 non d ame     -10.570  10.186  68.989  0.00  0.00    -0.038 C 
ATOM     50  H31 non d ame     -10.173  10.878  69.732  0.00  0.00     0.036 H 
ATOM     51  H32 non d ame      -9.969   9.913  68.122  0.00  0.00     0.036 H 
BRANCH  49  52
ATOM     52  C22 non d ame     -11.861  10.832  68.438  0.00  0.00     0.018 C 
ATOM     53  H33 non d ame     -12.082  10.305  67.510  0.00  0.00     0.048 H 
ATOM     54  H34 non d ame     -12.576  10.811  69.261  0.00  0.00     0.048 H 
BRANCH  52  55
ATOM     55  C23 non d ame     -11.697  12.328  68.052  0.00  0.00     0.259 C 
ATOM     56  O7  non d ame     -11.968  12.702  66.957  0.00  0.00    -0.265 OA
BRANCH  55  57
ATOM     57  O8  non d ame     -11.206  13.248  69.020  0.00  0.00    -0.317 OA
BRANCH  57  58
ATOM     58  C29 non d ame     -11.945  14.471  69.089  0.00  0.00     0.052 C 
ATOM     59  H47 non d ame     -11.262  15.248  68.748  0.00  0.00     0.082 H 
ATOM     60  H48 non d ame     -12.873  14.285  68.549  0.00  0.00     0.082 H 
BRANCH  58  61
ATOM     61  C35 non d ame     -12.290  14.738  70.578  0.00  0.00    -0.034 A 
ATOM     62  C30 non d ame     -11.730  15.828  71.238  0.00  0.00    -0.075 A 
ATOM     63  C31 non d ame     -12.039  16.068  72.576  0.00  0.00    -0.082 A 
ATOM     64  H49 non d ame     -11.050  16.493  70.707  0.00  0.00     0.084 H 
ATOM     65  C32 non d ame     -12.910  15.213  73.255  0.00  0.00    -0.083 A 
ATOM     66  H50 non d ame     -11.601  16.924  73.089  0.00  0.00     0.083 H 
ATOM     67  C33 non d ame     -13.464  14.125  72.594  0.00  0.00    -0.082 A 
ATOM     68  H51 non d ame     -13.158  15.394  74.301  0.00  0.00     0.083 H 
ATOM     69  C34 non d ame     -13.160  13.882  71.256  0.00  0.00    -0.075 A 
ATOM     70  H52 non d ame     -14.142  13.458  73.128  0.00  0.00     0.083 H 
ATOM     71  H53 non d ame     -13.599  13.026  70.744  0.00  0.00     0.084 H 
ENDBRANCH  58  61
ENDBRANCH  57  58
ENDBRANCH  55  57
ENDBRANCH  52  55
ENDBRANCH  49  52
ENDBRANCH  47  49
BRANCH  47  72
ATOM     72  C24 non d ame     -10.726   9.139  71.233  0.00  0.00    -0.039 C 
ATOM     73  H35 non d ame      -9.765   8.718  71.529  0.00  0.00     0.036 H 
ATOM     74  H36 non d ame     -10.920  10.203  71.368  0.00  0.00     0.036 H 
BRANCH  72  75
ATOM     75  C25 non d ame     -11.859   8.345  72.043  0.00  0.00    -0.001 C 
ATOM     76  C26 non d ame     -12.358   7.041  71.174  0.00  0.00    -0.035 C 
ATOM     77  C27 non d ame     -13.709   7.064  71.091  0.00  0.00     0.085 C 
ATOM     78  H38 non d ame     -12.037   7.137  70.138  0.00  0.00     0.036 H 
ATOM     79  H39 non d ame     -12.152   6.124  71.726  0.00  0.00     0.036 H 
ATOM     80  N5  non d ame     -14.157   8.434  71.540  0.00  0.00    -0.049 N 
ATOM     81  H40 non d ame     -13.938   6.945  70.031  0.00  0.00     0.075 H 
ATOM     82  H41 non d ame     -14.058   6.323  71.810  0.00  0.00     0.075 H 
ATOM     83  C28 non d ame     -12.882   9.098  72.274  0.00  0.00     0.193 C 
ATOM     84  H42 non d ame     -14.355   8.960  70.701  0.00  0.00     0.280 HD
ATOM     85  H43 non d ame     -14.882   8.287  72.228  0.00  0.00     0.280 HD
ATOM     86  H44 non d ame     -12.839   9.161  73.362  0.00  0.00     0.129 H 
ATOM     87  H37 non d ame     -11.578   8.172  73.082  0.00  0.00     0.046 H 
BRANCH  83  88
ATOM     88  O6  non d ame     -12.685  10.434  71.807  0.00  0.00    -0.369 OA
ATOM     89  H45 non d ame     -12.499  11.010  72.552  0.00  0.00     0.212 HD
ENDBRANCH  83  88
ENDBRANCH  72  75
ENDBRANCH  47  72
ENDBRANCH  45  47
ENDBRANCH   1  43
BRANCH   1  90
ATOM     90  C16 non d ame      -8.246   5.487  68.917  0.00  0.00    -0.035 C 
ATOM     91  H21 non d ame      -7.253   5.293  68.512  0.00  0.00     0.037 H 
ATOM     92  H22 non d ame      -8.388   6.271  69.662  0.00  0.00     0.037 H 
BRANCH  90  93
ATOM     93  C17 non d ame      -8.719   4.155  69.583  0.00  0.00    -0.059 C 
ATOM     94  H23 non d ame      -7.836   3.650  69.974  0.00  0.00     0.038 H 
BRANCH  93  95
ATOM     95  C18 non d ame      -9.692   4.407  70.779  0.00  0.00    -0.073 C 
ATOM     96  H24 non d ame     -10.628   3.877  70.603  0.00  0.00     0.028 H 
ATOM     97  H25 non d ame      -9.236   4.045  71.701  0.00  0.00     0.028 H 
ATOM     98  H26 non d ame      -9.890   5.475  70.867  0.00  0.00     0.028 H 
ENDBRANCH  93  95
BRANCH  93  99
ATOM     99  C19 non d ame      -9.355   3.223  68.549  0.00  0.00    -0.073 C 
ATOM    100  H27 non d ame      -8.804   2.283  68.519  0.00  0.00     0.028 H 
ATOM    101  H28 non d ame     -10.392   3.028  68.826  0.00  0.00     0.028 H 
ATOM    102  H29 non d ame      -9.325   3.695  67.567  0.00  0.00     0.028 H 
ENDBRANCH  93  99
ENDBRANCH  90  93
ENDBRANCH   1  90
TORSDOF 26
ENDMDL
MODEL 13
REMARK VINA RESULT:      -6.5      2.611      6.048
REMARK  26 active torsions:
REMARK  status: ('A' for Active; 'I' for Inactive)
REMARK    1  A    between atoms: C2_2  and  C3_3 
REMARK    2  A    between atoms: C4_6  and  C5_7 
REMARK       I    between atoms: C5_7  and  N2_9 
REMARK    3  A    between atoms: N2_9  and  C6_10 
REMARK    4  A    between atoms: C6_10  and  C7_11 
REMARK    5  A    between atoms: C6_10  and  C8_13 
REMARK       I    between atoms: C7_11  and  N3_14 
REMARK    6  A    between atoms: N3_14  and  C9_15 
REMARK    7  A    between atoms: C9_15  and  C10_16 
REMARK    8  A    between atoms: C9_15  and  C11_18 
REMARK       I    between atoms: C10_16  and  N4_21 
REMARK    9  A    between atoms: C11_18  and  C12_19 
REMARK   10  A    between atoms: C11_18  and  C13_20 
REMARK   11  A    between atoms: N4_21  and  C14_22 
REMARK   12  A    between atoms: C14_22  and  C15_23 
REMARK   13  A    between atoms: C14_22  and  C16_25 
REMARK       I    between atoms: C15_23  and  N6_40 
REMARK   14  A    between atoms: C16_25  and  C17_26 
REMARK   15  A    between atoms: C17_26  and  C18_27 
REMARK   16  A    between atoms: C17_26  and  C19_28 
REMARK   17  A    between atoms: C20_29  and  C21_30 
REMARK   18  A    between atoms: C20_29  and  C24_33 
REMARK   19  A    between atoms: C20_29  and  N6_40 
REMARK   20  A    between atoms: C21_30  and  C22_31 
REMARK   21  A    between atoms: C22_31  and  C23_32 
REMARK   22  A    between atoms: C23_32  and  O8_43 
REMARK   23  A    between atoms: C24_33  and  C25_34 
REMARK   24  A    between atoms: C28_38  and  O6_39 
REMARK   25  A    between atoms: C29_42  and  O8_43 
REMARK   26  A    between atoms: C29_42  and  C35_49 
ROOT
ATOM      1  C14 non d ame      -9.920  12.064  65.619  0.00  0.00     0.089 C 
ATOM      2  H20 non d ame      -9.768  12.562  64.661  0.00  0.00     0.087 H 
ENDROOT
BRANCH   1   3
ATOM      3  N4  non d ame      -9.132  10.840  65.607  0.00  0.00    -0.346 N 
ATOM      4  C10 non d ame      -9.093   9.971  64.375  0.00  0.00     0.241 C 
ATOM      5  O4  non d ame      -9.707  10.276  63.406  0.00  0.00    -0.271 OA
ATOM      6  H19 non d ame      -8.619  10.597  66.443  0.00  0.00     0.163 HD
BRANCH   4   7
ATOM      7  C9  non d ame      -8.268   8.711  64.378  0.00  0.00     0.092 C 
ATOM      8  H11 non d ame      -7.333   8.897  64.906  0.00  0.00     0.088 H 
BRANCH   7   9
ATOM      9  N3  non d ame      -8.980   7.662  65.114  0.00  0.00    -0.346 N 
ATOM     10  C7  non d ame      -8.768   7.505  66.532  0.00  0.00     0.240 C 
ATOM     11  O3  non d ame      -8.027   8.214  67.096  0.00  0.00    -0.271 OA
ATOM     12  H10 non d ame      -9.622   7.042  64.640  0.00  0.00     0.163 HD
BRANCH  10  13
ATOM     13  C6  non d ame      -9.527   6.385  67.308  0.00  0.00     0.086 C 
ATOM     14  H6  non d ame      -8.881   5.834  67.992  0.00  0.00     0.086 H 
BRANCH  13  15
ATOM     15  N2  non d ame     -10.567   6.995  68.120  0.00  0.00    -0.343 N 
ATOM     16  C5  non d ame     -10.433   7.003  69.578  0.00  0.00     0.273 C 
ATOM     17  O2  non d ame      -9.486   6.514  70.089  0.00  0.00    -0.266 OA
ATOM     18  H5  non d ame     -11.374   7.409  67.675  0.00  0.00     0.163 HD
BRANCH  16  19
ATOM     19  C4  non d ame     -11.524   7.647  70.448  0.00  0.00     0.154 A 
ATOM     20  C1  non d ame     -12.807   7.101  70.769  0.00  0.00    -0.017 A 
ATOM     21  C2  non d ame     -13.421   8.074  71.589  0.00  0.00     0.077 A 
ATOM     22  H1  non d ame     -13.228   6.145  70.456  0.00  0.00     0.091 H 
ATOM     23  O1  non d ame     -12.581   9.058  71.718  0.00  0.00    -0.218 OA
ATOM     24  N1  non d ame     -11.467   8.832  71.061  0.00  0.00    -0.123 NA
BRANCH  21  25
ATOM     25  C3  non d ame     -14.810   7.985  72.208  0.00  0.00    -0.029 C 
ATOM     26  H2  non d ame     -14.736   8.112  73.288  0.00  0.00     0.036 H 
ATOM     27  H3  non d ame     -15.443   8.769  71.792  0.00  0.00     0.036 H 
ATOM     28  H4  non d ame     -15.246   7.011  71.985  0.00  0.00     0.036 H 
ENDBRANCH  21  25
ENDBRANCH  16  19
ENDBRANCH  13  15
BRANCH  13  29
ATOM     29  C8  non d ame     -10.138   5.416  66.328  0.00  0.00    -0.049 C 
ATOM     30  H7  non d ame      -9.889   4.396  66.622  0.00  0.00     0.030 H 
ATOM     31  H8  non d ame     -11.221   5.538  66.324  0.00  0.00     0.030 H 
ATOM     32  H9  non d ame      -9.746   5.612  65.331  0.00  0.00     0.030 H 
ENDBRANCH  13  29
ENDBRANCH  10  13
ENDBRANCH   7   9
BRANCH   7  33
ATOM     33  C11 non d ame      -8.030   8.243  62.913  0.00  0.00    -0.033 C 
ATOM     34  H12 non d ame      -8.900   8.541  62.327  0.00  0.00     0.042 H 
BRANCH  33  35
ATOM     35  C12 non d ame      -6.783   8.943  62.288  0.00  0.00    -0.071 C 
ATOM     36  H13 non d ame      -6.480   8.409  61.387  0.00  0.00     0.028 H 
ATOM     37  H14 non d ame      -7.035   9.972  62.032  0.00  0.00     0.028 H 
ATOM     38  H15 non d ame      -5.965   8.937  63.007  0.00  0.00     0.028 H 
ENDBRANCH  33  35
BRANCH  33  39
ATOM     39  C13 non d ame      -7.905   6.688  62.835  0.00  0.00    -0.071 C 
ATOM     40  H16 non d ame      -7.270   6.416  61.993  0.00  0.00     0.028 H 
ATOM     41  H17 non d ame      -7.463   6.313  63.759  0.00  0.00     0.028 H 
ATOM     42  H18 non d ame      -8.894   6.250  62.702  0.00  0.00     0.028 H 
ENDBRANCH  33  39
ENDBRANCH   7  33
ENDBRANCH   4   7
ENDBRANCH   1   3
BRANCH   1  43
ATOM     43  C15 non d ame      -9.455  12.940  66.817  0.00  0.00     0.240 C 
ATOM     44  O5  non d ame      -9.515  12.509  67.923  0.00  0.00    -0.271 OA
ATOM     45  N6  non d ame      -8.927  14.315  66.584  0.00  0.00    -0.355 N 
ATOM     46  H46 non d ame      -8.867  14.690  65.649  0.00  0.00     0.162 HD
BRANCH  45  47
ATOM     47  C20 non d ame      -8.488  15.135  67.734  0.00  0.00     0.013 C 
ATOM     48  H30 non d ame      -8.258  14.461  68.559  0.00  0.00     0.072 H 
BRANCH  47  49
ATOM     49  C21 non d ame      -9.603  16.076  68.131  0.00  0.00    -0.038 C 
ATOM     50  H31 non d ame     -10.348  15.457  68.631  0.00  0.00     0.036 H 
ATOM     51  H32 non d ame      -9.121  16.892  68.671  0.00  0.00     0.036 H 
BRANCH  49  52
ATOM     52  C22 non d ame     -10.310  16.715  66.916  0.00  0.00     0.018 C 
ATOM     53  H33 non d ame      -9.722  16.423  66.045  0.00  0.00     0.048 H 
ATOM     54  H34 non d ame     -11.355  16.416  66.992  0.00  0.00     0.048 H 
BRANCH  52  55
ATOM     55  C23 non d ame     -10.305  18.269  66.934  0.00  0.00     0.259 C 
ATOM     56  O7  non d ame     -11.080  18.866  67.608  0.00  0.00    -0.265 OA
BRANCH  55  57
ATOM     57  O8  non d ame      -9.370  18.972  66.125  0.00  0.00    -0.317 OA
BRANCH  57  58
ATOM     58  C29 non d ame      -8.722  20.057  66.794  0.00  0.00     0.052 C 
ATOM     59  H47 non d ame      -9.163  20.964  66.381  0.00  0.00     0.082 H 
ATOM     60  H48 non d ame      -8.812  19.844  67.859  0.00  0.00     0.082 H 
BRANCH  58  61
ATOM     61  C35 non d ame      -7.218  20.025  66.413  0.00  0.00    -0.034 A 
ATOM     62  C30 non d ame      -6.721  18.991  65.625  0.00  0.00    -0.075 A 
ATOM     63  C31 non d ame      -5.370  18.961  65.283  0.00  0.00    -0.082 A 
ATOM     64  H49 non d ame      -7.390  18.204  65.277  0.00  0.00     0.084 H 
ATOM     65  C32 non d ame      -4.514  19.969  65.733  0.00  0.00    -0.083 A 
ATOM     66  H50 non d ame      -4.984  18.151  64.664  0.00  0.00     0.083 H 
ATOM     67  C33 non d ame      -5.013  20.997  66.521  0.00  0.00    -0.082 A 
ATOM     68  H51 non d ame      -3.456  19.954  65.469  0.00  0.00     0.083 H 
ATOM     69  C34 non d ame      -6.363  21.032  66.864  0.00  0.00    -0.075 A 
ATOM     70  H52 non d ame      -4.342  21.782  66.872  0.00  0.00     0.083 H 
ATOM     71  H53 non d ame      -6.748  21.843  67.482  0.00  0.00     0.084 H 
ENDBRANCH  58  61
ENDBRANCH  57  58
ENDBRANCH  55  57
ENDBRANCH  52  55
ENDBRANCH  49  52
ENDBRANCH  47  49
BRANCH  47  72
ATOM     72  C24 non d ame      -7.251  15.944  67.349  0.00  0.00    -0.039 C 
ATOM     73  H35 non d ame      -6.675  15.295  66.688  0.00  0.00     0.036 H 
ATOM     74  H36 non d ame      -7.630  16.897  66.981  0.00  0.00     0.036 H 
BRANCH  72  75
ATOM     75  C25 non d ame      -6.330  16.260  68.621  0.00  0.00    -0.001 C 
ATOM     76  C26 non d ame      -6.662  17.767  69.191  0.00  0.00    -0.035 C 
ATOM     77  C27 non d ame      -5.500  18.452  69.316  0.00  0.00     0.085 C 
ATOM     78  H38 non d ame      -7.215  18.336  68.444  0.00  0.00     0.036 H 
ATOM     79  H39 non d ame      -7.033  17.706  70.215  0.00  0.00     0.036 H 
ATOM     80  N5  non d ame      -4.444  17.668  68.576  0.00  0.00    -0.049 N 
ATOM     81  H40 non d ame      -5.664  19.400  68.802  0.00  0.00     0.075 H 
ATOM     82  H41 non d ame      -5.269  18.442  70.381  0.00  0.00     0.075 H 
ATOM     83  C28 non d ame      -5.077  16.205  68.316  0.00  0.00     0.193 C 
ATOM     84  H42 non d ame      -4.318  18.127  67.686  0.00  0.00     0.280 HD
ATOM     85  H43 non d ame      -3.663  17.572  69.210  0.00  0.00     0.280 HD
ATOM     86  H44 non d ame      -4.764  15.352  68.917  0.00  0.00     0.129 H 
ATOM     87  H37 non d ame      -6.331  15.445  69.344  0.00  0.00     0.046 H 
BRANCH  83  88
ATOM     88  O6  non d ame      -4.869  15.813  66.958  0.00  0.00    -0.369 OA
ATOM     89  H45 non d ame      -5.716  15.732  66.515  0.00  0.00     0.212 HD
ENDBRANCH  83  88
ENDBRANCH  72  75
ENDBRANCH  47  72
ENDBRANCH  45  47
ENDBRANCH   1  43
BRANCH   1  90
ATOM     90  C16 non d ame     -11.388  11.707  65.786  0.00  0.00    -0.035 C 
ATOM     91  H21 non d ame     -11.495  10.712  65.352  0.00  0.00     0.037 H 
ATOM     92  H22 non d ame     -11.606  11.866  66.842  0.00  0.00     0.037 H 
BRANCH  90  93
ATOM     93  C17 non d ame     -12.355  12.641  64.991  0.00  0.00    -0.059 C 
ATOM     94  H23 non d ame     -13.306  12.120  64.885  0.00  0.00     0.038 H 
BRANCH  93  95
ATOM     95  C18 non d ame     -12.627  13.984  65.742  0.00  0.00    -0.073 C 
ATOM     96  H24 non d ame     -13.462  14.501  65.270  0.00  0.00     0.028 H 
ATOM     97  H25 non d ame     -12.871  13.774  66.784  0.00  0.00     0.028 H 
ATOM     98  H26 non d ame     -11.738  14.612  65.696  0.00  0.00     0.028 H 
ENDBRANCH  93  95
BRANCH  93  99
ATOM     99  C19 non d ame     -11.822  12.905  63.580  0.00  0.00    -0.073 C 
ATOM    100  H27 non d ame     -11.357  11.998  63.191  0.00  0.00     0.028 H 
ATOM    101  H28 non d ame     -12.647  13.198  62.929  0.00  0.00     0.028 H 
ATOM    102  H29 non d ame     -11.084  13.706  63.614  0.00  0.00     0.028 H 
ENDBRANCH  93  99
ENDBRANCH  90  93
ENDBRANCH   1  90
TORSDOF 26
ENDMDL
MODEL 14
REMARK VINA RESULT:      -6.4      2.801      4.803
REMARK  26 active torsions:
REMARK  status: ('A' for Active; 'I' for Inactive)
REMARK    1  A    between atoms: C2_2  and  C3_3 
REMARK    2  A    between atoms: C4_6  and  C5_7 
REMARK       I    between atoms: C5_7  and  N2_9 
REMARK    3  A    between atoms: N2_9  and  C6_10 
REMARK    4  A    between atoms: C6_10  and  C7_11 
REMARK    5  A    between atoms: C6_10  and  C8_13 
REMARK       I    between atoms: C7_11  and  N3_14 
REMARK    6  A    between atoms: N3_14  and  C9_15 
REMARK    7  A    between atoms: C9_15  and  C10_16 
REMARK    8  A    between atoms: C9_15  and  C11_18 
REMARK       I    between atoms: C10_16  and  N4_21 
REMARK    9  A    between atoms: C11_18  and  C12_19 
REMARK   10  A    between atoms: C11_18  and  C13_20 
REMARK   11  A    between atoms: N4_21  and  C14_22 
REMARK   12  A    between atoms: C14_22  and  C15_23 
REMARK   13  A    between atoms: C14_22  and  C16_25 
REMARK       I    between atoms: C15_23  and  N6_40 
REMARK   14  A    between atoms: C16_25  and  C17_26 
REMARK   15  A    between atoms: C17_26  and  C18_27 
REMARK   16  A    between atoms: C17_26  and  C19_28 
REMARK   17  A    between atoms: C20_29  and  C21_30 
REMARK   18  A    between atoms: C20_29  and  C24_33 
REMARK   19  A    between atoms: C20_29  and  N6_40 
REMARK   20  A    between atoms: C21_30  and  C22_31 
REMARK   21  A    between atoms: C22_31  and  C23_32 
REMARK   22  A    between atoms: C23_32  and  O8_43 
REMARK   23  A    between atoms: C24_33  and  C25_34 
REMARK   24  A    between atoms: C28_38  and  O6_39 
REMARK   25  A    between atoms: C29_42  and  O8_43 
REMARK   26  A    between atoms: C29_42  and  C35_49 
ROOT
ATOM      1  C14 non d ame      -7.519   9.589  68.873  0.00  0.00     0.089 C 
ATOM      2  H20 non d ame      -7.643  10.071  69.843  0.00  0.00     0.087 H 
ENDROOT
BRANCH   1   3
ATOM      3  N4  non d ame      -8.313   8.370  68.884  0.00  0.00    -0.346 N 
ATOM      4  C10 non d ame      -9.685   8.361  69.510  0.00  0.00     0.241 C 
ATOM      5  O4  non d ame     -10.127   9.347  70.001  0.00  0.00    -0.271 OA
ATOM      6  H19 non d ame      -7.918   7.541  68.464  0.00  0.00     0.163 HD
BRANCH   4   7
ATOM      7  C9  non d ame     -10.496   7.091  69.508  0.00  0.00     0.092 C 
ATOM      8  H11 non d ame     -11.501   7.308  69.146  0.00  0.00     0.088 H 
BRANCH   7   9
ATOM      9  N3  non d ame      -9.897   6.130  68.577  0.00  0.00    -0.346 N 
ATOM     10  C7  non d ame     -10.469   5.947  67.265  0.00  0.00     0.240 C 
ATOM     11  O3  non d ame     -11.410   6.563  66.944  0.00  0.00    -0.271 OA
ATOM     12  H10 non d ame      -9.086   5.590  68.841  0.00  0.00     0.163 HD
BRANCH  10  13
ATOM     13  C6  non d ame      -9.829   4.920  66.280  0.00  0.00     0.086 C 
ATOM     14  H6  non d ame     -10.557   4.220  65.870  0.00  0.00     0.086 H 
BRANCH  13  15
ATOM     15  N2  non d ame      -9.263   5.640  65.151  0.00  0.00    -0.343 N 
ATOM     16  C5  non d ame      -8.244   6.665  65.387  0.00  0.00     0.273 C 
ATOM     17  O2  non d ame      -7.889   6.905  66.489  0.00  0.00    -0.266 OA
ATOM     18  H5  non d ame      -9.574   5.430  64.213  0.00  0.00     0.163 HD
BRANCH  16  19
ATOM     19  C4  non d ame      -7.636   7.433  64.203  0.00  0.00     0.154 A 
ATOM     20  C1  non d ame      -8.289   8.395  63.369  0.00  0.00    -0.017 A 
ATOM     21  C2  non d ame      -7.304   8.800  62.441  0.00  0.00     0.077 A 
ATOM     22  H1  non d ame      -9.319   8.746  63.429  0.00  0.00     0.091 H 
ATOM     23  O1  non d ame      -6.216   8.142  62.719  0.00  0.00    -0.218 OA
ATOM     24  N1  non d ame      -6.385   7.338  63.743  0.00  0.00    -0.123 NA
BRANCH  21  25
ATOM     25  C3  non d ame      -7.483   9.818  61.323  0.00  0.00    -0.029 C 
ATOM     26  H2  non d ame      -7.061  10.775  61.632  0.00  0.00     0.036 H 
ATOM     27  H3  non d ame      -6.971   9.468  60.427  0.00  0.00     0.036 H 
ATOM     28  H4  non d ame      -8.545   9.941  61.110  0.00  0.00     0.036 H 
ENDBRANCH  21  25
ENDBRANCH  16  19
ENDBRANCH  13  15
BRANCH  13  29
ATOM     29  C8  non d ame      -8.751   4.142  66.990  0.00  0.00    -0.049 C 
ATOM     30  H7  non d ame      -8.347   4.742  67.805  0.00  0.00     0.030 H 
ATOM     31  H8  non d ame      -9.172   3.220  67.391  0.00  0.00     0.030 H 
ATOM     32  H9  non d ame      -7.953   3.902  66.287  0.00  0.00     0.030 H 
ENDBRANCH  13  29
ENDBRANCH  10  13
ENDBRANCH   7   9
BRANCH   7  33
ATOM     33  C11 non d ame     -10.509   6.482  70.941  0.00  0.00    -0.033 C 
ATOM     34  H12 non d ame      -9.782   7.032  71.539  0.00  0.00     0.042 H 
BRANCH  33  35
ATOM     35  C12 non d ame     -11.903   6.657  71.620  0.00  0.00    -0.071 C 
ATOM     36  H13 non d ame     -12.616   7.044  70.892  0.00  0.00     0.028 H 
ATOM     37  H14 non d ame     -12.249   5.692  71.991  0.00  0.00     0.028 H 
ATOM     38  H15 non d ame     -11.816   7.356  72.452  0.00  0.00     0.028 H 
ENDBRANCH  33  35
BRANCH  33  39
ATOM     39  C13 non d ame     -10.076   4.981  70.914  0.00  0.00    -0.071 C 
ATOM     40  H16 non d ame     -10.961   4.347  70.960  0.00  0.00     0.028 H 
ATOM     41  H17 non d ame      -9.529   4.777  69.993  0.00  0.00     0.028 H 
ATOM     42  H18 non d ame      -9.435   4.773  71.771  0.00  0.00     0.028 H 
ENDBRANCH  33  39
ENDBRANCH   7  33
ENDBRANCH   4   7
ENDBRANCH   1   3
BRANCH   1  43
ATOM     43  C15 non d ame      -8.009  10.489  67.703  0.00  0.00     0.240 C 
ATOM     44  O5  non d ame      -7.586  10.316  66.606  0.00  0.00    -0.271 OA
ATOM     45  N6  non d ame      -9.015  11.562  67.948  0.00  0.00    -0.355 N 
ATOM     46  H46 non d ame      -9.386  11.715  68.875  0.00  0.00     0.162 HD
BRANCH  45  47
ATOM     47  C20 non d ame      -9.472  12.408  66.825  0.00  0.00     0.013 C 
ATOM     48  H30 non d ame      -9.051  12.002  65.906  0.00  0.00     0.072 H 
BRANCH  47  49
ATOM     49  C21 non d ame      -8.986  13.824  67.035  0.00  0.00    -0.038 C 
ATOM     50  H31 non d ame      -9.470  14.169  67.949  0.00  0.00     0.036 H 
ATOM     51  H32 non d ame      -7.898  13.772  66.980  0.00  0.00     0.036 H 
BRANCH  49  52
ATOM     52  C22 non d ame      -9.435  14.785  65.913  0.00  0.00     0.018 C 
ATOM     53  H33 non d ame      -8.552  14.951  65.295  0.00  0.00     0.048 H 
ATOM     54  H34 non d ame     -10.328  14.335  65.479  0.00  0.00     0.048 H 
BRANCH  52  55
ATOM     55  C23 non d ame      -9.868  16.187  66.426  0.00  0.00     0.259 C 
ATOM     56  O7  non d ame     -10.145  17.050  65.658  0.00  0.00    -0.265 OA
BRANCH  55  57
ATOM     57  O8  non d ame      -9.919  16.432  67.826  0.00  0.00    -0.317 OA
BRANCH  57  58
ATOM     58  C29 non d ame     -11.209  16.824  68.302  0.00  0.00     0.052 C 
ATOM     59  H47 non d ame     -11.075  17.815  68.735  0.00  0.00     0.082 H 
ATOM     60  H48 non d ame     -11.889  16.683  67.462  0.00  0.00     0.082 H 
BRANCH  58  61
ATOM     61  C35 non d ame     -11.619  15.845  69.435  0.00  0.00    -0.034 A 
ATOM     62  C30 non d ame     -11.615  16.271  70.759  0.00  0.00    -0.075 A 
ATOM     63  C31 non d ame     -11.983  15.392  71.777  0.00  0.00    -0.082 A 
ATOM     64  H49 non d ame     -11.323  17.293  71.000  0.00  0.00     0.084 H 
ATOM     65  C32 non d ame     -12.354  14.081  71.466  0.00  0.00    -0.083 A 
ATOM     66  H50 non d ame     -11.981  15.729  72.813  0.00  0.00     0.083 H 
ATOM     67  C33 non d ame     -12.354  13.659  70.143  0.00  0.00    -0.082 A 
ATOM     68  H51 non d ame     -12.644  13.387  72.255  0.00  0.00     0.083 H 
ATOM     69  C34 non d ame     -11.989  14.535  69.123  0.00  0.00    -0.075 A 
ATOM     70  H52 non d ame     -12.642  12.635  69.904  0.00  0.00     0.083 H 
ATOM     71  H53 non d ame     -11.992  14.197  68.086  0.00  0.00     0.084 H 
ENDBRANCH  58  61
ENDBRANCH  57  58
ENDBRANCH  55  57
ENDBRANCH  52  55
ENDBRANCH  49  52
ENDBRANCH  47  49
BRANCH  47  72
ATOM     72  C24 non d ame     -10.998  12.398  66.759  0.00  0.00    -0.039 C 
ATOM     73  H35 non d ame     -11.320  11.758  67.581  0.00  0.00     0.036 H 
ATOM     74  H36 non d ame     -11.295  13.446  66.736  0.00  0.00     0.036 H 
BRANCH  72  75
ATOM     75  C25 non d ame     -11.528  11.727  65.403  0.00  0.00    -0.001 C 
ATOM     76  C26 non d ame     -10.256  11.340  64.436  0.00  0.00    -0.035 C 
ATOM     77  C27 non d ame     -10.475  11.853  63.201  0.00  0.00     0.085 C 
ATOM     78  H38 non d ame      -9.359  11.859  64.772  0.00  0.00     0.036 H 
ATOM     79  H39 non d ame     -10.231  10.264  64.264  0.00  0.00     0.036 H 
ATOM     80  N5  non d ame     -11.619  12.829  63.325  0.00  0.00    -0.049 N 
ATOM     81  H40 non d ame      -9.566  12.400  62.948  0.00  0.00     0.075 H 
ATOM     82  H41 non d ame     -10.793  11.010  62.588  0.00  0.00     0.075 H 
ATOM     83  C28 non d ame     -12.304  12.531  64.757  0.00  0.00     0.193 C 
ATOM     84  H42 non d ame     -11.207  13.751  63.352  0.00  0.00     0.280 HD
ATOM     85  H43 non d ame     -12.279  12.592  62.598  0.00  0.00     0.280 HD
ATOM     86  H44 non d ame     -13.247  11.988  64.817  0.00  0.00     0.129 H 
ATOM     87  H37 non d ame     -12.265  10.946  65.590  0.00  0.00     0.046 H 
BRANCH  83  88
ATOM     88  O6  non d ame     -12.523  13.754  65.463  0.00  0.00    -0.369 OA
ATOM     89  H45 non d ame     -13.305  14.189  65.115  0.00  0.00     0.212 HD
ENDBRANCH  83  88
ENDBRANCH  72  75
ENDBRANCH  47  72
ENDBRANCH  45  47
ENDBRANCH   1  43
BRANCH   1  90
ATOM     90  C16 non d ame      -6.057   9.227  68.661  0.00  0.00    -0.035 C 
ATOM     91  H21 non d ame      -6.050   8.153  68.473  0.00  0.00     0.037 H 
ATOM     92  H22 non d ame      -5.697   9.916  67.897  0.00  0.00     0.037 H 
BRANCH  90  93
ATOM     93  C17 non d ame      -5.165   9.460  69.921  0.00  0.00    -0.059 C 
ATOM     94  H23 non d ame      -4.169   9.736  69.575  0.00  0.00     0.038 H 
BRANCH  93  95
ATOM     95  C18 non d ame      -5.699  10.626  70.814  0.00  0.00    -0.073 C 
ATOM     96  H24 non d ame      -6.786  10.662  70.751  0.00  0.00     0.028 H 
ATOM     97  H25 non d ame      -5.400  10.457  71.849  0.00  0.00     0.028 H 
ATOM     98  H26 non d ame      -5.282  11.571  70.465  0.00  0.00     0.028 H 
ENDBRANCH  93  95
BRANCH  93  99
ATOM     99  C19 non d ame      -5.022   8.172  70.736  0.00  0.00    -0.073 C 
ATOM    100  H27 non d ame      -4.013   7.776  70.617  0.00  0.00     0.028 H 
ATOM    101  H28 non d ame      -5.206   8.386  71.789  0.00  0.00     0.028 H 
ATOM    102  H29 non d ame      -5.745   7.437  70.383  0.00  0.00     0.028 H 
ENDBRANCH  93  99
ENDBRANCH  90  93
ENDBRANCH   1  90
TORSDOF 26
ENDMDL
MODEL 15
REMARK VINA RESULT:      -6.4      2.851      7.416
REMARK  26 active torsions:
REMARK  status: ('A' for Active; 'I' for Inactive)
REMARK    1  A    between atoms: C2_2  and  C3_3 
REMARK    2  A    between atoms: C4_6  and  C5_7 
REMARK       I    between atoms: C5_7  and  N2_9 
REMARK    3  A    between atoms: N2_9  and  C6_10 
REMARK    4  A    between atoms: C6_10  and  C7_11 
REMARK    5  A    between atoms: C6_10  and  C8_13 
REMARK       I    between atoms: C7_11  and  N3_14 
REMARK    6  A    between atoms: N3_14  and  C9_15 
REMARK    7  A    between atoms: C9_15  and  C10_16 
REMARK    8  A    between atoms: C9_15  and  C11_18 
REMARK       I    between atoms: C10_16  and  N4_21 
REMARK    9  A    between atoms: C11_18  and  C12_19 
REMARK   10  A    between atoms: C11_18  and  C13_20 
REMARK   11  A    between atoms: N4_21  and  C14_22 
REMARK   12  A    between atoms: C14_22  and  C15_23 
REMARK   13  A    between atoms: C14_22  and  C16_25 
REMARK       I    between atoms: C15_23  and  N6_40 
REMARK   14  A    between atoms: C16_25  and  C17_26 
REMARK   15  A    between atoms: C17_26  and  C18_27 
REMARK   16  A    between atoms: C17_26  and  C19_28 
REMARK   17  A    between atoms: C20_29  and  C21_30 
REMARK   18  A    between atoms: C20_29  and  C24_33 
REMARK   19  A    between atoms: C20_29  and  N6_40 
REMARK   20  A    between atoms: C21_30  and  C22_31 
REMARK   21  A    between atoms: C22_31  and  C23_32 
REMARK   22  A    between atoms: C23_32  and  O8_43 
REMARK   23  A    between atoms: C24_33  and  C25_34 
REMARK   24  A    between atoms: C28_38  and  O6_39 
REMARK   25  A    between atoms: C29_42  and  O8_43 
REMARK   26  A    between atoms: C29_42  and  C35_49 
ROOT
ATOM      1  C14 non d ame      -8.489   8.569  68.751  0.00  0.00     0.089 C 
ATOM      2  H20 non d ame      -7.410   8.726  68.740  0.00  0.00     0.087 H 
ENDROOT
BRANCH   1   3
ATOM      3  N4  non d ame      -8.881   8.123  67.423  0.00  0.00    -0.346 N 
ATOM      4  C10 non d ame      -7.919   8.232  66.268  0.00  0.00     0.241 C 
ATOM      5  O4  non d ame      -6.834   8.685  66.431  0.00  0.00    -0.271 OA
ATOM      6  H19 non d ame      -9.809   7.742  67.305  0.00  0.00     0.163 HD
BRANCH   4   7
ATOM      7  C9  non d ame      -8.340   7.760  64.901  0.00  0.00     0.092 C 
ATOM      8  H11 non d ame      -9.272   7.201  64.986  0.00  0.00     0.088 H 
BRANCH   7   9
ATOM      9  N3  non d ame      -8.605   8.918  64.043  0.00  0.00    -0.346 N 
ATOM     10  C7  non d ame      -9.597   9.891  64.433  0.00  0.00     0.240 C 
ATOM     11  O3  non d ame     -10.190   9.756  65.432  0.00  0.00    -0.271 OA
ATOM     12  H10 non d ame      -8.102   9.048  63.177  0.00  0.00     0.163 HD
BRANCH  10  13
ATOM     13  C6  non d ame      -9.877  11.121  63.514  0.00  0.00     0.086 C 
ATOM     14  H6  non d ame     -10.893  11.129  63.119  0.00  0.00     0.086 H 
BRANCH  13  15
ATOM     15  N2  non d ame      -9.725  12.337  64.296  0.00  0.00    -0.343 N 
ATOM     16  C5  non d ame     -10.806  13.326  64.308  0.00  0.00     0.273 C 
ATOM     17  O2  non d ame     -11.792  13.134  63.685  0.00  0.00    -0.266 OA
ATOM     18  H5  non d ame      -8.879  12.493  64.824  0.00  0.00     0.163 HD
BRANCH  16  19
ATOM     19  C4  non d ame     -10.660  14.615  65.131  0.00  0.00     0.154 A 
ATOM     20  C1  non d ame     -10.236  14.728  66.493  0.00  0.00    -0.017 A 
ATOM     21  C2  non d ame     -10.272  16.113  66.771  0.00  0.00     0.077 A 
ATOM     22  H1  non d ame      -9.947  13.929  67.175  0.00  0.00     0.091 H 
ATOM     23  O1  non d ame     -10.669  16.715  65.689  0.00  0.00    -0.218 OA
ATOM     24  N1  non d ame     -10.902  15.862  64.718  0.00  0.00    -0.123 NA
BRANCH  21  25
ATOM     25  C3  non d ame      -9.910  16.777  68.093  0.00  0.00    -0.029 C 
ATOM     26  H2  non d ame     -10.641  17.553  68.323  0.00  0.00     0.036 H 
ATOM     27  H3  non d ame      -9.912  16.030  68.887  0.00  0.00     0.036 H 
ATOM     28  H4  non d ame      -8.918  17.223  68.017  0.00  0.00     0.036 H 
ENDBRANCH  21  25
ENDBRANCH  16  19
ENDBRANCH  13  15
BRANCH  13  29
ATOM     29  C8  non d ame      -8.905  11.123  62.362  0.00  0.00    -0.049 C 
ATOM     30  H7  non d ame      -8.299  12.028  62.399  0.00  0.00     0.030 H 
ATOM     31  H8  non d ame      -8.257  10.249  62.431  0.00  0.00     0.030 H 
ATOM     32  H9  non d ame      -9.457  11.093  61.422  0.00  0.00     0.030 H 
ENDBRANCH  13  29
ENDBRANCH  10  13
ENDBRANCH   7   9
BRANCH   7  33
ATOM     33  C11 non d ame      -7.200   6.904  64.274  0.00  0.00    -0.033 C 
ATOM     34  H12 non d ame      -6.437   6.762  65.039  0.00  0.00     0.042 H 
BRANCH  33  35
ATOM     35  C12 non d ame      -7.714   5.491  63.855  0.00  0.00    -0.071 C 
ATOM     36  H13 non d ame      -6.924   4.960  63.325  0.00  0.00     0.028 H 
ATOM     37  H14 non d ame      -7.995   4.929  64.746  0.00  0.00     0.028 H 
ATOM     38  H15 non d ame      -8.581   5.599  63.204  0.00  0.00     0.028 H 
ENDBRANCH  33  35
BRANCH  33  39
ATOM     39  C13 non d ame      -6.542   7.648  63.067  0.00  0.00    -0.071 C 
ATOM     40  H16 non d ame      -5.925   6.949  62.503  0.00  0.00     0.028 H 
ATOM     41  H17 non d ame      -7.321   8.050  62.419  0.00  0.00     0.028 H 
ATOM     42  H18 non d ame      -5.921   8.463  63.439  0.00  0.00     0.028 H 
ENDBRANCH  33  39
ENDBRANCH   7  33
ENDBRANCH   4   7
ENDBRANCH   1   3
BRANCH   1  43
ATOM     43  C15 non d ame      -8.914   7.486  69.784  0.00  0.00     0.240 C 
ATOM     44  O5  non d ame      -8.325   6.455  69.835  0.00  0.00    -0.271 OA
ATOM     45  N6  non d ame     -10.050   7.739  70.716  0.00  0.00    -0.355 N 
ATOM     46  H46 non d ame     -10.554   8.613  70.685  0.00  0.00     0.162 HD
BRANCH  45  47
ATOM     47  C20 non d ame     -10.441   6.699  71.693  0.00  0.00     0.013 C 
ATOM     48  H30 non d ame     -10.119   5.734  71.303  0.00  0.00     0.072 H 
BRANCH  47  49
ATOM     49  C21 non d ame     -11.944   6.712  71.862  0.00  0.00    -0.038 C 
ATOM     50  H31 non d ame     -12.354   6.622  70.856  0.00  0.00     0.036 H 
ATOM     51  H32 non d ame     -12.162   5.951  72.611  0.00  0.00     0.036 H 
BRANCH  49  52
ATOM     52  C22 non d ame     -12.471   8.048  72.429  0.00  0.00     0.018 C 
ATOM     53  H33 non d ame     -12.814   7.825  73.440  0.00  0.00     0.048 H 
ATOM     54  H34 non d ame     -11.671   8.772  72.273  0.00  0.00     0.048 H 
BRANCH  52  55
ATOM     55  C23 non d ame     -13.707   8.606  71.671  0.00  0.00     0.259 C 
ATOM     56  O7  non d ame     -14.726   7.995  71.646  0.00  0.00    -0.265 OA
BRANCH  55  57
ATOM     57  O8  non d ame     -13.605   9.853  70.994  0.00  0.00    -0.317 OA
BRANCH  57  58
ATOM     58  C29 non d ame     -12.299  10.436  71.041  0.00  0.00     0.052 C 
ATOM     59  H47 non d ame     -11.923  10.235  72.044  0.00  0.00     0.082 H 
ATOM     60  H48 non d ame     -11.770  10.045  70.172  0.00  0.00     0.082 H 
BRANCH  58  61
ATOM     61  C35 non d ame     -12.454  11.971  70.873  0.00  0.00    -0.034 A 
ATOM     62  C30 non d ame     -11.962  12.600  69.733  0.00  0.00    -0.075 A 
ATOM     63  C31 non d ame     -12.100  13.978  69.582  0.00  0.00    -0.082 A 
ATOM     64  H49 non d ame     -11.469  12.012  68.959  0.00  0.00     0.084 H 
ATOM     65  C32 non d ame     -12.731  14.730  70.577  0.00  0.00    -0.083 A 
ATOM     66  H50 non d ame     -11.716  14.468  68.687  0.00  0.00     0.083 H 
ATOM     67  C33 non d ame     -13.217  14.098  71.714  0.00  0.00    -0.082 A 
ATOM     68  H51 non d ame     -12.844  15.808  70.467  0.00  0.00     0.083 H 
ATOM     69  C34 non d ame     -13.083  12.720  71.868  0.00  0.00    -0.075 A 
ATOM     70  H52 non d ame     -13.707  14.688  72.490  0.00  0.00     0.083 H 
ATOM     71  H53 non d ame     -13.469  12.231  72.764  0.00  0.00     0.084 H 
ENDBRANCH  58  61
ENDBRANCH  57  58
ENDBRANCH  55  57
ENDBRANCH  52  55
ENDBRANCH  49  52
ENDBRANCH  47  49
BRANCH  47  72
ATOM     72  C24 non d ame      -9.774   6.978  73.038  0.00  0.00    -0.039 C 
ATOM     73  H35 non d ame      -8.985   7.700  72.826  0.00  0.00     0.036 H 
ATOM     74  H36 non d ame     -10.586   7.242  73.715  0.00  0.00     0.036 H 
BRANCH  72  75
ATOM     75  C25 non d ame      -9.069   5.668  73.632  0.00  0.00    -0.001 C 
ATOM     76  C26 non d ame      -9.349   4.384  72.644  0.00  0.00    -0.035 C 
ATOM     77  C27 non d ame      -9.831   3.358  73.387  0.00  0.00     0.085 C 
ATOM     78  H38 non d ame     -10.168   4.610  71.961  0.00  0.00     0.036 H 
ATOM     79  H39 non d ame      -8.407   3.997  72.257  0.00  0.00     0.036 H 
ATOM     80  N5  non d ame     -10.213   3.929  74.732  0.00  0.00    -0.049 N 
ATOM     81  H40 non d ame     -10.733   3.025  72.873  0.00  0.00     0.075 H 
ATOM     82  H41 non d ame      -8.993   2.674  73.516  0.00  0.00     0.075 H 
ATOM     83  C28 non d ame      -9.522   5.386  74.808  0.00  0.00     0.193 C 
ATOM     84  H42 non d ame     -11.215   4.048  74.718  0.00  0.00     0.280 HD
ATOM     85  H43 non d ame      -9.785   3.334  75.427  0.00  0.00     0.280 HD
ATOM     86  H44 non d ame      -8.626   5.543  75.409  0.00  0.00     0.129 H 
ATOM     87  H37 non d ame      -8.035   5.852  73.925  0.00  0.00     0.046 H 
BRANCH  83  88
ATOM     88  O6  non d ame     -10.466   6.355  75.269  0.00  0.00    -0.369 OA
ATOM     89  H45 non d ame     -11.087   6.555  74.565  0.00  0.00     0.212 HD
ENDBRANCH  83  88
ENDBRANCH  72  75
ENDBRANCH  47  72
ENDBRANCH  45  47
ENDBRANCH   1  43
BRANCH   1  90
ATOM     90  C16 non d ame      -9.195   9.879  69.064  0.00  0.00    -0.035 C 
ATOM     91  H21 non d ame      -9.924  10.011  68.264  0.00  0.00     0.037 H 
ATOM     92  H22 non d ame      -9.532   9.786  70.097  0.00  0.00     0.037 H 
BRANCH  90  93
ATOM     93  C17 non d ame      -8.255  11.125  69.015  0.00  0.00    -0.059 C 
ATOM     94  H23 non d ame      -8.555  11.797  69.820  0.00  0.00     0.038 H 
BRANCH  93  95
ATOM     95  C18 non d ame      -6.758  10.743  69.246  0.00  0.00    -0.073 C 
ATOM     96  H24 non d ame      -6.274  10.576  68.285  0.00  0.00     0.028 H 
ATOM     97  H25 non d ame      -6.253  11.555  69.771  0.00  0.00     0.028 H 
ATOM     98  H26 non d ame      -6.703   9.834  69.845  0.00  0.00     0.028 H 
ENDBRANCH  93  95
BRANCH  93  99
ATOM     99  C19 non d ame      -8.426  11.888  67.699  0.00  0.00    -0.073 C 
ATOM    100  H27 non d ame      -7.459  12.270  67.372  0.00  0.00     0.028 H 
ATOM    101  H28 non d ame      -8.827  11.216  66.940  0.00  0.00     0.028 H 
ATOM    102  H29 non d ame      -9.115  12.720  67.848  0.00  0.00     0.028 H 
ENDBRANCH  93  99
ENDBRANCH  90  93
ENDBRANCH   1  90
TORSDOF 26
ENDMDL
MODEL 16
REMARK VINA RESULT:      -6.3      2.775      6.474
REMARK  26 active torsions:
REMARK  status: ('A' for Active; 'I' for Inactive)
REMARK    1  A    between atoms: C2_2  and  C3_3 
REMARK    2  A    between atoms: C4_6  and  C5_7 
REMARK       I    between atoms: C5_7  and  N2_9 
REMARK    3  A    between atoms: N2_9  and  C6_10 
REMARK    4  A    between atoms: C6_10  and  C7_11 
REMARK    5  A    between atoms: C6_10  and  C8_13 
REMARK       I    between atoms: C7_11  and  N3_14 
REMARK    6  A    between atoms: N3_14  and  C9_15 
REMARK    7  A    between atoms: C9_15  and  C10_16 
REMARK    8  A    between atoms: C9_15  and  C11_18 
REMARK       I    between atoms: C10_16  and  N4_21 
REMARK    9  A    between atoms: C11_18  and  C12_19 
REMARK   10  A    between atoms: C11_18  and  C13_20 
REMARK   11  A    between atoms: N4_21  and  C14_22 
REMARK   12  A    between atoms: C14_22  and  C15_23 
REMARK   13  A    between atoms: C14_22  and  C16_25 
REMARK       I    between atoms: C15_23  and  N6_40 
REMARK   14  A    between atoms: C16_25  and  C17_26 
REMARK   15  A    between atoms: C17_26  and  C18_27 
REMARK   16  A    between atoms: C17_26  and  C19_28 
REMARK   17  A    between atoms: C20_29  and  C21_30 
REMARK   18  A    between atoms: C20_29  and  C24_33 
REMARK   19  A    between atoms: C20_29  and  N6_40 
REMARK   20  A    between atoms: C21_30  and  C22_31 
REMARK   21  A    between atoms: C22_31  and  C23_32 
REMARK   22  A    between atoms: C23_32  and  O8_43 
REMARK   23  A    between atoms: C24_33  and  C25_34 
REMARK   24  A    between atoms: C28_38  and  O6_39 
REMARK   25  A    between atoms: C29_42  and  O8_43 
REMARK   26  A    between atoms: C29_42  and  C35_49 
ROOT
ATOM      1  C14 non d ame      -6.323   9.652  64.889  0.00  0.00     0.089 C 
ATOM      2  H20 non d ame      -5.337   9.834  65.319  0.00  0.00     0.087 H 
ENDROOT
BRANCH   1   3
ATOM      3  N4  non d ame      -6.651   8.253  65.120  0.00  0.00    -0.346 N 
ATOM      4  C10 non d ame      -5.710   7.369  65.900  0.00  0.00     0.241 C 
ATOM      5  O4  non d ame      -4.693   7.806  66.329  0.00  0.00    -0.271 OA
ATOM      6  H19 non d ame      -7.520   7.901  64.745  0.00  0.00     0.163 HD
BRANCH   4   7
ATOM      7  C9  non d ame      -6.069   5.926  66.136  0.00  0.00     0.092 C 
ATOM      8  H11 non d ame      -5.653   5.604  67.091  0.00  0.00     0.088 H 
BRANCH   7   9
ATOM      9  N3  non d ame      -7.526   5.792  66.230  0.00  0.00    -0.346 N 
ATOM     10  C7  non d ame      -8.111   5.021  67.299  0.00  0.00     0.240 C 
ATOM     11  O3  non d ame      -7.424   4.500  68.091  0.00  0.00    -0.271 OA
ATOM     12  H10 non d ame      -8.131   6.235  65.553  0.00  0.00     0.163 HD
BRANCH  10  13
ATOM     13  C6  non d ame      -9.662   4.881  67.392  0.00  0.00     0.086 C 
ATOM     14  H6  non d ame      -9.973   3.958  67.881  0.00  0.00     0.086 H 
BRANCH  13  15
ATOM     15  N2  non d ame     -10.187   5.973  68.194  0.00  0.00    -0.343 N 
ATOM     16  C5  non d ame     -10.527   5.739  69.599  0.00  0.00     0.273 C 
ATOM     17  O2  non d ame     -10.376   4.667  70.074  0.00  0.00    -0.266 OA
ATOM     18  H5  non d ame     -10.315   6.886  67.779  0.00  0.00     0.163 HD
BRANCH  16  19
ATOM     19  C4  non d ame     -11.081   6.885  70.459  0.00  0.00     0.154 A 
ATOM     20  C1  non d ame     -12.385   6.976  71.042  0.00  0.00    -0.017 A 
ATOM     21  C2  non d ame     -12.391   8.212  71.728  0.00  0.00     0.077 A 
ATOM     22  H1  non d ame     -13.201   6.257  70.978  0.00  0.00     0.091 H 
ATOM     23  O1  non d ame     -11.223   8.757  71.553  0.00  0.00    -0.218 OA
ATOM     24  N1  non d ame     -10.441   8.002  70.816  0.00  0.00    -0.123 NA
BRANCH  21  25
ATOM     25  C3  non d ame     -13.551   8.795  72.524  0.00  0.00    -0.029 C 
ATOM     26  H2  non d ame     -14.340   8.049  72.617  0.00  0.00     0.036 H 
ATOM     27  H3  non d ame     -13.202   9.081  73.516  0.00  0.00     0.036 H 
ATOM     28  H4  non d ame     -13.940   9.674  72.009  0.00  0.00     0.036 H 
ENDBRANCH  21  25
ENDBRANCH  16  19
ENDBRANCH  13  15
BRANCH  13  29
ATOM     29  C8  non d ame     -10.258   4.923  66.008  0.00  0.00    -0.049 C 
ATOM     30  H7  non d ame      -9.764   5.700  65.424  0.00  0.00     0.030 H 
ATOM     31  H8  non d ame     -10.117   3.958  65.522  0.00  0.00     0.030 H 
ATOM     32  H9  non d ame     -11.323   5.143  66.078  0.00  0.00     0.030 H 
ENDBRANCH  13  29
ENDBRANCH  10  13
ENDBRANCH   7   9
BRANCH   7  33
ATOM     33  C11 non d ame      -5.548   5.062  64.950  0.00  0.00    -0.033 C 
ATOM     34  H12 non d ame      -6.119   4.134  64.943  0.00  0.00     0.042 H 
BRANCH  33  35
ATOM     35  C12 non d ame      -5.789   5.771  63.581  0.00  0.00    -0.071 C 
ATOM     36  H13 non d ame      -5.199   5.279  62.807  0.00  0.00     0.028 H 
ATOM     37  H14 non d ame      -6.847   5.712  63.323  0.00  0.00     0.028 H 
ATOM     38  H15 non d ame      -5.491   6.816  63.656  0.00  0.00     0.028 H 
ENDBRANCH  33  35
BRANCH  33  39
ATOM     39  C13 non d ame      -4.040   4.700  65.142  0.00  0.00    -0.071 C 
ATOM     40  H16 non d ame      -3.449   5.615  65.180  0.00  0.00     0.028 H 
ATOM     41  H17 non d ame      -3.914   4.147  66.073  0.00  0.00     0.028 H 
ATOM     42  H18 non d ame      -3.705   4.086  64.306  0.00  0.00     0.028 H 
ENDBRANCH  33  39
ENDBRANCH   7  33
ENDBRANCH   4   7
ENDBRANCH   1   3
BRANCH   1  43
ATOM     43  C15 non d ame      -7.423  10.535  65.545  0.00  0.00     0.240 C 
ATOM     44  O5  non d ame      -8.561  10.384  65.240  0.00  0.00    -0.271 OA
ATOM     45  N6  non d ame      -7.057  11.562  66.562  0.00  0.00    -0.355 N 
ATOM     46  H46 non d ame      -6.093  11.696  66.832  0.00  0.00     0.162 HD
BRANCH  45  47
ATOM     47  C20 non d ame      -8.114  12.392  67.178  0.00  0.00     0.013 C 
ATOM     48  H30 non d ame      -8.791  12.715  66.387  0.00  0.00     0.072 H 
BRANCH  47  49
ATOM     49  C21 non d ame      -7.483  13.596  67.840  0.00  0.00    -0.038 C 
ATOM     50  H31 non d ame      -6.989  13.215  68.734  0.00  0.00     0.036 H 
ATOM     51  H32 non d ame      -6.898  14.087  67.062  0.00  0.00     0.036 H 
BRANCH  49  52
ATOM     52  C22 non d ame      -8.524  14.629  68.322  0.00  0.00     0.018 C 
ATOM     53  H33 non d ame      -9.498  14.179  68.131  0.00  0.00     0.048 H 
ATOM     54  H34 non d ame      -8.233  14.887  69.341  0.00  0.00     0.048 H 
BRANCH  52  55
ATOM     55  C23 non d ame      -8.502  15.961  67.521  0.00  0.00     0.259 C 
ATOM     56  O7  non d ame      -8.153  16.971  68.040  0.00  0.00    -0.265 OA
BRANCH  55  57
ATOM     57  O8  non d ame      -8.916  15.961  66.160  0.00  0.00    -0.317 OA
BRANCH  57  58
ATOM     58  C29 non d ame     -10.327  16.119  65.981  0.00  0.00     0.052 C 
ATOM     59  H47 non d ame     -10.728  16.333  66.972  0.00  0.00     0.082 H 
ATOM     60  H48 non d ame     -10.443  16.845  65.177  0.00  0.00     0.082 H 
BRANCH  58  61
ATOM     61  C35 non d ame     -10.903  14.760  65.501  0.00  0.00    -0.034 A 
ATOM     62  C30 non d ame     -10.131  13.916  64.709  0.00  0.00    -0.075 A 
ATOM     63  C31 non d ame     -10.649  12.696  64.278  0.00  0.00    -0.082 A 
ATOM     64  H49 non d ame      -9.120  14.211  64.427  0.00  0.00     0.084 H 
ATOM     65  C32 non d ame     -11.945  12.321  64.640  0.00  0.00    -0.083 A 
ATOM     66  H50 non d ame     -10.040  12.036  63.660  0.00  0.00     0.083 H 
ATOM     67  C33 non d ame     -12.713  13.168  65.428  0.00  0.00    -0.082 A 
ATOM     68  H51 non d ame     -12.358  11.368  64.308  0.00  0.00     0.083 H 
ATOM     69  C34 non d ame     -12.199  14.388  65.863  0.00  0.00    -0.075 A 
ATOM     70  H52 non d ame     -13.726  12.873  65.707  0.00  0.00     0.083 H 
ATOM     71  H53 non d ame     -12.808  15.047  66.482  0.00  0.00     0.084 H 
ENDBRANCH  58  61
ENDBRANCH  57  58
ENDBRANCH  55  57
ENDBRANCH  52  55
ENDBRANCH  49  52
ENDBRANCH  47  49
BRANCH  47  72
ATOM     72  C24 non d ame      -8.871  11.573  68.222  0.00  0.00    -0.039 C 
ATOM     73  H35 non d ame      -8.540  10.544  68.079  0.00  0.00     0.036 H 
ATOM     74  H36 non d ame      -8.689  12.077  69.172  0.00  0.00     0.036 H 
BRANCH  72  75
ATOM     75  C25 non d ame     -10.452  11.602  67.966  0.00  0.00    -0.001 C 
ATOM     76  C26 non d ame     -11.204  12.390  69.198  0.00  0.00    -0.035 C 
ATOM     77  C27 non d ame     -12.208  11.611  69.666  0.00  0.00     0.085 C 
ATOM     78  H38 non d ame     -10.532  12.480  70.050  0.00  0.00     0.036 H 
ATOM     79  H39 non d ame     -11.722  13.271  68.817  0.00  0.00     0.036 H 
ATOM     80  N5  non d ame     -12.002  10.231  69.088  0.00  0.00    -0.049 N 
ATOM     81  H40 non d ame     -12.065  11.569  70.747  0.00  0.00     0.075 H 
ATOM     82  H41 non d ame     -13.123  12.035  69.254  0.00  0.00     0.075 H 
ATOM     83  C28 non d ame     -10.934  10.407  67.890  0.00  0.00     0.193 C 
ATOM     84  H42 non d ame     -11.579   9.676  69.818  0.00  0.00     0.280 HD
ATOM     85  H43 non d ame     -12.888   9.952  68.691  0.00  0.00     0.280 HD
ATOM     86  H44 non d ame     -11.261  10.391  66.851  0.00  0.00     0.129 H 
ATOM     87  H37 non d ame     -10.700  11.914  66.952  0.00  0.00     0.046 H 
BRANCH  83  88
ATOM     88  O6  non d ame      -9.918   9.407  67.986  0.00  0.00    -0.369 OA
ATOM     89  H45 non d ame      -9.072   9.827  68.158  0.00  0.00     0.212 HD
ENDBRANCH  83  88
ENDBRANCH  72  75
ENDBRANCH  47  72
ENDBRANCH  45  47
ENDBRANCH   1  43
BRANCH   1  90
ATOM     90  C16 non d ame      -6.286   9.911  63.391  0.00  0.00    -0.035 C 
ATOM     91  H21 non d ame      -5.969  10.950  63.285  0.00  0.00     0.037 H 
ATOM     92  H22 non d ame      -5.674   9.111  62.974  0.00  0.00     0.037 H 
BRANCH  90  93
ATOM     93  C17 non d ame      -7.683   9.804  62.702  0.00  0.00    -0.059 C 
ATOM     94  H23 non d ame      -8.442   9.863  63.482  0.00  0.00     0.038 H 
BRANCH  93  95
ATOM     95  C18 non d ame      -7.938  10.976  61.700  0.00  0.00    -0.073 C 
ATOM     96  H24 non d ame      -8.618  11.698  62.152  0.00  0.00     0.028 H 
ATOM     97  H25 non d ame      -6.992  11.464  61.465  0.00  0.00     0.028 H 
ATOM     98  H26 non d ame      -8.381  10.581  60.785  0.00  0.00     0.028 H 
ENDBRANCH  93  95
BRANCH  93  99
ATOM     99  C19 non d ame      -7.848   8.449  62.008  0.00  0.00    -0.073 C 
ATOM    100  H27 non d ame      -6.914   8.177  61.515  0.00  0.00     0.028 H 
ATOM    101  H28 non d ame      -8.102   7.690  62.749  0.00  0.00     0.028 H 
ATOM    102  H29 non d ame      -8.645   8.514  61.268  0.00  0.00     0.028 H 
ENDBRANCH  93  99
ENDBRANCH  90  93
ENDBRANCH   1  90
TORSDOF 26
ENDMDL
MODEL 17
REMARK VINA RESULT:      -6.3      2.390      5.175
REMARK  26 active torsions:
REMARK  status: ('A' for Active; 'I' for Inactive)
REMARK    1  A    between atoms: C2_2  and  C3_3 
REMARK    2  A    between atoms: C4_6  and  C5_7 
REMARK       I    between atoms: C5_7  and  N2_9 
REMARK    3  A    between atoms: N2_9  and  C6_10 
REMARK    4  A    between atoms: C6_10  and  C7_11 
REMARK    5  A    between atoms: C6_10  and  C8_13 
REMARK       I    between atoms: C7_11  and  N3_14 
REMARK    6  A    between atoms: N3_14  and  C9_15 
REMARK    7  A    between atoms: C9_15  and  C10_16 
REMARK    8  A    between atoms: C9_15  and  C11_18 
REMARK       I    between atoms: C10_16  and  N4_21 
REMARK    9  A    between atoms: C11_18  and  C12_19 
REMARK   10  A    between atoms: C11_18  and  C13_20 
REMARK   11  A    between atoms: N4_21  and  C14_22 
REMARK   12  A    between atoms: C14_22  and  C15_23 
REMARK   13  A    between atoms: C14_22  and  C16_25 
REMARK       I    between atoms: C15_23  and  N6_40 
REMARK   14  A    between atoms: C16_25  and  C17_26 
REMARK   15  A    between atoms: C17_26  and  C18_27 
REMARK   16  A    between atoms: C17_26  and  C19_28 
REMARK   17  A    between atoms: C20_29  and  C21_30 
REMARK   18  A    between atoms: C20_29  and  C24_33 
REMARK   19  A    between atoms: C20_29  and  N6_40 
REMARK   20  A    between atoms: C21_30  and  C22_31 
REMARK   21  A    between atoms: C22_31  and  C23_32 
REMARK   22  A    between atoms: C23_32  and  O8_43 
REMARK   23  A    between atoms: C24_33  and  C25_34 
REMARK   24  A    between atoms: C28_38  and  O6_39 
REMARK   25  A    between atoms: C29_42  and  O8_43 
REMARK   26  A    between atoms: C29_42  and  C35_49 
ROOT
ATOM      1  C14 non d ame      -7.647  12.026  67.518  0.00  0.00     0.089 C 
ATOM      2  H20 non d ame      -7.073  11.577  68.329  0.00  0.00     0.087 H 
ENDROOT
BRANCH   1   3
ATOM      3  N4  non d ame      -7.343  11.285  66.303  0.00  0.00    -0.346 N 
ATOM      4  C10 non d ame      -6.405  10.105  66.345  0.00  0.00     0.241 C 
ATOM      5  O4  non d ame      -5.905   9.772  67.368  0.00  0.00    -0.271 OA
ATOM      6  H19 non d ame      -7.776  11.586  65.442  0.00  0.00     0.163 HD
BRANCH   4   7
ATOM      7  C9  non d ame      -6.105   9.347  65.079  0.00  0.00     0.092 C 
ATOM      8  H11 non d ame      -5.119   8.890  65.159  0.00  0.00     0.088 H 
BRANCH   7   9
ATOM      9  N3  non d ame      -7.075   8.258  64.920  0.00  0.00    -0.346 N 
ATOM     10  C7  non d ame      -6.636   6.886  64.995  0.00  0.00     0.240 C 
ATOM     11  O3  non d ame      -5.507   6.640  65.182  0.00  0.00    -0.271 OA
ATOM     12  H10 non d ame      -8.052   8.455  64.757  0.00  0.00     0.163 HD
BRANCH  10  13
ATOM     13  C6  non d ame      -7.671   5.732  64.823  0.00  0.00     0.086 C 
ATOM     14  H6  non d ame      -7.241   4.748  65.007  0.00  0.00     0.086 H 
BRANCH  13  15
ATOM     15  N2  non d ame      -8.739   5.907  65.793  0.00  0.00    -0.343 N 
ATOM     16  C5  non d ame      -8.495   5.584  67.200  0.00  0.00     0.273 C 
ATOM     17  O2  non d ame      -7.437   5.181  67.541  0.00  0.00    -0.266 OA
ATOM     18  H5  non d ame      -9.641   6.250  65.493  0.00  0.00     0.163 HD
BRANCH  16  19
ATOM     19  C4  non d ame      -9.614   5.766  68.238  0.00  0.00     0.154 A 
ATOM     20  C1  non d ame      -9.529   5.546  69.649  0.00  0.00    -0.017 A 
ATOM     21  C2  non d ame     -10.817   5.853  70.143  0.00  0.00     0.077 A 
ATOM     22  H1  non d ame      -8.666   5.215  70.226  0.00  0.00     0.091 H 
ATOM     23  O1  non d ame     -11.547   6.208  69.126  0.00  0.00    -0.218 OA
ATOM     24  N1  non d ame     -10.867   6.165  68.004  0.00  0.00    -0.123 NA
BRANCH  21  25
ATOM     25  C3  non d ame     -11.265   5.782  71.597  0.00  0.00    -0.029 C 
ATOM     26  H2  non d ame     -10.803   6.593  72.160  0.00  0.00     0.036 H 
ATOM     27  H3  non d ame     -12.350   5.877  71.647  0.00  0.00     0.036 H 
ATOM     28  H4  non d ame     -10.964   4.825  72.024  0.00  0.00     0.036 H 
ENDBRANCH  21  25
ENDBRANCH  16  19
ENDBRANCH  13  15
BRANCH  13  29
ATOM     29  C8  non d ame      -8.234   5.763  63.424  0.00  0.00    -0.049 C 
ATOM     30  H7  non d ame      -8.150   6.772  63.021  0.00  0.00     0.030 H 
ATOM     31  H8  non d ame      -7.676   5.072  62.793  0.00  0.00     0.030 H 
ATOM     32  H9  non d ame      -9.283   5.468  63.449  0.00  0.00     0.030 H 
ENDBRANCH  13  29
ENDBRANCH  10  13
ENDBRANCH   7   9
BRANCH   7  33
ATOM     33  C11 non d ame      -6.208  10.310  63.860  0.00  0.00    -0.033 C 
ATOM     34  H12 non d ame      -6.817  11.161  64.165  0.00  0.00     0.042 H 
BRANCH  33  35
ATOM     35  C12 non d ame      -4.806  10.860  63.451  0.00  0.00    -0.071 C 
ATOM     36  H13 non d ame      -4.433  11.523  64.232  0.00  0.00     0.028 H 
ATOM     37  H14 non d ame      -4.114  10.028  63.321  0.00  0.00     0.028 H 
ATOM     38  H15 non d ame      -4.891  11.411  62.515  0.00  0.00     0.028 H 
ENDBRANCH  33  35
BRANCH  33  39
ATOM     39  C13 non d ame      -6.918   9.614  62.655  0.00  0.00    -0.071 C 
ATOM     40  H16 non d ame      -7.893  10.073  62.493  0.00  0.00     0.028 H 
ATOM     41  H17 non d ame      -6.309   9.731  61.758  0.00  0.00     0.028 H 
ATOM     42  H18 non d ame      -7.046   8.554  62.872  0.00  0.00     0.028 H 
ENDBRANCH  33  39
ENDBRANCH   7  33
ENDBRANCH   4   7
ENDBRANCH   1   3
BRANCH   1  43
ATOM     43  C15 non d ame      -9.180  11.951  67.773  0.00  0.00     0.240 C 
ATOM     44  O5  non d ame      -9.713  10.893  67.863  0.00  0.00    -0.271 OA
ATOM     45  N6  non d ame      -9.982  13.200  67.913  0.00  0.00    -0.355 N 
ATOM     46  H46 non d ame      -9.539  14.105  67.844  0.00  0.00     0.162 HD
BRANCH  45  47
ATOM     47  C20 non d ame     -11.438  13.113  68.157  0.00  0.00     0.013 C 
ATOM     48  H30 non d ame     -11.628  12.204  68.727  0.00  0.00     0.072 H 
BRANCH  47  49
ATOM     49  C21 non d ame     -12.163  13.052  66.831  0.00  0.00    -0.038 C 
ATOM     50  H31 non d ame     -11.589  12.363  66.212  0.00  0.00     0.036 H 
ATOM     51  H32 non d ame     -13.202  12.831  67.075  0.00  0.00     0.036 H 
BRANCH  49  52
ATOM     52  C22 non d ame     -12.167  14.406  66.089  0.00  0.00     0.018 C 
ATOM     53  H33 non d ame     -13.018  14.367  65.408  0.00  0.00     0.048 H 
ATOM     54  H34 non d ame     -12.127  15.170  66.866  0.00  0.00     0.048 H 
BRANCH  52  55
ATOM     55  C23 non d ame     -10.915  14.635  65.197  0.00  0.00     0.259 C 
ATOM     56  O7  non d ame     -10.402  13.725  64.633  0.00  0.00    -0.265 OA
BRANCH  55  57
ATOM     57  O8  non d ame     -10.379  15.947  65.073  0.00  0.00    -0.317 OA
BRANCH  57  58
ATOM     58  C29 non d ame      -9.270  16.207  65.938  0.00  0.00     0.052 C 
ATOM     59  H47 non d ame      -9.255  15.385  66.653  0.00  0.00     0.082 H 
ATOM     60  H48 non d ame      -8.417  16.374  65.281  0.00  0.00     0.082 H 
BRANCH  58  61
ATOM     61  C35 non d ame      -9.562  17.523  66.708  0.00  0.00    -0.034 A 
ATOM     62  C30 non d ame      -9.149  17.662  68.029  0.00  0.00    -0.075 A 
ATOM     63  C31 non d ame      -9.411  18.844  68.721  0.00  0.00    -0.082 A 
ATOM     64  H49 non d ame      -8.620  16.847  68.522  0.00  0.00     0.084 H 
ATOM     65  C32 non d ame     -10.091  19.887  68.088  0.00  0.00    -0.083 A 
ATOM     66  H50 non d ame      -9.084  18.951  69.756  0.00  0.00     0.083 H 
ATOM     67  C33 non d ame     -10.504  19.742  66.771  0.00  0.00    -0.082 A 
ATOM     68  H51 non d ame     -10.299  20.815  68.622  0.00  0.00     0.083 H 
ATOM     69  C34 non d ame     -10.242  18.564  66.075  0.00  0.00    -0.075 A 
ATOM     70  H52 non d ame     -11.036  20.557  66.280  0.00  0.00     0.083 H 
ATOM     71  H53 non d ame     -10.569  18.458  65.040  0.00  0.00     0.084 H 
ENDBRANCH  58  61
ENDBRANCH  57  58
ENDBRANCH  55  57
ENDBRANCH  52  55
ENDBRANCH  49  52
ENDBRANCH  47  49
BRANCH  47  72
ATOM     72  C24 non d ame     -11.906  14.338  68.939  0.00  0.00    -0.039 C 
ATOM     73  H35 non d ame     -11.183  15.122  68.710  0.00  0.00     0.036 H 
ATOM     74  H36 non d ame     -12.954  14.469  68.672  0.00  0.00     0.036 H 
BRANCH  72  75
ATOM     75  C25 non d ame     -11.847  14.090  70.520  0.00  0.00    -0.001 C 
ATOM     76  C26 non d ame     -12.386  12.576  70.870  0.00  0.00    -0.035 C 
ATOM     77  C27 non d ame     -13.335  12.662  71.832  0.00  0.00     0.085 C 
ATOM     78  H38 non d ame     -12.925  12.165  70.016  0.00  0.00     0.036 H 
ATOM     79  H39 non d ame     -11.594  11.997  71.344  0.00  0.00     0.036 H 
ATOM     80  N5  non d ame     -13.726  14.116  71.938  0.00  0.00    -0.049 N 
ATOM     81  H40 non d ame     -14.185  12.092  71.455  0.00  0.00     0.075 H 
ATOM     82  H41 non d ame     -12.842  12.358  72.755  0.00  0.00     0.075 H 
ATOM     83  C28 non d ame     -12.581  14.942  71.155  0.00  0.00     0.193 C 
ATOM     84  H42 non d ame     -14.596  14.216  71.435  0.00  0.00     0.280 HD
ATOM     85  H43 non d ame     -13.680  14.354  72.919  0.00  0.00     0.280 HD
ATOM     86  H44 non d ame     -11.817  15.489  71.708  0.00  0.00     0.129 H 
ATOM     87  H37 non d ame     -10.890  14.387  70.950  0.00  0.00     0.046 H 
BRANCH  83  88
ATOM     88  O6  non d ame     -13.177  15.899  70.277  0.00  0.00    -0.369 OA
ATOM     89  H45 non d ame     -13.905  16.335  70.726  0.00  0.00     0.212 HD
ENDBRANCH  83  88
ENDBRANCH  72  75
ENDBRANCH  47  72
ENDBRANCH  45  47
ENDBRANCH   1  43
BRANCH   1  90
ATOM     90  C16 non d ame      -7.229  13.476  67.333  0.00  0.00    -0.035 C 
ATOM     91  H21 non d ame      -6.614  13.487  66.433  0.00  0.00     0.037 H 
ATOM     92  H22 non d ame      -8.156  14.050  67.366  0.00  0.00     0.037 H 
BRANCH  90  93
ATOM     93  C17 non d ame      -6.331  14.022  68.488  0.00  0.00    -0.059 C 
ATOM     94  H23 non d ame      -5.561  14.649  68.040  0.00  0.00     0.038 H 
BRANCH  93  95
ATOM     95  C18 non d ame      -7.137  14.904  69.495  0.00  0.00    -0.073 C 
ATOM     96  H24 non d ame      -8.202  14.696  69.388  0.00  0.00     0.028 H 
ATOM     97  H25 non d ame      -6.822  14.673  70.513  0.00  0.00     0.028 H 
ATOM     98  H26 non d ame      -6.949  15.957  69.286  0.00  0.00     0.028 H 
ENDBRANCH  93  95
BRANCH  93  99
ATOM     99  C19 non d ame      -5.620  12.877  69.215  0.00  0.00    -0.073 C 
ATOM    100  H27 non d ame      -6.297  12.027  69.305  0.00  0.00     0.028 H 
ATOM    101  H28 non d ame      -4.737  12.581  68.649  0.00  0.00     0.028 H 
ATOM    102  H29 non d ame      -5.320  13.209  70.209  0.00  0.00     0.028 H 
ENDBRANCH  93  99
ENDBRANCH  90  93
ENDBRANCH   1  90
TORSDOF 26
ENDMDL
MODEL 18
REMARK VINA RESULT:      -6.3      2.377      3.753
REMARK  26 active torsions:
REMARK  status: ('A' for Active; 'I' for Inactive)
REMARK    1  A    between atoms: C2_2  and  C3_3 
REMARK    2  A    between atoms: C4_6  and  C5_7 
REMARK       I    between atoms: C5_7  and  N2_9 
REMARK    3  A    between atoms: N2_9  and  C6_10 
REMARK    4  A    between atoms: C6_10  and  C7_11 
REMARK    5  A    between atoms: C6_10  and  C8_13 
REMARK       I    between atoms: C7_11  and  N3_14 
REMARK    6  A    between atoms: N3_14  and  C9_15 
REMARK    7  A    between atoms: C9_15  and  C10_16 
REMARK    8  A    between atoms: C9_15  and  C11_18 
REMARK       I    between atoms: C10_16  and  N4_21 
REMARK    9  A    between atoms: C11_18  and  C12_19 
REMARK   10  A    between atoms: C11_18  and  C13_20 
REMARK   11  A    between atoms: N4_21  and  C14_22 
REMARK   12  A    between atoms: C14_22  and  C15_23 
REMARK   13  A    between atoms: C14_22  and  C16_25 
REMARK       I    between atoms: C15_23  and  N6_40 
REMARK   14  A    between atoms: C16_25  and  C17_26 
REMARK   15  A    between atoms: C17_26  and  C18_27 
REMARK   16  A    between atoms: C17_26  and  C19_28 
REMARK   17  A    between atoms: C20_29  and  C21_30 
REMARK   18  A    between atoms: C20_29  and  C24_33 
REMARK   19  A    between atoms: C20_29  and  N6_40 
REMARK   20  A    between atoms: C21_30  and  C22_31 
REMARK   21  A    between atoms: C22_31  and  C23_32 
REMARK   22  A    between atoms: C23_32  and  O8_43 
REMARK   23  A    between atoms: C24_33  and  C25_34 
REMARK   24  A    between atoms: C28_38  and  O6_39 
REMARK   25  A    between atoms: C29_42  and  O8_43 
REMARK   26  A    between atoms: C29_42  and  C35_49 
ROOT
ATOM      1  C14 non d ame      -7.567  10.208  69.109  0.00  0.00     0.089 C 
ATOM      2  H20 non d ame      -7.706  10.622  70.108  0.00  0.00     0.087 H 
ENDROOT
BRANCH   1   3
ATOM      3  N4  non d ame      -8.224   8.910  69.077  0.00  0.00    -0.346 N 
ATOM      4  C10 non d ame      -9.651   8.767  69.542  0.00  0.00     0.241 C 
ATOM      5  O4  non d ame     -10.250   9.711  69.940  0.00  0.00    -0.271 OA
ATOM      6  H19 non d ame      -7.696   8.118  68.737  0.00  0.00     0.163 HD
BRANCH   4   7
ATOM      7  C9  non d ame     -10.317   7.417  69.497  0.00  0.00     0.092 C 
ATOM      8  H11 non d ame     -11.337   7.532  69.131  0.00  0.00     0.088 H 
BRANCH   7   9
ATOM      9  N3  non d ame      -9.610   6.554  68.546  0.00  0.00    -0.346 N 
ATOM     10  C7  non d ame     -10.177   6.300  67.244  0.00  0.00     0.240 C 
ATOM     11  O3  non d ame     -11.201   6.781  66.946  0.00  0.00    -0.271 OA
ATOM     12  H10 non d ame      -8.726   6.131  68.790  0.00  0.00     0.163 HD
BRANCH  10  13
ATOM     13  C6  non d ame      -9.421   5.378  66.238  0.00  0.00     0.086 C 
ATOM     14  H6  non d ame     -10.050   4.582  65.840  0.00  0.00     0.086 H 
BRANCH  13  15
ATOM     15  N2  non d ame      -8.991   6.175  65.101  0.00  0.00    -0.343 N 
ATOM     16  C5  non d ame      -8.096   7.314  65.315  0.00  0.00     0.273 C 
ATOM     17  O2  non d ame      -7.730   7.583  66.407  0.00  0.00    -0.266 OA
ATOM     18  H5  non d ame      -9.310   5.940  64.172  0.00  0.00     0.163 HD
BRANCH  16  19
ATOM     19  C4  non d ame      -7.632   8.164  64.122  0.00  0.00     0.154 A 
ATOM     20  C1  non d ame      -8.411   9.103  63.374  0.00  0.00    -0.017 A 
ATOM     21  C2  non d ame      -7.527   9.610  62.396  0.00  0.00     0.077 A 
ATOM     22  H1  non d ame      -9.457   9.374  63.520  0.00  0.00     0.091 H 
ATOM     23  O1  non d ame      -6.378   9.026  62.571  0.00  0.00    -0.218 OA
ATOM     24  N1  non d ame      -6.414   8.178  63.572  0.00  0.00    -0.123 NA
BRANCH  21  25
ATOM     25  C3  non d ame      -7.860  10.650  61.333  0.00  0.00    -0.029 C 
ATOM     26  H2  non d ame      -8.858  10.460  60.939  0.00  0.00     0.036 H 
ATOM     27  H3  non d ame      -7.827  11.645  61.777  0.00  0.00     0.036 H 
ATOM     28  H4  non d ame      -7.132  10.589  60.524  0.00  0.00     0.036 H 
ENDBRANCH  21  25
ENDBRANCH  16  19
ENDBRANCH  13  15
BRANCH  13  29
ATOM     29  C8  non d ame      -8.225   4.761  66.918  0.00  0.00    -0.049 C 
ATOM     30  H7  non d ame      -7.754   4.044  66.245  0.00  0.00     0.030 H 
ATOM     31  H8  non d ame      -7.510   5.542  67.175  0.00  0.00     0.030 H 
ATOM     32  H9  non d ame      -8.547   4.249  67.824  0.00  0.00     0.030 H 
ENDBRANCH  13  29
ENDBRANCH  10  13
ENDBRANCH   7   9
BRANCH   7  33
ATOM     33  C11 non d ame     -10.273   6.769  70.912  0.00  0.00    -0.033 C 
ATOM     34  H12 non d ame      -9.411   7.182  71.436  0.00  0.00     0.042 H 
BRANCH  33  35
ATOM     35  C12 non d ame     -11.543   7.132  71.743  0.00  0.00    -0.071 C 
ATOM     36  H13 non d ame     -11.469   8.164  72.088  0.00  0.00     0.028 H 
ATOM     37  H14 non d ame     -12.429   7.022  71.119  0.00  0.00     0.028 H 
ATOM     38  H15 non d ame     -11.618   6.466  72.602  0.00  0.00     0.028 H 
ENDBRANCH  33  35
BRANCH  33  39
ATOM     39  C13 non d ame     -10.084   5.222  70.814  0.00  0.00    -0.071 C 
ATOM     40  H16 non d ame      -9.781   4.830  71.785  0.00  0.00     0.028 H 
ATOM     41  H17 non d ame     -11.024   4.759  70.513  0.00  0.00     0.028 H 
ATOM     42  H18 non d ame      -9.315   4.996  70.075  0.00  0.00     0.028 H 
ENDBRANCH  33  39
ENDBRANCH   7  33
ENDBRANCH   4   7
ENDBRANCH   1   3
BRANCH   1  43
ATOM     43  C15 non d ame      -8.196  11.108  68.007  0.00  0.00     0.240 C 
ATOM     44  O5  non d ame      -7.833  11.004  66.880  0.00  0.00    -0.271 OA
ATOM     45  N6  non d ame      -9.258  12.095  68.356  0.00  0.00    -0.355 N 
ATOM     46  H46 non d ame      -9.578  12.189  69.309  0.00  0.00     0.162 HD
BRANCH  45  47
ATOM     47  C20 non d ame      -9.848  12.942  67.297  0.00  0.00     0.013 C 
ATOM     48  H30 non d ame      -9.338  12.713  66.361  0.00  0.00     0.072 H 
BRANCH  47  49
ATOM     49  C21 non d ame      -9.645  14.398  67.652  0.00  0.00    -0.038 C 
ATOM     50  H31 non d ame     -10.638  14.848  67.627  0.00  0.00     0.036 H 
ATOM     51  H32 non d ame      -9.070  14.398  68.578  0.00  0.00     0.036 H 
BRANCH  49  52
ATOM     52  C22 non d ame      -8.795  15.156  66.609  0.00  0.00     0.018 C 
ATOM     53  H33 non d ame      -8.070  15.734  67.183  0.00  0.00     0.048 H 
ATOM     54  H34 non d ame      -8.453  14.401  65.901  0.00  0.00     0.048 H 
BRANCH  52  55
ATOM     55  C23 non d ame      -9.602  16.190  65.776  0.00  0.00     0.259 C 
ATOM     56  O7  non d ame     -10.507  15.838  65.091  0.00  0.00    -0.265 OA
BRANCH  55  57
ATOM     57  O8  non d ame      -9.239  17.565  65.830  0.00  0.00    -0.317 OA
BRANCH  57  58
ATOM     58  C29 non d ame      -8.998  18.051  67.153  0.00  0.00     0.052 C 
ATOM     59  H47 non d ame      -9.926  18.532  67.464  0.00  0.00     0.082 H 
ATOM     60  H48 non d ame      -8.609  17.202  67.714  0.00  0.00     0.082 H 
BRANCH  58  61
ATOM     61  C35 non d ame      -7.888  19.133  67.070  0.00  0.00    -0.034 A 
ATOM     62  C30 non d ame      -7.354  19.674  68.236  0.00  0.00    -0.075 A 
ATOM     63  C31 non d ame      -6.357  20.646  68.162  0.00  0.00    -0.082 A 
ATOM     64  H49 non d ame      -7.715  19.335  69.207  0.00  0.00     0.084 H 
ATOM     65  C32 non d ame      -5.897  21.080  66.916  0.00  0.00    -0.083 A 
ATOM     66  H50 non d ame      -5.939  21.065  69.077  0.00  0.00     0.083 H 
ATOM     67  C33 non d ame      -6.436  20.540  65.755  0.00  0.00    -0.082 A 
ATOM     68  H51 non d ame      -5.118  21.839  66.849  0.00  0.00     0.083 H 
ATOM     69  C34 non d ame      -7.430  19.567  65.825  0.00  0.00    -0.075 A 
ATOM     70  H52 non d ame      -6.076  20.883  64.785  0.00  0.00     0.083 H 
ATOM     71  H53 non d ame      -7.848  19.147  64.909  0.00  0.00     0.084 H 
ENDBRANCH  58  61
ENDBRANCH  57  58
ENDBRANCH  55  57
ENDBRANCH  52  55
ENDBRANCH  49  52
ENDBRANCH  47  49
BRANCH  47  72
ATOM     72  C24 non d ame     -11.342  12.650  67.173  0.00  0.00    -0.039 C 
ATOM     73  H35 non d ame     -11.538  11.840  67.876  0.00  0.00     0.036 H 
ATOM     74  H36 non d ame     -11.837  13.613  67.301  0.00  0.00     0.036 H 
BRANCH  72  75
ATOM     75  C25 non d ame     -11.722  12.112  65.713  0.00  0.00    -0.001 C 
ATOM     76  C26 non d ame     -10.354  11.871  64.832  0.00  0.00    -0.035 C 
ATOM     77  C27 non d ame     -10.484  12.506  63.642  0.00  0.00     0.085 C 
ATOM     78  H38 non d ame      -9.513  12.380  65.302  0.00  0.00     0.036 H 
ATOM     79  H39 non d ame     -10.270  10.821  64.553  0.00  0.00     0.036 H 
ATOM     80  N5  non d ame     -11.674  13.427  63.761  0.00  0.00    -0.049 N 
ATOM     81  H40 non d ame      -9.580  13.105  63.532  0.00  0.00     0.075 H 
ATOM     82  H41 non d ame     -10.711  11.724  62.919  0.00  0.00     0.075 H 
ATOM     83  C28 non d ame     -12.470  12.956  65.084  0.00  0.00     0.193 C 
ATOM     84  H42 non d ame     -11.304  14.353  63.920  0.00  0.00     0.280 HD
ATOM     85  H43 non d ame     -12.256  13.247  62.955  0.00  0.00     0.280 HD
ATOM     86  H44 non d ame     -13.391  12.379  65.000  0.00  0.00     0.129 H 
ATOM     87  H37 non d ame     -12.440  11.293  65.749  0.00  0.00     0.046 H 
BRANCH  83  88
ATOM     88  O6  non d ame     -12.800  14.089  65.890  0.00  0.00    -0.369 OA
ATOM     89  H45 non d ame     -13.588  14.511  65.540  0.00  0.00     0.212 HD
ENDBRANCH  83  88
ENDBRANCH  72  75
ENDBRANCH  47  72
ENDBRANCH  45  47
ENDBRANCH   1  43
BRANCH   1  90
ATOM     90  C16 non d ame      -6.084  10.021  68.831  0.00  0.00    -0.035 C 
ATOM     91  H21 non d ame      -5.871   8.983  69.088  0.00  0.00     0.037 H 
ATOM     92  H22 non d ame      -5.936  10.370  67.808  0.00  0.00     0.037 H 
BRANCH  90  93
ATOM     93  C17 non d ame      -5.161  10.899  69.735  0.00  0.00    -0.059 C 
ATOM     94  H23 non d ame      -4.349  11.273  69.113  0.00  0.00     0.038 H 
BRANCH  93  95
ATOM     95  C18 non d ame      -5.916  12.132  70.326  0.00  0.00    -0.073 C 
ATOM     96  H24 non d ame      -6.969  12.081  70.048  0.00  0.00     0.028 H 
ATOM     97  H25 non d ame      -5.826  12.127  71.412  0.00  0.00     0.028 H 
ATOM     98  H26 non d ame      -5.479  13.049  69.930  0.00  0.00     0.028 H 
ENDBRANCH  93  95
BRANCH  93  99
ATOM     99  C19 non d ame      -4.531  10.060  70.850  0.00  0.00    -0.073 C 
ATOM    100  H27 non d ame      -3.648  10.571  71.234  0.00  0.00     0.028 H 
ATOM    101  H28 non d ame      -5.254   9.927  71.656  0.00  0.00     0.028 H 
ATOM    102  H29 non d ame      -4.244   9.086  70.454  0.00  0.00     0.028 H 
ENDBRANCH  93  99
ENDBRANCH  90  93
ENDBRANCH   1  90
TORSDOF 26
ENDMDL
MODEL 19
REMARK VINA RESULT:      -6.3      3.055      9.246
REMARK  26 active torsions:
REMARK  status: ('A' for Active; 'I' for Inactive)
REMARK    1  A    between atoms: C2_2  and  C3_3 
REMARK    2  A    between atoms: C4_6  and  C5_7 
REMARK       I    between atoms: C5_7  and  N2_9 
REMARK    3  A    between atoms: N2_9  and  C6_10 
REMARK    4  A    between atoms: C6_10  and  C7_11 
REMARK    5  A    between atoms: C6_10  and  C8_13 
REMARK       I    between atoms: C7_11  and  N3_14 
REMARK    6  A    between atoms: N3_14  and  C9_15 
REMARK    7  A    between atoms: C9_15  and  C10_16 
REMARK    8  A    between atoms: C9_15  and  C11_18 
REMARK       I    between atoms: C10_16  and  N4_21 
REMARK    9  A    between atoms: C11_18  and  C12_19 
REMARK   10  A    between atoms: C11_18  and  C13_20 
REMARK   11  A    between atoms: N4_21  and  C14_22 
REMARK   12  A    between atoms: C14_22  and  C15_23 
REMARK   13  A    between atoms: C14_22  and  C16_25 
REMARK       I    between atoms: C15_23  and  N6_40 
REMARK   14  A    between atoms: C16_25  and  C17_26 
REMARK   15  A    between atoms: C17_26  and  C18_27 
REMARK   16  A    between atoms: C17_26  and  C19_28 
REMARK   17  A    between atoms: C20_29  and  C21_30 
REMARK   18  A    between atoms: C20_29  and  C24_33 
REMARK   19  A    between atoms: C20_29  and  N6_40 
REMARK   20  A    between atoms: C21_30  and  C22_31 
REMARK   21  A    between atoms: C22_31  and  C23_32 
REMARK   22  A    between atoms: C23_32  and  O8_43 
REMARK   23  A    between atoms: C24_33  and  C25_34 
REMARK   24  A    between atoms: C28_38  and  O6_39 
REMARK   25  A    between atoms: C29_42  and  O8_43 
REMARK   26  A    between atoms: C29_42  and  C35_49 
ROOT
ATOM      1  C14 non d ame      -8.899   6.099  66.043  0.00  0.00     0.089 C 
ATOM      2  H20 non d ame      -9.982   6.072  66.159  0.00  0.00     0.087 H 
ENDROOT
BRANCH   1   3
ATOM      3  N4  non d ame      -8.529   7.464  65.695  0.00  0.00    -0.346 N 
ATOM      4  C10 non d ame      -9.391   8.621  66.132  0.00  0.00     0.241 C 
ATOM      5  O4  non d ame     -10.380   8.429  66.760  0.00  0.00    -0.271 OA
ATOM      6  H19 non d ame      -7.685   7.605  65.158  0.00  0.00     0.163 HD
BRANCH   4   7
ATOM      7  C9  non d ame      -8.991  10.027  65.769  0.00  0.00     0.092 C 
ATOM      8  H11 non d ame      -8.579  10.033  64.760  0.00  0.00     0.088 H 
BRANCH   7   9
ATOM      9  N3  non d ame     -10.178  10.886  65.758  0.00  0.00    -0.346 N 
ATOM     10  C7  non d ame     -10.681  11.404  64.510  0.00  0.00     0.240 C 
ATOM     11  O3  non d ame     -10.142  11.140  63.505  0.00  0.00    -0.271 OA
ATOM     12  H10 non d ame     -10.653  11.124  66.617  0.00  0.00     0.163 HD
BRANCH  10  13
ATOM     13  C6  non d ame     -11.944  12.321  64.505  0.00  0.00     0.086 C 
ATOM     14  H6  non d ame     -12.623  12.107  65.330  0.00  0.00     0.086 H 
BRANCH  13  15
ATOM     15  N2  non d ame     -11.523  13.704  64.661  0.00  0.00    -0.343 N 
ATOM     16  C5  non d ame     -11.301  14.243  66.005  0.00  0.00     0.273 C 
ATOM     17  O2  non d ame     -11.467  13.558  66.953  0.00  0.00    -0.266 OA
ATOM     18  H5  non d ame     -11.386  14.283  63.845  0.00  0.00     0.163 HD
BRANCH  16  19
ATOM     19  C4  non d ame     -10.854  15.702  66.184  0.00  0.00     0.154 A 
ATOM     20  C1  non d ame     -10.751  16.430  67.412  0.00  0.00    -0.017 A 
ATOM     21  C2  non d ame     -10.301  17.715  67.037  0.00  0.00     0.077 A 
ATOM     22  H1  non d ame     -10.968  16.079  68.421  0.00  0.00     0.091 H 
ATOM     23  O1  non d ame     -10.164  17.715  65.743  0.00  0.00    -0.218 OA
ATOM     24  N1  non d ame     -10.481  16.551  65.223  0.00  0.00    -0.123 NA
BRANCH  21  25
ATOM     25  C3  non d ame     -10.026  18.884  67.974  0.00  0.00    -0.029 C 
ATOM     26  H2  non d ame     -10.746  18.871  68.792  0.00  0.00     0.036 H 
ATOM     27  H3  non d ame      -9.017  18.797  68.376  0.00  0.00     0.036 H 
ATOM     28  H4  non d ame     -10.118  19.821  67.423  0.00  0.00     0.036 H 
ENDBRANCH  21  25
ENDBRANCH  16  19
ENDBRANCH  13  15
BRANCH  13  29
ATOM     29  C8  non d ame     -12.687  12.151  63.204  0.00  0.00    -0.049 C 
ATOM     30  H7  non d ame     -12.848  13.128  62.748  0.00  0.00     0.030 H 
ATOM     31  H8  non d ame     -12.101  11.527  62.530  0.00  0.00     0.030 H 
ATOM     32  H9  non d ame     -13.649  11.677  63.396  0.00  0.00     0.030 H 
ENDBRANCH  13  29
ENDBRANCH  10  13
ENDBRANCH   7   9
BRANCH   7  33
ATOM     33  C11 non d ame      -7.974  10.564  66.819  0.00  0.00    -0.033 C 
ATOM     34  H12 non d ame      -7.892   9.817  67.608  0.00  0.00     0.042 H 
BRANCH  33  35
ATOM     35  C12 non d ame      -6.555  10.746  66.195  0.00  0.00    -0.071 C 
ATOM     36  H13 non d ame      -6.526  11.673  65.622  0.00  0.00     0.028 H 
ATOM     37  H14 non d ame      -5.812  10.787  66.990  0.00  0.00     0.028 H 
ATOM     38  H15 non d ame      -6.338   9.905  65.537  0.00  0.00     0.028 H 
ENDBRANCH  33  35
BRANCH  33  39
ATOM     39  C13 non d ame      -8.485  11.893  67.462  0.00  0.00    -0.071 C 
ATOM     40  H16 non d ame      -8.037  12.015  68.448  0.00  0.00     0.028 H 
ATOM     41  H17 non d ame      -8.203  12.735  66.829  0.00  0.00     0.028 H 
ATOM     42  H18 non d ame      -9.570  11.857  67.558  0.00  0.00     0.028 H 
ENDBRANCH  33  39
ENDBRANCH   7  33
ENDBRANCH   4   7
ENDBRANCH   1   3
BRANCH   1  43
ATOM     43  C15 non d ame      -8.157   5.703  67.351  0.00  0.00     0.240 C 
ATOM     44  O5  non d ame      -8.671   4.956  68.119  0.00  0.00    -0.271 OA
ATOM     45  N6  non d ame      -6.801   6.249  67.643  0.00  0.00    -0.355 N 
ATOM     46  H46 non d ame      -6.352   6.880  66.996  0.00  0.00     0.162 HD
BRANCH  45  47
ATOM     47  C20 non d ame      -6.108   5.861  68.891  0.00  0.00     0.013 C 
ATOM     48  H30 non d ame      -6.792   5.249  69.478  0.00  0.00     0.072 H 
BRANCH  47  49
ATOM     49  C21 non d ame      -5.736   7.106  69.664  0.00  0.00    -0.038 C 
ATOM     50  H31 non d ame      -5.785   6.826  70.716  0.00  0.00     0.036 H 
ATOM     51  H32 non d ame      -4.795   7.449  69.233  0.00  0.00     0.036 H 
BRANCH  49  52
ATOM     52  C22 non d ame      -6.749   8.256  69.471  0.00  0.00     0.018 C 
ATOM     53  H33 non d ame      -6.291   8.936  68.752  0.00  0.00     0.048 H 
ATOM     54  H34 non d ame      -7.699   7.776  69.238  0.00  0.00     0.048 H 
BRANCH  52  55
ATOM     55  C23 non d ame      -6.996   9.094  70.756  0.00  0.00     0.259 C 
ATOM     56  O7  non d ame      -6.096   9.364  71.483  0.00  0.00    -0.265 OA
BRANCH  55  57
ATOM     57  O8  non d ame      -8.316   9.527  71.062  0.00  0.00    -0.317 OA
BRANCH  57  58
ATOM     58  C29 non d ame      -9.293   9.152  70.086  0.00  0.00     0.052 C 
ATOM     59  H47 non d ame      -9.171   9.854  69.262  0.00  0.00     0.082 H 
ATOM     60  H48 non d ame      -9.148   8.085  69.919  0.00  0.00     0.082 H 
BRANCH  58  61
ATOM     61  C35 non d ame     -10.698   9.364  70.709  0.00  0.00    -0.034 A 
ATOM     62  C30 non d ame     -11.470  10.458  70.331  0.00  0.00    -0.075 A 
ATOM     63  C31 non d ame     -12.732  10.650  70.891  0.00  0.00    -0.082 A 
ATOM     64  H49 non d ame     -11.086  11.165  69.596  0.00  0.00     0.084 H 
ATOM     65  C32 non d ame     -13.222   9.743  71.835  0.00  0.00    -0.083 A 
ATOM     66  H50 non d ame     -13.335  11.506  70.590  0.00  0.00     0.083 H 
ATOM     67  C33 non d ame     -12.447   8.654  72.212  0.00  0.00    -0.082 A 
ATOM     68  H51 non d ame     -14.208   9.884  72.277  0.00  0.00     0.083 H 
ATOM     69  C34 non d ame     -11.185   8.458  71.653  0.00  0.00    -0.075 A 
ATOM     70  H52 non d ame     -12.831   7.950  72.950  0.00  0.00     0.083 H 
ATOM     71  H53 non d ame     -10.583   7.600  71.954  0.00  0.00     0.084 H 
ENDBRANCH  58  61
ENDBRANCH  57  58
ENDBRANCH  55  57
ENDBRANCH  52  55
ENDBRANCH  49  52
ENDBRANCH  47  49
BRANCH  47  72
ATOM     72  C24 non d ame      -4.844   5.072  68.556  0.00  0.00    -0.039 C 
ATOM     73  H35 non d ame      -4.018   5.668  68.945  0.00  0.00     0.036 H 
ATOM     74  H36 non d ame      -5.019   4.067  68.942  0.00  0.00     0.036 H 
BRANCH  72  75
ATOM     75  C25 non d ame      -4.629   4.940  66.974  0.00  0.00    -0.001 C 
ATOM     76  C26 non d ame      -4.869   3.382  66.505  0.00  0.00    -0.035 C 
ATOM     77  C27 non d ame      -3.805   2.979  65.769  0.00  0.00     0.085 C 
ATOM     78  H38 non d ame      -4.844   2.722  67.372  0.00  0.00     0.036 H 
ATOM     79  H39 non d ame      -5.700   3.327  65.802  0.00  0.00     0.036 H 
ATOM     80  N5  non d ame      -2.717   4.006  65.968  0.00  0.00    -0.049 N 
ATOM     81  H40 non d ame      -3.487   2.034  66.210  0.00  0.00     0.075 H 
ATOM     82  H41 non d ame      -4.139   3.012  64.733  0.00  0.00     0.075 H 
ATOM     83  C28 non d ame      -3.434   5.290  66.634  0.00  0.00     0.193 C 
ATOM     84  H42 non d ame      -2.072   3.614  66.640  0.00  0.00     0.280 HD
ATOM     85  H43 non d ame      -2.392   4.262  65.046  0.00  0.00     0.280 HD
ATOM     86  H44 non d ame      -3.650   6.176  66.036  0.00  0.00     0.129 H 
ATOM     87  H37 non d ame      -5.161   5.713  66.420  0.00  0.00     0.046 H 
BRANCH  83  88
ATOM     88  O6  non d ame      -2.672   5.758  67.748  0.00  0.00    -0.369 OA
ATOM     89  H45 non d ame      -3.019   5.374  68.557  0.00  0.00     0.212 HD
ENDBRANCH  83  88
ENDBRANCH  72  75
ENDBRANCH  47  72
ENDBRANCH  45  47
ENDBRANCH   1  43
BRANCH   1  90
ATOM     90  C16 non d ame      -8.479   5.170  64.915  0.00  0.00    -0.035 C 
ATOM     91  H21 non d ame      -7.754   4.486  65.359  0.00  0.00     0.037 H 
ATOM     92  H22 non d ame      -9.409   4.782  64.499  0.00  0.00     0.037 H 
BRANCH  90  93
ATOM     93  C17 non d ame      -7.741   5.896  63.746  0.00  0.00    -0.059 C 
ATOM     94  H23 non d ame      -7.985   6.956  63.809  0.00  0.00     0.038 H 
BRANCH  93  95
ATOM     95  C18 non d ame      -6.189   5.757  63.851  0.00  0.00    -0.073 C 
ATOM     96  H24 non d ame      -5.919   5.464  64.866  0.00  0.00     0.028 H 
ATOM     97  H25 non d ame      -5.844   4.997  63.149  0.00  0.00     0.028 H 
ATOM     98  H26 non d ame      -5.722   6.712  63.611  0.00  0.00     0.028 H 
ENDBRANCH  93  95
BRANCH  93  99
ATOM     99  C19 non d ame      -8.242   5.395  62.389  0.00  0.00    -0.073 C 
ATOM    100  H27 non d ame      -9.253   5.000  62.497  0.00  0.00     0.028 H 
ATOM    101  H28 non d ame      -8.249   6.220  61.676  0.00  0.00     0.028 H 
ATOM    102  H29 non d ame      -7.581   4.608  62.026  0.00  0.00     0.028 H 
ENDBRANCH  93  99
ENDBRANCH  90  93
ENDBRANCH   1  90
TORSDOF 26
ENDMDL
MODEL 20
REMARK VINA RESULT:      -6.2      2.905      6.836
REMARK  26 active torsions:
REMARK  status: ('A' for Active; 'I' for Inactive)
REMARK    1  A    between atoms: C2_2  and  C3_3 
REMARK    2  A    between atoms: C4_6  and  C5_7 
REMARK       I    between atoms: C5_7  and  N2_9 
REMARK    3  A    between atoms: N2_9  and  C6_10 
REMARK    4  A    between atoms: C6_10  and  C7_11 
REMARK    5  A    between atoms: C6_10  and  C8_13 
REMARK       I    between atoms: C7_11  and  N3_14 
REMARK    6  A    between atoms: N3_14  and  C9_15 
REMARK    7  A    between atoms: C9_15  and  C10_16 
REMARK    8  A    between atoms: C9_15  and  C11_18 
REMARK       I    between atoms: C10_16  and  N4_21 
REMARK    9  A    between atoms: C11_18  and  C12_19 
REMARK   10  A    between atoms: C11_18  and  C13_20 
REMARK   11  A    between atoms: N4_21  and  C14_22 
REMARK   12  A    between atoms: C14_22  and  C15_23 
REMARK   13  A    between atoms: C14_22  and  C16_25 
REMARK       I    between atoms: C15_23  and  N6_40 
REMARK   14  A    between atoms: C16_25  and  C17_26 
REMARK   15  A    between atoms: C17_26  and  C18_27 
REMARK   16  A    between atoms: C17_26  and  C19_28 
REMARK   17  A    between atoms: C20_29  and  C21_30 
REMARK   18  A    between atoms: C20_29  and  C24_33 
REMARK   19  A    between atoms: C20_29  and  N6_40 
REMARK   20  A    between atoms: C21_30  and  C22_31 
REMARK   21  A    between atoms: C22_31  and  C23_32 
REMARK   22  A    between atoms: C23_32  and  O8_43 
REMARK   23  A    between atoms: C24_33  and  C25_34 
REMARK   24  A    between atoms: C28_38  and  O6_39 
REMARK   25  A    between atoms: C29_42  and  O8_43 
REMARK   26  A    between atoms: C29_42  and  C35_49 
ROOT
ATOM      1  C14 non d ame      -9.533  10.747  65.416  0.00  0.00     0.089 C 
ATOM      2  H20 non d ame      -9.154  11.145  64.475  0.00  0.00     0.087 H 
ENDROOT
BRANCH   1   3
ATOM      3  N4  non d ame      -9.125   9.352  65.498  0.00  0.00    -0.346 N 
ATOM      4  C10 non d ame      -7.939   8.858  64.709  0.00  0.00     0.241 C 
ATOM      5  O4  non d ame      -7.330   9.601  64.012  0.00  0.00    -0.271 OA
ATOM      6  H19 non d ame      -9.659   8.736  66.095  0.00  0.00     0.163 HD
BRANCH   4   7
ATOM      7  C9  non d ame      -7.528   7.412  64.810  0.00  0.00     0.092 C 
ATOM      8  H11 non d ame      -6.688   7.326  65.499  0.00  0.00     0.088 H 
BRANCH   7   9
ATOM      9  N3  non d ame      -8.632   6.628  65.372  0.00  0.00    -0.346 N 
ATOM     10  C7  non d ame      -8.506   6.047  66.686  0.00  0.00     0.240 C 
ATOM     11  O3  non d ame      -7.524   6.199  67.304  0.00  0.00    -0.271 OA
ATOM     12  H10 non d ame      -9.485   6.487  64.850  0.00  0.00     0.163 HD
BRANCH  10  13
ATOM     13  C6  non d ame      -9.683   5.210  67.278  0.00  0.00     0.086 C 
ATOM     14  H6  non d ame      -9.344   4.419  67.946  0.00  0.00     0.086 H 
BRANCH  13  15
ATOM     15  N2  non d ame     -10.533   6.085  68.068  0.00  0.00    -0.343 N 
ATOM     16  C5  non d ame     -10.514   5.984  69.529  0.00  0.00     0.273 C 
ATOM     17  O2  non d ame      -9.813   5.193  70.058  0.00  0.00    -0.266 OA
ATOM     18  H5  non d ame     -11.131   6.757  67.607  0.00  0.00     0.163 HD
BRANCH  16  19
ATOM     19  C4  non d ame     -11.406   6.904  70.376  0.00  0.00     0.154 A 
ATOM     20  C1  non d ame     -11.406   8.335  70.390  0.00  0.00    -0.017 A 
ATOM     21  C2  non d ame     -12.401   8.689  71.329  0.00  0.00     0.077 A 
ATOM     22  H1  non d ame     -10.780   9.012  69.809  0.00  0.00     0.091 H 
ATOM     23  O1  non d ame     -12.908   7.584  71.792  0.00  0.00    -0.218 OA
ATOM     24  N1  non d ame     -12.343   6.529  71.252  0.00  0.00    -0.123 NA
BRANCH  21  25
ATOM     25  C3  non d ame     -12.806  10.103  71.723  0.00  0.00    -0.029 C 
ATOM     26  H2  non d ame     -13.693  10.398  71.161  0.00  0.00     0.036 H 
ATOM     27  H3  non d ame     -13.025  10.134  72.790  0.00  0.00     0.036 H 
ATOM     28  H4  non d ame     -11.990  10.791  71.500  0.00  0.00     0.036 H 
ENDBRANCH  21  25
ENDBRANCH  16  19
ENDBRANCH  13  15
BRANCH  13  29
ATOM     29  C8  non d ame     -10.479   4.593  66.156  0.00  0.00    -0.049 C 
ATOM     30  H7  non d ame     -11.543   4.663  66.382  0.00  0.00     0.030 H 
ATOM     31  H8  non d ame     -10.269   5.124  65.227  0.00  0.00     0.030 H 
ATOM     32  H9  non d ame     -10.200   3.545  66.047  0.00  0.00     0.030 H 
ENDBRANCH  13  29
ENDBRANCH  10  13
ENDBRANCH   7   9
BRANCH   7  33
ATOM     33  C11 non d ame      -7.181   6.871  63.392  0.00  0.00    -0.033 C 
ATOM     34  H12 non d ame      -7.217   7.714  62.701  0.00  0.00     0.042 H 
BRANCH  33  35
ATOM     35  C12 non d ame      -5.734   6.289  63.345  0.00  0.00    -0.071 C 
ATOM     36  H13 non d ame      -5.699   5.460  62.638  0.00  0.00     0.028 H 
ATOM     37  H14 non d ame      -5.040   7.066  63.026  0.00  0.00     0.028 H 
ATOM     38  H15 non d ame      -5.453   5.934  64.336  0.00  0.00     0.028 H 
ENDBRANCH  33  35
BRANCH  33  39
ATOM     39  C13 non d ame      -8.232   5.815  62.923  0.00  0.00    -0.071 C 
ATOM     40  H16 non d ame      -8.440   5.122  63.738  0.00  0.00     0.028 H 
ATOM     41  H17 non d ame      -9.153   6.322  62.634  0.00  0.00     0.028 H 
ATOM     42  H18 non d ame      -7.837   5.264  62.070  0.00  0.00     0.028 H 
ENDBRANCH  33  39
ENDBRANCH   7  33
ENDBRANCH   4   7
ENDBRANCH   1   3
BRANCH   1  43
ATOM     43  C15 non d ame      -8.959  11.504  66.648  0.00  0.00     0.240 C 
ATOM     44  O5  non d ame      -9.385  11.276  67.733  0.00  0.00    -0.271 OA
ATOM     45  N6  non d ame      -7.870  12.507  66.475  0.00  0.00    -0.355 N 
ATOM     46  H46 non d ame      -7.496  12.706  65.558  0.00  0.00     0.162 HD
BRANCH  45  47
ATOM     47  C20 non d ame      -7.334  13.218  67.656  0.00  0.00     0.013 C 
ATOM     48  H30 non d ame      -7.825  12.815  68.541  0.00  0.00     0.072 H 
BRANCH  47  49
ATOM     49  C21 non d ame      -7.629  14.695  67.527  0.00  0.00    -0.038 C 
ATOM     50  H31 non d ame      -7.716  15.068  68.548  0.00  0.00     0.036 H 
ATOM     51  H32 non d ame      -6.860  15.092  66.865  0.00  0.00     0.036 H 
BRANCH  49  52
ATOM     52  C22 non d ame      -8.984  14.978  66.842  0.00  0.00     0.018 C 
ATOM     53  H33 non d ame      -8.828  15.870  66.235  0.00  0.00     0.048 H 
ATOM     54  H34 non d ame      -9.276  14.040  66.368  0.00  0.00     0.048 H 
BRANCH  52  55
ATOM     55  C23 non d ame     -10.126  15.330  67.835  0.00  0.00     0.259 C 
ATOM     56  O7  non d ame     -10.932  16.158  67.558  0.00  0.00    -0.265 OA
BRANCH  55  57
ATOM     57  O8  non d ame     -10.192  14.659  69.088  0.00  0.00    -0.317 OA
BRANCH  57  58
ATOM     58  C29 non d ame     -11.424  13.967  69.314  0.00  0.00     0.052 C 
ATOM     59  H47 non d ame     -12.095  14.293  68.519  0.00  0.00     0.082 H 
ATOM     60  H48 non d ame     -11.158  12.914  69.406  0.00  0.00     0.082 H 
BRANCH  58  61
ATOM     61  C35 non d ame     -12.001  14.448  70.672  0.00  0.00    -0.034 A 
ATOM     62  C30 non d ame     -11.551  15.637  71.238  0.00  0.00    -0.075 A 
ATOM     63  C31 non d ame     -12.069  16.069  72.458  0.00  0.00    -0.082 A 
ATOM     64  H49 non d ame     -10.793  16.230  70.726  0.00  0.00     0.084 H 
ATOM     65  C32 non d ame     -13.040  15.306  73.114  0.00  0.00    -0.083 A 
ATOM     66  H50 non d ame     -11.717  17.002  72.898  0.00  0.00     0.083 H 
ATOM     67  C33 non d ame     -13.483  14.119  72.546  0.00  0.00    -0.082 A 
ATOM     68  H51 non d ame     -13.451  15.636  74.068  0.00  0.00     0.083 H 
ATOM     69  C34 non d ame     -12.969  13.684  71.326  0.00  0.00    -0.075 A 
ATOM     70  H52 non d ame     -14.238  13.525  73.061  0.00  0.00     0.083 H 
ATOM     71  H53 non d ame     -13.323  12.752  70.886  0.00  0.00     0.084 H 
ENDBRANCH  58  61
ENDBRANCH  57  58
ENDBRANCH  55  57
ENDBRANCH  52  55
ENDBRANCH  49  52
ENDBRANCH  47  49
BRANCH  47  72
ATOM     72  C24 non d ame      -5.824  13.006  67.745  0.00  0.00    -0.039 C 
ATOM     73  H35 non d ame      -5.485  12.894  66.714  0.00  0.00     0.036 H 
ATOM     74  H36 non d ame      -5.451  13.829  68.354  0.00  0.00     0.036 H 
BRANCH  72  75
ATOM     75  C25 non d ame      -5.460  11.647  68.511  0.00  0.00    -0.001 C 
ATOM     76  C26 non d ame      -4.130  11.872  69.451  0.00  0.00    -0.035 C 
ATOM     77  C27 non d ame      -3.232  10.895  69.178  0.00  0.00     0.085 C 
ATOM     78  H38 non d ame      -3.612  12.784  69.153  0.00  0.00     0.036 H 
ATOM     79  H39 non d ame      -4.379  11.704  70.499  0.00  0.00     0.036 H 
ATOM     80  N5  non d ame      -3.690  10.217  67.910  0.00  0.00    -0.049 N 
ATOM     81  H40 non d ame      -2.290  11.410  68.985  0.00  0.00     0.075 H 
ATOM     82  H41 non d ame      -3.309  10.190  70.005  0.00  0.00     0.075 H 
ATOM     83  C28 non d ame      -5.216  10.691  67.678  0.00  0.00     0.193 C 
ATOM     84  H42 non d ame      -3.120  10.590  67.164  0.00  0.00     0.280 HD
ATOM     85  H43 non d ame      -3.688   9.224  68.099  0.00  0.00     0.280 HD
ATOM     86  H44 non d ame      -6.044  10.018  67.899  0.00  0.00     0.129 H 
ATOM     87  H37 non d ame      -6.331  11.195  68.986  0.00  0.00     0.046 H 
BRANCH  83  88
ATOM     88  O6  non d ame      -5.405  11.097  66.321  0.00  0.00    -0.369 OA
ATOM     89  H45 non d ame      -6.154  10.627  65.948  0.00  0.00     0.212 HD
ENDBRANCH  83  88
ENDBRANCH  72  75
ENDBRANCH  47  72
ENDBRANCH  45  47
ENDBRANCH   1  43
BRANCH   1  90
ATOM     90  C16 non d ame     -11.051  10.822  65.432  0.00  0.00    -0.035 C 
ATOM     91  H21 non d ame     -11.391   9.908  64.945  0.00  0.00     0.037 H 
ATOM     92  H22 non d ame     -11.320  11.017  66.471  0.00  0.00     0.037 H 
BRANCH  90  93
ATOM     93  C17 non d ame     -11.629  12.008  64.597  0.00  0.00    -0.059 C 
ATOM     94  H23 non d ame     -12.487  11.633  64.039  0.00  0.00     0.038 H 
BRANCH  93  95
ATOM     95  C18 non d ame     -12.126  13.180  65.503  0.00  0.00    -0.073 C 
ATOM     96  H24 non d ame     -12.716  13.875  64.906  0.00  0.00     0.028 H 
ATOM     97  H25 non d ame     -12.741  12.780  66.310  0.00  0.00     0.028 H 
ATOM     98  H26 non d ame     -11.267  13.702  65.926  0.00  0.00     0.028 H 
ENDBRANCH  93  95
BRANCH  93  99
ATOM     99  C19 non d ame     -10.604  12.507  63.575  0.00  0.00    -0.073 C 
ATOM    100  H27 non d ame     -11.125  12.908  62.704  0.00  0.00     0.028 H 
ATOM    101  H28 non d ame      -9.994  13.290  64.026  0.00  0.00     0.028 H 
ATOM    102  H29 non d ame      -9.965  11.680  63.268  0.00  0.00     0.028 H 
ENDBRANCH  93  99
ENDBRANCH  90  93
ENDBRANCH   1  90
TORSDOF 26
ENDMDL
