MODEL 1
REMARK VINA RESULT:      -7.0      0.000      0.000
REMARK  26 active torsions:
REMARK  status: ('A' for Active; 'I' for Inactive)
REMARK    1  A    between atoms: C2_2  and  C3_3 
REMARK    2  A    between atoms: C4_6  and  C5_7 
REMARK       I    between atoms: C5_7  and  N2_9 
REMARK    3  A    between atoms: N2_9  and  C6_10 
REMARK    4  A    between atoms: C6_10  and  C7_11 
REMARK    5  A    between atoms: C6_10  and  C8_13 
REMARK       I    between atoms: C7_11  and  N3_14 
REMARK    6  A    between atoms: N3_14  and  C9_15 
REMARK    7  A    between atoms: C9_15  and  C10_16 
REMARK    8  A    between atoms: C9_15  and  C11_18 
REMARK       I    between atoms: C10_16  and  N4_21 
REMARK    9  A    between atoms: C11_18  and  C12_19 
REMARK   10  A    between atoms: C11_18  and  C13_20 
REMARK   11  A    between atoms: N4_21  and  C14_22 
REMARK   12  A    between atoms: C14_22  and  C15_23 
REMARK   13  A    between atoms: C14_22  and  C16_25 
REMARK       I    between atoms: C15_23  and  N6_40 
REMARK   14  A    between atoms: C16_25  and  C17_26 
REMARK   15  A    between atoms: C17_26  and  C18_27 
REMARK   16  A    between atoms: C17_26  and  C19_28 
REMARK   17  A    between atoms: C20_29  and  C21_30 
REMARK   18  A    between atoms: C20_29  and  C24_33 
REMARK   19  A    between atoms: C20_29  and  N6_40 
REMARK   20  A    between atoms: C21_30  and  C22_31 
REMARK   21  A    between atoms: C22_31  and  C23_32 
REMARK   22  A    between atoms: C23_32  and  O8_43 
REMARK   23  A    between atoms: C24_33  and  C25_34 
REMARK   24  A    between atoms: C28_38  and  O6_39 
REMARK   25  A    between atoms: C29_42  and  O8_43 
REMARK   26  A    between atoms: C29_42  and  C35_49 
ROOT
ATOM      1  C14 non d ame     -12.347  14.307  70.497  0.00  0.00     0.089 C 
ATOM      2  H20 non d ame     -13.429  14.323  70.629  0.00  0.00     0.087 H 
ENDROOT
BRANCH   1   3
ATOM      3  N4  non d ame     -11.957  12.928  70.243  0.00  0.00    -0.346 N 
ATOM      4  C10 non d ame     -12.580  11.802  71.030  0.00  0.00     0.241 C 
ATOM      5  O4  non d ame     -13.391  12.032  71.866  0.00  0.00    -0.271 OA
ATOM      6  H19 non d ame     -11.264  12.754  69.529  0.00  0.00     0.163 HD
BRANCH   4   7
ATOM      7  C9  non d ame     -12.169  10.381  70.750  0.00  0.00     0.092 C 
ATOM      8  H11 non d ame     -12.571  10.075  69.784  0.00  0.00     0.088 H 
BRANCH   7   9
ATOM      9  N3  non d ame     -10.708  10.304  70.655  0.00  0.00    -0.346 N 
ATOM     10  C7  non d ame     -10.085   9.939  69.407  0.00  0.00     0.240 C 
ATOM     11  O3  non d ame     -10.744   9.704  68.468  0.00  0.00    -0.271 OA
ATOM     12  H10 non d ame     -10.127  10.503  71.457  0.00  0.00     0.163 HD
BRANCH  10  13
ATOM     13  C6  non d ame      -8.530   9.856  69.313  0.00  0.00     0.086 C 
ATOM     14  H6  non d ame      -8.188   9.364  68.403  0.00  0.00     0.086 H 
BRANCH  13  15
ATOM     15  N2  non d ame      -7.986  11.204  69.286  0.00  0.00    -0.343 N 
ATOM     16  C5  non d ame      -6.838  11.501  68.428  0.00  0.00     0.273 C 
ATOM     17  O2  non d ame      -6.357  10.649  67.765  0.00  0.00    -0.266 OA
ATOM     18  H5  non d ame      -8.402  11.925  69.858  0.00  0.00     0.163 HD
BRANCH  16  19
ATOM     19  C4  non d ame      -6.254  12.922  68.388  0.00  0.00     0.154 A 
ATOM     20  C1  non d ame      -6.180  13.857  69.469  0.00  0.00    -0.017 A 
ATOM     21  C2  non d ame      -5.563  15.002  68.918  0.00  0.00     0.077 A 
ATOM     22  H1  non d ame      -6.522  13.725  70.496  0.00  0.00     0.091 H 
ATOM     23  O1  non d ame      -5.314  14.744  67.668  0.00  0.00    -0.218 OA
ATOM     24  N1  non d ame      -5.708  13.537  67.335  0.00  0.00    -0.123 NA
BRANCH  21  25
ATOM     25  C3  non d ame      -5.247  16.298  69.653  0.00  0.00    -0.029 C 
ATOM     26  H2  non d ame      -5.283  17.132  68.952  0.00  0.00     0.036 H 
ATOM     27  H3  non d ame      -5.981  16.455  70.444  0.00  0.00     0.036 H 
ATOM     28  H4  non d ame      -4.250  16.234  70.091  0.00  0.00     0.036 H 
ENDBRANCH  21  25
ENDBRANCH  16  19
ENDBRANCH  13  15
BRANCH  13  29
ATOM     29  C8  non d ame      -7.992   9.105  70.505  0.00  0.00    -0.049 C 
ATOM     30  H7  non d ame      -8.819   8.789  71.139  0.00  0.00     0.030 H 
ATOM     31  H8  non d ame      -7.440   8.229  70.163  0.00  0.00     0.030 H 
ATOM     32  H9  non d ame      -7.327   9.755  71.073  0.00  0.00     0.030 H 
ENDBRANCH  13  29
ENDBRANCH  10  13
ENDBRANCH   7   9
BRANCH   7  33
ATOM     33  C11 non d ame     -12.661   9.461  71.906  0.00  0.00    -0.033 C 
ATOM     34  H12 non d ame     -12.871  10.098  72.765  0.00  0.00     0.042 H 
BRANCH  33  35
ATOM     35  C12 non d ame     -13.987   8.731  71.526  0.00  0.00    -0.071 C 
ATOM     36  H13 non d ame     -14.405   9.182  70.626  0.00  0.00     0.028 H 
ATOM     37  H14 non d ame     -13.780   7.677  71.342  0.00  0.00     0.028 H 
ATOM     38  H15 non d ame     -14.699   8.825  72.345  0.00  0.00     0.028 H 
ENDBRANCH  33  35
BRANCH  33  39
ATOM     39  C13 non d ame     -11.551   8.442  72.320  0.00  0.00    -0.071 C 
ATOM     40  H16 non d ame     -11.534   8.345  73.405  0.00  0.00     0.028 H 
ATOM     41  H17 non d ame     -11.764   7.471  71.872  0.00  0.00     0.028 H 
ATOM     42  H18 non d ame     -10.582   8.799  71.971  0.00  0.00     0.028 H 
ENDBRANCH  33  39
ENDBRANCH   7  33
ENDBRANCH   4   7
ENDBRANCH   1   3
BRANCH   1  43
ATOM     43  C15 non d ame     -11.889  15.181  69.295  0.00  0.00     0.240 C 
ATOM     44  O5  non d ame     -11.944  16.366  69.370  0.00  0.00    -0.271 OA
ATOM     45  N6  non d ame     -11.372  14.540  68.051  0.00  0.00    -0.355 N 
ATOM     46  H46 non d ame     -11.316  13.535  67.977  0.00  0.00     0.162 HD
BRANCH  45  47
ATOM     47  C20 non d ame     -10.939  15.386  66.918  0.00  0.00     0.013 C 
ATOM     48  H30 non d ame     -11.413  16.361  67.026  0.00  0.00     0.072 H 
BRANCH  47  49
ATOM     49  C21 non d ame     -11.372  14.742  65.620  0.00  0.00    -0.038 C 
ATOM     50  H31 non d ame     -12.350  14.304  65.821  0.00  0.00     0.036 H 
ATOM     51  H32 non d ame     -11.266  15.515  64.859  0.00  0.00     0.036 H 
BRANCH  49  52
ATOM     52  C22 non d ame     -10.452  13.578  65.192  0.00  0.00     0.018 C 
ATOM     53  H33 non d ame     -10.258  13.730  64.130  0.00  0.00     0.048 H 
ATOM     54  H34 non d ame      -9.625  13.578  65.903  0.00  0.00     0.048 H 
BRANCH  52  55
ATOM     55  C23 non d ame     -11.117  12.178  65.309  0.00  0.00     0.259 C 
ATOM     56  O7  non d ame     -11.859  11.936  66.205  0.00  0.00    -0.265 OA
BRANCH  55  57
ATOM     57  O8  non d ame     -10.818  11.182  64.339  0.00  0.00    -0.317 OA
BRANCH  57  58
ATOM     58  C29 non d ame     -10.049  11.659  63.232  0.00  0.00     0.052 C 
ATOM     59  H47 non d ame     -10.723  11.645  62.376  0.00  0.00     0.082 H 
ATOM     60  H48 non d ame      -9.607  12.599  63.563  0.00  0.00     0.082 H 
BRANCH  58  61
ATOM     61  C35 non d ame      -8.904  10.644  62.972  0.00  0.00    -0.034 A 
ATOM     62  C30 non d ame      -8.275  10.606  61.731  0.00  0.00    -0.075 A 
ATOM     63  C31 non d ame      -7.247   9.694  61.497  0.00  0.00    -0.082 A 
ATOM     64  H49 non d ame      -8.587  11.291  60.943  0.00  0.00     0.084 H 
ATOM     65  C32 non d ame      -6.849   8.816  62.509  0.00  0.00    -0.083 A 
ATOM     66  H50 non d ame      -6.754   9.669  60.525  0.00  0.00     0.083 H 
ATOM     67  C33 non d ame      -7.482   8.855  63.744  0.00  0.00    -0.082 A 
ATOM     68  H51 non d ame      -6.046   8.100  62.334  0.00  0.00     0.083 H 
ATOM     69  C34 non d ame      -8.509   9.766  63.983  0.00  0.00    -0.075 A 
ATOM     70  H52 non d ame      -7.171   8.167  64.530  0.00  0.00     0.083 H 
ATOM     71  H53 non d ame      -9.000   9.792  64.956  0.00  0.00     0.084 H 
ENDBRANCH  58  61
ENDBRANCH  57  58
ENDBRANCH  55  57
ENDBRANCH  52  55
ENDBRANCH  49  52
ENDBRANCH  47  49
BRANCH  47  72
ATOM     72  C24 non d ame      -9.418  15.530  66.933  0.00  0.00    -0.039 C 
ATOM     73  H35 non d ame      -9.063  14.781  67.642  0.00  0.00     0.036 H 
ATOM     74  H36 non d ame      -9.112  15.479  65.888  0.00  0.00     0.036 H 
BRANCH  72  75
ATOM     75  C25 non d ame      -8.964  16.961  67.490  0.00  0.00    -0.001 C 
ATOM     76  C26 non d ame     -10.024  18.117  66.994  0.00  0.00    -0.035 C 
ATOM     77  C27 non d ame      -9.330  19.129  66.422  0.00  0.00     0.085 C 
ATOM     78  H38 non d ame     -10.638  17.736  66.179  0.00  0.00     0.036 H 
ATOM     79  H39 non d ame     -10.495  18.588  67.858  0.00  0.00     0.036 H 
ATOM     80  N5  non d ame      -7.926  18.624  66.186  0.00  0.00    -0.049 N 
ATOM     81  H40 non d ame      -9.811  19.304  65.458  0.00  0.00     0.075 H 
ATOM     82  H41 non d ame      -9.301  19.922  67.168  0.00  0.00     0.075 H 
ATOM     83  C28 non d ame      -7.786  17.277  67.064  0.00  0.00     0.193 C 
ATOM     84  H42 non d ame      -7.871  18.378  65.208  0.00  0.00     0.280 HD
ATOM     85  H43 non d ame      -7.304  19.322  66.568  0.00  0.00     0.280 HD
ATOM     86  H44 non d ame      -7.231  17.282  68.002  0.00  0.00     0.129 H 
ATOM     87  H37 non d ame      -8.722  16.933  68.552  0.00  0.00     0.046 H 
BRANCH  83  88
ATOM     88  O6  non d ame      -7.201  16.236  66.279  0.00  0.00    -0.369 OA
ATOM     89  H45 non d ame      -6.244  16.301  66.325  0.00  0.00     0.212 HD
ENDBRANCH  83  88
ENDBRANCH  72  75
ENDBRANCH  47  72
ENDBRANCH  45  47
ENDBRANCH   1  43
BRANCH   1  90
ATOM     90  C16 non d ame     -11.667  14.788  71.768  0.00  0.00    -0.035 C 
ATOM     91  H21 non d ame     -11.408  13.883  72.318  0.00  0.00     0.037 H 
ATOM     92  H22 non d ame     -10.881  15.466  71.436  0.00  0.00     0.037 H 
BRANCH  90  93
ATOM     93  C17 non d ame     -12.601  15.620  72.703  0.00  0.00    -0.059 C 
ATOM     94  H23 non d ame     -12.329  16.670  72.594  0.00  0.00     0.038 H 
BRANCH  93  95
ATOM     95  C18 non d ame     -14.107  15.476  72.311  0.00  0.00    -0.073 C 
ATOM     96  H24 non d ame     -14.713  16.108  72.959  0.00  0.00     0.028 H 
ATOM     97  H25 non d ame     -14.243  15.782  71.273  0.00  0.00     0.028 H 
ATOM     98  H26 non d ame     -14.414  14.436  72.426  0.00  0.00     0.028 H 
ENDBRANCH  93  95
BRANCH  93  99
ATOM     99  C19 non d ame     -12.382  15.243  74.170  0.00  0.00    -0.073 C 
ATOM    100  H27 non d ame     -12.391  16.146  74.783  0.00  0.00     0.028 H 
ATOM    101  H28 non d ame     -13.180  14.575  74.497  0.00  0.00     0.028 H 
ATOM    102  H29 non d ame     -11.421  14.741  74.277  0.00  0.00     0.028 H 
ENDBRANCH  93  99
ENDBRANCH  90  93
ENDBRANCH   1  90
TORSDOF 26
ENDMDL
MODEL 2
REMARK VINA RESULT:      -6.8      2.333      5.265
REMARK  26 active torsions:
REMARK  status: ('A' for Active; 'I' for Inactive)
REMARK    1  A    between atoms: C2_2  and  C3_3 
REMARK    2  A    between atoms: C4_6  and  C5_7 
REMARK       I    between atoms: C5_7  and  N2_9 
REMARK    3  A    between atoms: N2_9  and  C6_10 
REMARK    4  A    between atoms: C6_10  and  C7_11 
REMARK    5  A    between atoms: C6_10  and  C8_13 
REMARK       I    between atoms: C7_11  and  N3_14 
REMARK    6  A    between atoms: N3_14  and  C9_15 
REMARK    7  A    between atoms: C9_15  and  C10_16 
REMARK    8  A    between atoms: C9_15  and  C11_18 
REMARK       I    between atoms: C10_16  and  N4_21 
REMARK    9  A    between atoms: C11_18  and  C12_19 
REMARK   10  A    between atoms: C11_18  and  C13_20 
REMARK   11  A    between atoms: N4_21  and  C14_22 
REMARK   12  A    between atoms: C14_22  and  C15_23 
REMARK   13  A    between atoms: C14_22  and  C16_25 
REMARK       I    between atoms: C15_23  and  N6_40 
REMARK   14  A    between atoms: C16_25  and  C17_26 
REMARK   15  A    between atoms: C17_26  and  C18_27 
REMARK   16  A    between atoms: C17_26  and  C19_28 
REMARK   17  A    between atoms: C20_29  and  C21_30 
REMARK   18  A    between atoms: C20_29  and  C24_33 
REMARK   19  A    between atoms: C20_29  and  N6_40 
REMARK   20  A    between atoms: C21_30  and  C22_31 
REMARK   21  A    between atoms: C22_31  and  C23_32 
REMARK   22  A    between atoms: C23_32  and  O8_43 
REMARK   23  A    between atoms: C24_33  and  C25_34 
REMARK   24  A    between atoms: C28_38  and  O6_39 
REMARK   25  A    between atoms: C29_42  and  O8_43 
REMARK   26  A    between atoms: C29_42  and  C35_49 
ROOT
ATOM      1  C14 non d ame     -11.757  14.759  70.135  0.00  0.00     0.089 C 
ATOM      2  H20 non d ame     -12.768  14.802  69.731  0.00  0.00     0.087 H 
ENDROOT
BRANCH   1   3
ATOM      3  N4  non d ame     -11.414  13.356  70.313  0.00  0.00    -0.346 N 
ATOM      4  C10 non d ame     -11.654  12.367  69.200  0.00  0.00     0.241 C 
ATOM      5  O4  non d ame     -12.126  12.723  68.172  0.00  0.00    -0.271 OA
ATOM      6  H19 non d ame     -11.015  13.073  71.197  0.00  0.00     0.163 HD
BRANCH   4   7
ATOM      7  C9  non d ame     -11.288  10.920  69.399  0.00  0.00     0.092 C 
ATOM      8  H11 non d ame     -11.782  10.317  68.638  0.00  0.00     0.088 H 
BRANCH   7   9
ATOM      9  N3  non d ame      -9.843  10.751  69.215  0.00  0.00    -0.346 N 
ATOM     10  C7  non d ame      -9.323  10.349  67.931  0.00  0.00     0.240 C 
ATOM     11  O3  non d ame     -10.052  10.157  67.036  0.00  0.00    -0.271 OA
ATOM     12  H10 non d ame      -9.202  10.911  69.979  0.00  0.00     0.163 HD
BRANCH  10  13
ATOM     13  C6  non d ame      -7.785  10.168  67.742  0.00  0.00     0.086 C 
ATOM     14  H6  non d ame      -7.359  10.886  67.041  0.00  0.00     0.086 H 
BRANCH  13  15
ATOM     15  N2  non d ame      -7.123  10.390  69.017  0.00  0.00    -0.343 N 
ATOM     16  C5  non d ame      -6.432  11.658  69.260  0.00  0.00     0.273 C 
ATOM     17  O2  non d ame      -6.412  12.492  68.423  0.00  0.00    -0.266 OA
ATOM     18  H5  non d ame      -7.144   9.671  69.727  0.00  0.00     0.163 HD
BRANCH  16  19
ATOM     19  C4  non d ame      -5.731  11.907  70.605  0.00  0.00     0.154 A 
ATOM     20  C1  non d ame      -5.207  13.147  71.090  0.00  0.00    -0.017 A 
ATOM     21  C2  non d ame      -4.671  12.843  72.361  0.00  0.00     0.077 A 
ATOM     22  H1  non d ame      -5.215  14.119  70.596  0.00  0.00     0.091 H 
ATOM     23  O1  non d ame      -4.870  11.575  72.572  0.00  0.00    -0.218 OA
ATOM     24  N1  non d ame      -5.486  11.007  71.561  0.00  0.00    -0.123 NA
BRANCH  21  25
ATOM     25  C3  non d ame      -3.987  13.820  73.309  0.00  0.00    -0.029 C 
ATOM     26  H2  non d ame      -3.882  13.360  74.292  0.00  0.00     0.036 H 
ATOM     27  H3  non d ame      -3.002  14.075  72.919  0.00  0.00     0.036 H 
ATOM     28  H4  non d ame      -4.589  14.725  73.394  0.00  0.00     0.036 H 
ENDBRANCH  21  25
ENDBRANCH  16  19
ENDBRANCH  13  15
BRANCH  13  29
ATOM     29  C8  non d ame      -7.497   8.773  67.247  0.00  0.00    -0.049 C 
ATOM     30  H7  non d ame      -7.818   8.049  67.996  0.00  0.00     0.030 H 
ATOM     31  H8  non d ame      -8.038   8.599  66.317  0.00  0.00     0.030 H 
ATOM     32  H9  non d ame      -6.427   8.664  67.072  0.00  0.00     0.030 H 
ENDBRANCH  13  29
ENDBRANCH  10  13
ENDBRANCH   7   9
BRANCH   7  33
ATOM     33  C11 non d ame     -11.679  10.479  70.840  0.00  0.00    -0.033 C 
ATOM     34  H12 non d ame     -11.470  11.315  71.508  0.00  0.00     0.042 H 
BRANCH  33  35
ATOM     35  C12 non d ame     -13.204  10.166  70.944  0.00  0.00    -0.071 C 
ATOM     36  H13 non d ame     -13.356   9.086  70.930  0.00  0.00     0.028 H 
ATOM     37  H14 non d ame     -13.596  10.575  71.876  0.00  0.00     0.028 H 
ATOM     38  H15 non d ame     -13.726  10.618  70.101  0.00  0.00     0.028 H 
ENDBRANCH  33  35
BRANCH  33  39
ATOM     39  C13 non d ame     -10.818   9.261  71.306  0.00  0.00    -0.071 C 
ATOM     40  H16 non d ame     -11.233   8.855  72.228  0.00  0.00     0.028 H 
ATOM     41  H17 non d ame     -10.827   8.492  70.533  0.00  0.00     0.028 H 
ATOM     42  H18 non d ame      -9.793   9.588  71.482  0.00  0.00     0.028 H 
ENDBRANCH  33  39
ENDBRANCH   7  33
ENDBRANCH   4   7
ENDBRANCH   1   3
BRANCH   1  43
ATOM     43  C15 non d ame     -10.715  15.407  69.179  0.00  0.00     0.240 C 
ATOM     44  O5  non d ame      -9.611  15.620  69.564  0.00  0.00    -0.271 OA
ATOM     45  N6  non d ame     -11.091  15.753  67.779  0.00  0.00    -0.355 N 
ATOM     46  H46 non d ame     -12.024  15.573  67.438  0.00  0.00     0.162 HD
BRANCH  45  47
ATOM     47  C20 non d ame     -10.088  16.367  66.881  0.00  0.00     0.013 C 
ATOM     48  H30 non d ame      -9.115  16.298  67.368  0.00  0.00     0.072 H 
BRANCH  47  49
ATOM     49  C21 non d ame     -10.448  17.817  66.647  0.00  0.00    -0.038 C 
ATOM     50  H31 non d ame      -9.759  18.171  65.880  0.00  0.00     0.036 H 
ATOM     51  H32 non d ame     -11.522  17.827  66.462  0.00  0.00     0.036 H 
BRANCH  49  52
ATOM     52  C22 non d ame     -10.210  18.701  67.890  0.00  0.00     0.018 C 
ATOM     53  H33 non d ame     -11.187  19.107  68.156  0.00  0.00     0.048 H 
ATOM     54  H34 non d ame      -9.669  18.075  68.599  0.00  0.00     0.048 H 
BRANCH  52  55
ATOM     55  C23 non d ame      -9.296  19.929  67.619  0.00  0.00     0.259 C 
ATOM     56  O7  non d ame      -9.768  20.981  67.335  0.00  0.00    -0.265 OA
BRANCH  55  57
ATOM     57  O8  non d ame      -7.884  19.778  67.703  0.00  0.00    -0.317 OA
BRANCH  57  58
ATOM     58  C29 non d ame      -7.419  19.356  68.989  0.00  0.00     0.052 C 
ATOM     59  H47 non d ame      -6.774  20.158  69.347  0.00  0.00     0.082 H 
ATOM     60  H48 non d ame      -8.311  19.083  69.550  0.00  0.00     0.082 H 
BRANCH  58  61
ATOM     61  C35 non d ame      -6.554  18.082  68.791  0.00  0.00    -0.034 A 
ATOM     62  C30 non d ame      -5.629  17.711  69.761  0.00  0.00    -0.075 A 
ATOM     63  C31 non d ame      -4.852  16.567  69.583  0.00  0.00    -0.082 A 
ATOM     64  H49 non d ame      -5.513  18.315  70.660  0.00  0.00     0.084 H 
ATOM     65  C32 non d ame      -5.002  15.794  68.428  0.00  0.00    -0.083 A 
ATOM     66  H50 non d ame      -4.130  16.277  70.346  0.00  0.00     0.083 H 
ATOM     67  C33 non d ame      -5.924  16.171  67.461  0.00  0.00    -0.082 A 
ATOM     68  H51 non d ame      -4.399  14.898  68.281  0.00  0.00     0.083 H 
ATOM     69  C34 non d ame      -6.704  17.312  67.636  0.00  0.00    -0.075 A 
ATOM     70  H52 non d ame      -6.037  15.568  66.560  0.00  0.00     0.083 H 
ATOM     71  H53 non d ame      -7.427  17.601  66.872  0.00  0.00     0.084 H 
ENDBRANCH  58  61
ENDBRANCH  57  58
ENDBRANCH  55  57
ENDBRANCH  52  55
ENDBRANCH  49  52
ENDBRANCH  47  49
BRANCH  47  72
ATOM     72  C24 non d ame     -10.067  15.625  65.546  0.00  0.00    -0.039 C 
ATOM     73  H35 non d ame     -10.160  16.398  64.783  0.00  0.00     0.036 H 
ATOM     74  H36 non d ame      -9.178  14.995  65.579  0.00  0.00     0.036 H 
BRANCH  72  75
ATOM     75  C25 non d ame     -11.330  14.651  65.389  0.00  0.00    -0.001 C 
ATOM     76  C26 non d ame     -10.820  13.118  65.086  0.00  0.00    -0.035 C 
ATOM     77  C27 non d ame     -11.469  12.651  63.992  0.00  0.00     0.085 C 
ATOM     78  H38 non d ame      -9.775  13.125  64.778  0.00  0.00     0.036 H 
ATOM     79  H39 non d ame     -11.149  12.450  65.882  0.00  0.00     0.036 H 
ATOM     80  N5  non d ame     -12.129  13.836  63.331  0.00  0.00    -0.049 N 
ATOM     81  H40 non d ame     -10.689  12.265  63.334  0.00  0.00     0.075 H 
ATOM     82  H41 non d ame     -12.240  11.983  64.374  0.00  0.00     0.075 H 
ATOM     83  C28 non d ame     -12.093  15.029  64.418  0.00  0.00     0.193 C 
ATOM     84  H42 non d ame     -11.540  14.094  62.551  0.00  0.00     0.280 HD
ATOM     85  H43 non d ame     -13.092  13.576  63.171  0.00  0.00     0.280 HD
ATOM     86  H44 non d ame     -12.993  15.303  64.969  0.00  0.00     0.129 H 
ATOM     87  H37 non d ame     -12.055  14.783  66.192  0.00  0.00     0.046 H 
BRANCH  83  88
ATOM     88  O6  non d ame     -11.633  16.237  63.810  0.00  0.00    -0.369 OA
ATOM     89  H45 non d ame     -11.864  16.984  64.367  0.00  0.00     0.212 HD
ENDBRANCH  83  88
ENDBRANCH  72  75
ENDBRANCH  47  72
ENDBRANCH  45  47
ENDBRANCH   1  43
BRANCH   1  90
ATOM     90  C16 non d ame     -11.712  15.456  71.486  0.00  0.00    -0.035 C 
ATOM     91  H21 non d ame     -10.717  15.253  71.883  0.00  0.00     0.037 H 
ATOM     92  H22 non d ame     -12.023  16.482  71.292  0.00  0.00     0.037 H 
BRANCH  90  93
ATOM     93  C17 non d ame     -12.726  14.876  72.523  0.00  0.00    -0.059 C 
ATOM     94  H23 non d ame     -12.611  13.793  72.529  0.00  0.00     0.038 H 
BRANCH  93  95
ATOM     95  C18 non d ame     -12.448  15.393  73.971  0.00  0.00    -0.073 C 
ATOM     96  H24 non d ame     -11.480  15.893  73.999  0.00  0.00     0.028 H 
ATOM     97  H25 non d ame     -13.229  16.096  74.263  0.00  0.00     0.028 H 
ATOM     98  H26 non d ame     -12.442  14.550  74.663  0.00  0.00     0.028 H 
ENDBRANCH  93  95
BRANCH  93  99
ATOM     99  C19 non d ame     -14.168  15.178  72.105  0.00  0.00    -0.073 C 
ATOM    100  H27 non d ame     -14.565  14.337  71.535  0.00  0.00     0.028 H 
ATOM    101  H28 non d ame     -14.779  15.334  72.995  0.00  0.00     0.028 H 
ATOM    102  H29 non d ame     -14.187  16.077  71.489  0.00  0.00     0.028 H 
ENDBRANCH  93  99
ENDBRANCH  90  93
ENDBRANCH   1  90
TORSDOF 26
ENDMDL
MODEL 3
REMARK VINA RESULT:      -6.8      2.287      5.712
REMARK  26 active torsions:
REMARK  status: ('A' for Active; 'I' for Inactive)
REMARK    1  A    between atoms: C2_2  and  C3_3 
REMARK    2  A    between atoms: C4_6  and  C5_7 
REMARK       I    between atoms: C5_7  and  N2_9 
REMARK    3  A    between atoms: N2_9  and  C6_10 
REMARK    4  A    between atoms: C6_10  and  C7_11 
REMARK    5  A    between atoms: C6_10  and  C8_13 
REMARK       I    between atoms: C7_11  and  N3_14 
REMARK    6  A    between atoms: N3_14  and  C9_15 
REMARK    7  A    between atoms: C9_15  and  C10_16 
REMARK    8  A    between atoms: C9_15  and  C11_18 
REMARK       I    between atoms: C10_16  and  N4_21 
REMARK    9  A    between atoms: C11_18  and  C12_19 
REMARK   10  A    between atoms: C11_18  and  C13_20 
REMARK   11  A    between atoms: N4_21  and  C14_22 
REMARK   12  A    between atoms: C14_22  and  C15_23 
REMARK   13  A    between atoms: C14_22  and  C16_25 
REMARK       I    between atoms: C15_23  and  N6_40 
REMARK   14  A    between atoms: C16_25  and  C17_26 
REMARK   15  A    between atoms: C17_26  and  C18_27 
REMARK   16  A    between atoms: C17_26  and  C19_28 
REMARK   17  A    between atoms: C20_29  and  C21_30 
REMARK   18  A    between atoms: C20_29  and  C24_33 
REMARK   19  A    between atoms: C20_29  and  N6_40 
REMARK   20  A    between atoms: C21_30  and  C22_31 
REMARK   21  A    between atoms: C22_31  and  C23_32 
REMARK   22  A    between atoms: C23_32  and  O8_43 
REMARK   23  A    between atoms: C24_33  and  C25_34 
REMARK   24  A    between atoms: C28_38  and  O6_39 
REMARK   25  A    between atoms: C29_42  and  O8_43 
REMARK   26  A    between atoms: C29_42  and  C35_49 
ROOT
ATOM      1  C14 non d ame     -11.983  13.789  69.581  0.00  0.00     0.089 C 
ATOM      2  H20 non d ame     -12.979  13.665  69.154  0.00  0.00     0.087 H 
ENDROOT
BRANCH   1   3
ATOM      3  N4  non d ame     -11.509  12.472  69.977  0.00  0.00    -0.346 N 
ATOM      4  C10 non d ame     -11.704  11.286  69.066  0.00  0.00     0.241 C 
ATOM      5  O4  non d ame     -12.247  11.416  68.019  0.00  0.00    -0.271 OA
ATOM      6  H19 non d ame     -11.052  12.381  70.874  0.00  0.00     0.163 HD
BRANCH   4   7
ATOM      7  C9  non d ame     -11.202   9.931  69.490  0.00  0.00     0.092 C 
ATOM      8  H11 non d ame     -11.772   9.159  68.974  0.00  0.00     0.088 H 
BRANCH   7   9
ATOM      9  N3  non d ame      -9.801   9.779  69.085  0.00  0.00    -0.346 N 
ATOM     10  C7  non d ame      -9.477   9.099  67.854  0.00  0.00     0.240 C 
ATOM     11  O3  non d ame     -10.331   8.668  67.180  0.00  0.00    -0.271 OA
ATOM     12  H10 non d ame      -9.054  10.144  69.657  0.00  0.00     0.163 HD
BRANCH  10  13
ATOM     13  C6  non d ame      -7.984   8.938  67.430  0.00  0.00     0.086 C 
ATOM     14  H6  non d ame      -7.863   8.820  66.353  0.00  0.00     0.086 H 
BRANCH  13  15
ATOM     15  N2  non d ame      -7.256  10.140  67.800  0.00  0.00    -0.343 N 
ATOM     16  C5  non d ame      -6.622  10.950  66.758  0.00  0.00     0.273 C 
ATOM     17  O2  non d ame      -6.701  10.624  65.624  0.00  0.00    -0.266 OA
ATOM     18  H5  non d ame      -7.191  10.409  68.772  0.00  0.00     0.163 HD
BRANCH  16  19
ATOM     19  C4  non d ame      -5.850  12.224  67.135  0.00  0.00     0.154 A 
ATOM     20  C1  non d ame      -6.355  13.364  67.837  0.00  0.00    -0.017 A 
ATOM     21  C2  non d ame      -5.257  14.249  67.929  0.00  0.00     0.077 A 
ATOM     22  H1  non d ame      -7.362  13.525  68.221  0.00  0.00     0.091 H 
ATOM     23  O1  non d ame      -4.246  13.674  67.346  0.00  0.00    -0.218 OA
ATOM     24  N1  non d ame      -4.568  12.492  66.875  0.00  0.00    -0.123 NA
BRANCH  21  25
ATOM     25  C3  non d ame      -5.259  15.622  68.589  0.00  0.00    -0.029 C 
ATOM     26  H2  non d ame      -4.253  15.860  68.936  0.00  0.00     0.036 H 
ATOM     27  H3  non d ame      -5.581  16.372  67.867  0.00  0.00     0.036 H 
ATOM     28  H4  non d ame      -5.944  15.617  69.438  0.00  0.00     0.036 H 
ENDBRANCH  21  25
ENDBRANCH  16  19
ENDBRANCH  13  15
BRANCH  13  29
ATOM     29  C8  non d ame      -7.389   7.739  68.122  0.00  0.00    -0.049 C 
ATOM     30  H7  non d ame      -7.910   7.567  69.064  0.00  0.00     0.030 H 
ATOM     31  H8  non d ame      -7.493   6.862  67.484  0.00  0.00     0.030 H 
ATOM     32  H9  non d ame      -6.333   7.922  68.320  0.00  0.00     0.030 H 
ENDBRANCH  13  29
ENDBRANCH  10  13
ENDBRANCH   7   9
BRANCH   7  33
ATOM     33  C11 non d ame     -11.308   9.800  71.038  0.00  0.00    -0.033 C 
ATOM     34  H12 non d ame     -11.078  10.775  71.467  0.00  0.00     0.042 H 
BRANCH  33  35
ATOM     35  C12 non d ame     -12.757   9.424  71.479  0.00  0.00    -0.071 C 
ATOM     36  H13 non d ame     -12.767   8.403  71.861  0.00  0.00     0.028 H 
ATOM     37  H14 non d ame     -13.087  10.107  72.260  0.00  0.00     0.028 H 
ATOM     38  H15 non d ame     -13.427   9.498  70.623  0.00  0.00     0.028 H 
ENDBRANCH  33  35
BRANCH  33  39
ATOM     39  C13 non d ame     -10.265   8.773  71.585  0.00  0.00    -0.071 C 
ATOM     40  H16 non d ame     -10.212   7.916  70.914  0.00  0.00     0.028 H 
ATOM     41  H17 non d ame      -9.285   9.247  71.647  0.00  0.00     0.028 H 
ATOM     42  H18 non d ame     -10.570   8.439  72.577  0.00  0.00     0.028 H 
ENDBRANCH  33  39
ENDBRANCH   7  33
ENDBRANCH   4   7
ENDBRANCH   1   3
BRANCH   1  43
ATOM     43  C15 non d ame     -10.977  14.390  68.558  0.00  0.00     0.240 C 
ATOM     44  O5  non d ame      -9.934  14.817  68.936  0.00  0.00    -0.271 OA
ATOM     45  N6  non d ame     -11.309  14.426  67.106  0.00  0.00    -0.355 N 
ATOM     46  H46 non d ame     -12.190  14.062  66.772  0.00  0.00     0.162 HD
BRANCH  45  47
ATOM     47  C20 non d ame     -10.341  15.000  66.146  0.00  0.00     0.013 C 
ATOM     48  H30 non d ame      -9.344  14.900  66.575  0.00  0.00     0.072 H 
BRANCH  47  49
ATOM     49  C21 non d ame     -10.664  16.460  65.924  0.00  0.00    -0.038 C 
ATOM     50  H31 non d ame     -10.578  16.621  64.849  0.00  0.00     0.036 H 
ATOM     51  H32 non d ame     -11.616  16.631  66.426  0.00  0.00     0.036 H 
BRANCH  49  52
ATOM     52  C22 non d ame      -9.642  17.408  66.589  0.00  0.00     0.018 C 
ATOM     53  H33 non d ame      -9.642  17.145  67.648  0.00  0.00     0.048 H 
ATOM     54  H34 non d ame      -8.727  17.313  66.004  0.00  0.00     0.048 H 
BRANCH  52  55
ATOM     55  C23 non d ame     -10.042  18.908  66.520  0.00  0.00     0.259 C 
ATOM     56  O7  non d ame     -10.756  19.302  65.656  0.00  0.00    -0.265 OA
BRANCH  55  57
ATOM     57  O8  non d ame      -9.533  19.810  67.495  0.00  0.00    -0.317 OA
BRANCH  57  58
ATOM     58  C29 non d ame      -8.725  19.188  68.499  0.00  0.00     0.052 C 
ATOM     59  H47 non d ame      -9.135  19.518  69.453  0.00  0.00     0.082 H 
ATOM     60  H48 non d ame      -8.710  18.127  68.249  0.00  0.00     0.082 H 
BRANCH  58  61
ATOM     61  C35 non d ame      -7.283  19.745  68.365  0.00  0.00    -0.034 A 
ATOM     62  C30 non d ame      -7.014  20.775  67.470  0.00  0.00    -0.075 A 
ATOM     63  C31 non d ame      -5.718  21.275  67.350  0.00  0.00    -0.082 A 
ATOM     64  H49 non d ame      -7.818  21.191  66.863  0.00  0.00     0.084 H 
ATOM     65  C32 non d ame      -4.688  20.739  68.128  0.00  0.00    -0.083 A 
ATOM     66  H50 non d ame      -5.511  22.084  66.649  0.00  0.00     0.083 H 
ATOM     67  C33 non d ame      -4.961  19.709  69.017  0.00  0.00    -0.082 A 
ATOM     68  H51 non d ame      -3.672  21.125  68.041  0.00  0.00     0.083 H 
ATOM     69  C34 non d ame      -6.255  19.208  69.142  0.00  0.00    -0.075 A 
ATOM     70  H52 non d ame      -4.155  19.291  69.621  0.00  0.00     0.083 H 
ATOM     71  H53 non d ame      -6.461  18.399  69.844  0.00  0.00     0.084 H 
ENDBRANCH  58  61
ENDBRANCH  57  58
ENDBRANCH  55  57
ENDBRANCH  52  55
ENDBRANCH  49  52
ENDBRANCH  47  49
BRANCH  47  72
ATOM     72  C24 non d ame     -10.425  14.251  64.818  0.00  0.00    -0.039 C 
ATOM     73  H35 non d ame     -11.066  14.861  64.181  0.00  0.00     0.036 H 
ATOM     74  H36 non d ame      -9.392  14.059  64.527  0.00  0.00     0.036 H 
BRANCH  72  75
ATOM     75  C25 non d ame     -11.141  12.828  64.984  0.00  0.00    -0.001 C 
ATOM     76  C26 non d ame     -10.015  11.629  64.973  0.00  0.00    -0.035 C 
ATOM     77  C27 non d ame     -10.382  10.693  64.066  0.00  0.00     0.085 C 
ATOM     78  H38 non d ame      -9.071  12.007  64.581  0.00  0.00     0.036 H 
ATOM     79  H39 non d ame     -10.034  11.089  65.920  0.00  0.00     0.036 H 
ATOM     80  N5  non d ame     -11.480  11.299  63.226  0.00  0.00    -0.049 N 
ATOM     81  H40 non d ame      -9.503  10.532  63.440  0.00  0.00     0.075 H 
ATOM     82  H41 non d ame     -10.795   9.870  64.648  0.00  0.00     0.075 H 
ATOM     83  C28 non d ame     -11.978  12.611  64.025  0.00  0.00     0.193 C 
ATOM     84  H42 non d ame     -11.049  11.594  62.361  0.00  0.00     0.280 HD
ATOM     85  H43 non d ame     -12.234  10.627  63.211  0.00  0.00     0.280 HD
ATOM     86  H44 non d ame     -12.916  12.598  64.580  0.00  0.00     0.129 H 
ATOM     87  H37 non d ame     -11.863  12.822  65.800  0.00  0.00     0.046 H 
BRANCH  83  88
ATOM     88  O6  non d ame     -12.077  13.723  63.134  0.00  0.00    -0.369 OA
ATOM     89  H45 non d ame     -11.535  13.561  62.359  0.00  0.00     0.212 HD
ENDBRANCH  83  88
ENDBRANCH  72  75
ENDBRANCH  47  72
ENDBRANCH  45  47
ENDBRANCH   1  43
BRANCH   1  90
ATOM     90  C16 non d ame     -12.057  14.681  70.810  0.00  0.00    -0.035 C 
ATOM     91  H21 non d ame     -11.311  14.285  71.499  0.00  0.00     0.037 H 
ATOM     92  H22 non d ame     -11.965  15.700  70.433  0.00  0.00     0.037 H 
BRANCH  90  93
ATOM     93  C17 non d ame     -13.428  14.608  71.555  0.00  0.00    -0.059 C 
ATOM     94  H23 non d ame     -14.215  14.736  70.812  0.00  0.00     0.038 H 
BRANCH  93  95
ATOM     95  C18 non d ame     -13.649  13.226  72.250  0.00  0.00    -0.073 C 
ATOM     96  H24 non d ame     -14.673  12.895  72.082  0.00  0.00     0.028 H 
ATOM     97  H25 non d ame     -12.957  12.495  71.832  0.00  0.00     0.028 H 
ATOM     98  H26 non d ame     -13.469  13.326  73.321  0.00  0.00     0.028 H 
ENDBRANCH  93  95
BRANCH  93  99
ATOM     99  C19 non d ame     -13.564  15.753  72.562  0.00  0.00    -0.073 C 
ATOM    100  H27 non d ame     -12.632  15.859  73.119  0.00  0.00     0.028 H 
ATOM    101  H28 non d ame     -13.779  16.680  72.031  0.00  0.00     0.028 H 
ATOM    102  H29 non d ame     -14.378  15.534  73.254  0.00  0.00     0.028 H 
ENDBRANCH  93  99
ENDBRANCH  90  93
ENDBRANCH   1  90
TORSDOF 26
ENDMDL
MODEL 4
REMARK VINA RESULT:      -6.7      2.459      4.403
REMARK  26 active torsions:
REMARK  status: ('A' for Active; 'I' for Inactive)
REMARK    1  A    between atoms: C2_2  and  C3_3 
REMARK    2  A    between atoms: C4_6  and  C5_7 
REMARK       I    between atoms: C5_7  and  N2_9 
REMARK    3  A    between atoms: N2_9  and  C6_10 
REMARK    4  A    between atoms: C6_10  and  C7_11 
REMARK    5  A    between atoms: C6_10  and  C8_13 
REMARK       I    between atoms: C7_11  and  N3_14 
REMARK    6  A    between atoms: N3_14  and  C9_15 
REMARK    7  A    between atoms: C9_15  and  C10_16 
REMARK    8  A    between atoms: C9_15  and  C11_18 
REMARK       I    between atoms: C10_16  and  N4_21 
REMARK    9  A    between atoms: C11_18  and  C12_19 
REMARK   10  A    between atoms: C11_18  and  C13_20 
REMARK   11  A    between atoms: N4_21  and  C14_22 
REMARK   12  A    between atoms: C14_22  and  C15_23 
REMARK   13  A    between atoms: C14_22  and  C16_25 
REMARK       I    between atoms: C15_23  and  N6_40 
REMARK   14  A    between atoms: C16_25  and  C17_26 
REMARK   15  A    between atoms: C17_26  and  C18_27 
REMARK   16  A    between atoms: C17_26  and  C19_28 
REMARK   17  A    between atoms: C20_29  and  C21_30 
REMARK   18  A    between atoms: C20_29  and  C24_33 
REMARK   19  A    between atoms: C20_29  and  N6_40 
REMARK   20  A    between atoms: C21_30  and  C22_31 
REMARK   21  A    between atoms: C22_31  and  C23_32 
REMARK   22  A    between atoms: C23_32  and  O8_43 
REMARK   23  A    between atoms: C24_33  and  C25_34 
REMARK   24  A    between atoms: C28_38  and  O6_39 
REMARK   25  A    between atoms: C29_42  and  O8_43 
REMARK   26  A    between atoms: C29_42  and  C35_49 
ROOT
ATOM      1  C14 non d ame     -11.936  14.036  69.628  0.00  0.00     0.089 C 
ATOM      2  H20 non d ame     -12.869  13.509  69.426  0.00  0.00     0.087 H 
ENDROOT
BRANCH   1   3
ATOM      3  N4  non d ame     -10.858  13.062  69.552  0.00  0.00    -0.346 N 
ATOM      4  C10 non d ame     -10.945  11.903  68.591  0.00  0.00     0.241 C 
ATOM      5  O4  non d ame     -11.896  11.773  67.892  0.00  0.00    -0.271 OA
ATOM      6  H19 non d ame     -10.059  13.189  70.157  0.00  0.00     0.163 HD
BRANCH   4   7
ATOM      7  C9  non d ame      -9.817  10.907  68.521  0.00  0.00     0.092 C 
ATOM      8  H11 non d ame      -9.423  10.741  69.523  0.00  0.00     0.088 H 
BRANCH   7   9
ATOM      9  N3  non d ame     -10.330   9.621  68.039  0.00  0.00    -0.346 N 
ATOM     10  C7  non d ame     -10.428   8.500  68.941  0.00  0.00     0.240 C 
ATOM     11  O3  non d ame     -10.098   8.615  70.058  0.00  0.00    -0.271 OA
ATOM     12  H10 non d ame     -10.616   9.506  67.077  0.00  0.00     0.163 HD
BRANCH  10  13
ATOM     13  C6  non d ame     -10.971   7.133  68.421  0.00  0.00     0.086 C 
ATOM     14  H6  non d ame     -12.037   7.160  68.200  0.00  0.00     0.086 H 
BRANCH  13  15
ATOM     15  N2  non d ame     -10.296   6.800  67.177  0.00  0.00    -0.343 N 
ATOM     16  C5  non d ame      -8.866   6.485  67.195  0.00  0.00     0.273 C 
ATOM     17  O2  non d ame      -8.267   6.504  68.213  0.00  0.00    -0.266 OA
ATOM     18  H5  non d ame     -10.815   6.789  66.311  0.00  0.00     0.163 HD
BRANCH  16  19
ATOM     19  C4  non d ame      -8.140   6.130  65.888  0.00  0.00     0.154 A 
ATOM     20  C1  non d ame      -6.807   6.491  65.513  0.00  0.00    -0.017 A 
ATOM     21  C2  non d ame      -6.624   5.925  64.232  0.00  0.00     0.077 A 
ATOM     22  H1  non d ame      -6.084   7.074  66.083  0.00  0.00     0.091 H 
ATOM     23  O1  non d ame      -7.727   5.312  63.917  0.00  0.00    -0.218 OA
ATOM     24  N1  non d ame      -8.627   5.417  64.868  0.00  0.00    -0.123 NA
BRANCH  21  25
ATOM     25  C3  non d ame      -5.366   6.016  63.378  0.00  0.00    -0.029 C 
ATOM     26  H2  non d ame      -4.598   6.569  63.919  0.00  0.00     0.036 H 
ATOM     27  H3  non d ame      -5.003   5.012  63.158  0.00  0.00     0.036 H 
ATOM     28  H4  non d ame      -5.596   6.531  62.445  0.00  0.00     0.036 H 
ENDBRANCH  21  25
ENDBRANCH  16  19
ENDBRANCH  13  15
BRANCH  13  29
ATOM     29  C8  non d ame     -10.713   6.062  69.451  0.00  0.00    -0.049 C 
ATOM     30  H7  non d ame     -10.803   6.489  70.450  0.00  0.00     0.030 H 
ATOM     31  H8  non d ame     -11.442   5.261  69.331  0.00  0.00     0.030 H 
ATOM     32  H9  non d ame      -9.708   5.664  69.316  0.00  0.00     0.030 H 
ENDBRANCH  13  29
ENDBRANCH  10  13
ENDBRANCH   7   9
BRANCH   7  33
ATOM     33  C11 non d ame      -8.726  11.428  67.541  0.00  0.00    -0.033 C 
ATOM     34  H12 non d ame      -9.236  11.919  66.712  0.00  0.00     0.042 H 
BRANCH  33  35
ATOM     35  C12 non d ame      -7.810  12.492  68.223  0.00  0.00    -0.071 C 
ATOM     36  H13 non d ame      -7.655  12.221  69.268  0.00  0.00     0.028 H 
ATOM     37  H14 non d ame      -6.849  12.526  67.710  0.00  0.00     0.028 H 
ATOM     38  H15 non d ame      -8.287  13.470  68.168  0.00  0.00     0.028 H 
ENDBRANCH  33  35
BRANCH  33  39
ATOM     39  C13 non d ame      -7.885  10.246  66.960  0.00  0.00    -0.071 C 
ATOM     40  H16 non d ame      -8.321   9.920  66.016  0.00  0.00     0.028 H 
ATOM     41  H17 non d ame      -6.860  10.577  66.792  0.00  0.00     0.028 H 
ATOM     42  H18 non d ame      -7.888   9.417  67.667  0.00  0.00     0.028 H 
ENDBRANCH  33  39
ENDBRANCH   7  33
ENDBRANCH   4   7
ENDBRANCH   1   3
BRANCH   1  43
ATOM     43  C15 non d ame     -11.661  15.163  68.591  0.00  0.00     0.240 C 
ATOM     44  O5  non d ame     -12.014  16.274  68.819  0.00  0.00    -0.271 OA
ATOM     45  N6  non d ame     -10.949  14.857  67.318  0.00  0.00    -0.355 N 
ATOM     46  H46 non d ame     -10.639  13.917  67.116  0.00  0.00     0.162 HD
BRANCH  45  47
ATOM     47  C20 non d ame     -10.693  15.939  66.343  0.00  0.00     0.013 C 
ATOM     48  H30 non d ame     -11.355  16.771  66.585  0.00  0.00     0.072 H 
BRANCH  47  49
ATOM     49  C21 non d ame     -10.986  15.434  64.948  0.00  0.00    -0.038 C 
ATOM     50  H31 non d ame     -11.474  16.262  64.432  0.00  0.00     0.036 H 
ATOM     51  H32 non d ame     -10.042  15.039  64.574  0.00  0.00     0.036 H 
BRANCH  49  52
ATOM     52  C22 non d ame     -11.988  14.260  64.934  0.00  0.00     0.018 C 
ATOM     53  H33 non d ame     -12.031  13.896  65.961  0.00  0.00     0.048 H 
ATOM     54  H34 non d ame     -12.888  14.645  64.454  0.00  0.00     0.048 H 
BRANCH  52  55
ATOM     55  C23 non d ame     -11.526  13.053  64.071  0.00  0.00     0.259 C 
ATOM     56  O7  non d ame     -12.202  12.656  63.178  0.00  0.00    -0.265 OA
BRANCH  55  57
ATOM     57  O8  non d ame     -10.289  12.417  64.368  0.00  0.00    -0.317 OA
BRANCH  57  58
ATOM     58  C29 non d ame     -10.363  10.989  64.405  0.00  0.00     0.052 C 
ATOM     59  H47 non d ame     -10.053  10.704  65.411  0.00  0.00     0.082 H 
ATOM     60  H48 non d ame     -11.361  10.735  64.051  0.00  0.00     0.082 H 
BRANCH  58  61
ATOM     61  C35 non d ame      -9.326  10.429  63.395  0.00  0.00    -0.034 A 
ATOM     62  C30 non d ame      -8.891   9.112  63.501  0.00  0.00    -0.075 A 
ATOM     63  C31 non d ame      -7.960   8.609  62.593  0.00  0.00    -0.082 A 
ATOM     64  H49 non d ame      -9.281   8.473  64.294  0.00  0.00     0.084 H 
ATOM     65  C32 non d ame      -7.461   9.430  61.579  0.00  0.00    -0.083 A 
ATOM     66  H50 non d ame      -7.623   7.576  62.677  0.00  0.00     0.083 H 
ATOM     67  C33 non d ame      -7.895  10.745  61.479  0.00  0.00    -0.082 A 
ATOM     68  H51 non d ame      -6.733   9.045  60.865  0.00  0.00     0.083 H 
ATOM     69  C34 non d ame      -8.827  11.251  62.383  0.00  0.00    -0.075 A 
ATOM     70  H52 non d ame      -7.502  11.384  60.688  0.00  0.00     0.083 H 
ATOM     71  H53 non d ame      -9.164  12.285  62.297  0.00  0.00     0.084 H 
ENDBRANCH  58  61
ENDBRANCH  57  58
ENDBRANCH  55  57
ENDBRANCH  52  55
ENDBRANCH  49  52
ENDBRANCH  47  49
BRANCH  47  72
ATOM     72  C24 non d ame      -9.233  16.379  66.430  0.00  0.00    -0.039 C 
ATOM     73  H35 non d ame      -8.745  15.640  67.067  0.00  0.00     0.036 H 
ATOM     74  H36 non d ame      -8.907  16.508  65.398  0.00  0.00     0.036 H 
BRANCH  72  75
ATOM     75  C25 non d ame      -9.085  17.800  67.154  0.00  0.00    -0.001 C 
ATOM     76  C26 non d ame     -10.483  18.653  67.007  0.00  0.00    -0.035 C 
ATOM     77  C27 non d ame     -10.193  19.885  66.525  0.00  0.00     0.085 C 
ATOM     78  H38 non d ame     -11.107  18.215  66.229  0.00  0.00     0.036 H 
ATOM     79  H39 non d ame     -10.902  18.857  67.992  0.00  0.00     0.036 H 
ATOM     80  N5  non d ame      -8.771  19.840  66.022  0.00  0.00    -0.049 N 
ATOM     81  H40 non d ame     -10.865  20.032  65.678  0.00  0.00     0.075 H 
ATOM     82  H41 non d ame     -10.245  20.553  67.384  0.00  0.00     0.075 H 
ATOM     83  C28 non d ame      -8.126  18.492  66.634  0.00  0.00     0.193 C 
ATOM     84  H42 non d ame      -8.825  19.744  65.018  0.00  0.00     0.280 HD
ATOM     85  H43 non d ame      -8.298  20.635  66.429  0.00  0.00     0.280 HD
ATOM     86  H44 non d ame      -7.437  18.541  67.477  0.00  0.00     0.129 H 
ATOM     87  H37 non d ame      -8.661  17.711  68.155  0.00  0.00     0.046 H 
BRANCH  83  88
ATOM     88  O6  non d ame      -7.433  17.770  65.614  0.00  0.00    -0.369 OA
ATOM     89  H45 non d ame      -7.478  18.259  64.790  0.00  0.00     0.212 HD
ENDBRANCH  83  88
ENDBRANCH  72  75
ENDBRANCH  47  72
ENDBRANCH  45  47
ENDBRANCH   1  43
BRANCH   1  90
ATOM     90  C16 non d ame     -11.972  14.628  71.028  0.00  0.00    -0.035 C 
ATOM     91  H21 non d ame     -11.311  13.998  71.625  0.00  0.00     0.037 H 
ATOM     92  H22 non d ame     -11.746  15.686  70.900  0.00  0.00     0.037 H 
BRANCH  90  93
ATOM     93  C17 non d ame     -13.378  14.555  71.704  0.00  0.00    -0.059 C 
ATOM     94  H23 non d ame     -14.124  14.773  70.940  0.00  0.00     0.038 H 
BRANCH  93  95
ATOM     95  C18 non d ame     -13.684  13.133  72.276  0.00  0.00    -0.073 C 
ATOM     96  H24 non d ame     -13.099  12.390  71.734  0.00  0.00     0.028 H 
ATOM     97  H25 non d ame     -13.421  13.103  73.333  0.00  0.00     0.028 H 
ATOM     98  H26 non d ame     -14.746  12.916  72.159  0.00  0.00     0.028 H 
ENDBRANCH  93  95
BRANCH  93  99
ATOM     99  C19 non d ame     -13.517  15.621  72.793  0.00  0.00    -0.073 C 
ATOM    100  H27 non d ame     -12.675  16.312  72.735  0.00  0.00     0.028 H 
ATOM    101  H28 non d ame     -14.448  16.170  72.647  0.00  0.00     0.028 H 
ATOM    102  H29 non d ame     -13.528  15.142  73.772  0.00  0.00     0.028 H 
ENDBRANCH  93  99
ENDBRANCH  90  93
ENDBRANCH   1  90
TORSDOF 26
ENDMDL
MODEL 5
REMARK VINA RESULT:      -6.6      2.221      3.836
REMARK  26 active torsions:
REMARK  status: ('A' for Active; 'I' for Inactive)
REMARK    1  A    between atoms: C2_2  and  C3_3 
REMARK    2  A    between atoms: C4_6  and  C5_7 
REMARK       I    between atoms: C5_7  and  N2_9 
REMARK    3  A    between atoms: N2_9  and  C6_10 
REMARK    4  A    between atoms: C6_10  and  C7_11 
REMARK    5  A    between atoms: C6_10  and  C8_13 
REMARK       I    between atoms: C7_11  and  N3_14 
REMARK    6  A    between atoms: N3_14  and  C9_15 
REMARK    7  A    between atoms: C9_15  and  C10_16 
REMARK    8  A    between atoms: C9_15  and  C11_18 
REMARK       I    between atoms: C10_16  and  N4_21 
REMARK    9  A    between atoms: C11_18  and  C12_19 
REMARK   10  A    between atoms: C11_18  and  C13_20 
REMARK   11  A    between atoms: N4_21  and  C14_22 
REMARK   12  A    between atoms: C14_22  and  C15_23 
REMARK   13  A    between atoms: C14_22  and  C16_25 
REMARK       I    between atoms: C15_23  and  N6_40 
REMARK   14  A    between atoms: C16_25  and  C17_26 
REMARK   15  A    between atoms: C17_26  and  C18_27 
REMARK   16  A    between atoms: C17_26  and  C19_28 
REMARK   17  A    between atoms: C20_29  and  C21_30 
REMARK   18  A    between atoms: C20_29  and  C24_33 
REMARK   19  A    between atoms: C20_29  and  N6_40 
REMARK   20  A    between atoms: C21_30  and  C22_31 
REMARK   21  A    between atoms: C22_31  and  C23_32 
REMARK   22  A    between atoms: C23_32  and  O8_43 
REMARK   23  A    between atoms: C24_33  and  C25_34 
REMARK   24  A    between atoms: C28_38  and  O6_39 
REMARK   25  A    between atoms: C29_42  and  O8_43 
REMARK   26  A    between atoms: C29_42  and  C35_49 
ROOT
ATOM      1  C14 non d ame     -12.309  14.409  70.387  0.00  0.00     0.089 C 
ATOM      2  H20 non d ame     -13.394  14.488  70.464  0.00  0.00     0.087 H 
ENDROOT
BRANCH   1   3
ATOM      3  N4  non d ame     -11.990  13.017  70.107  0.00  0.00    -0.346 N 
ATOM      4  C10 non d ame     -12.584  11.915  70.948  0.00  0.00     0.241 C 
ATOM      5  O4  non d ame     -13.313  12.174  71.848  0.00  0.00    -0.271 OA
ATOM      6  H19 non d ame     -11.365  12.818  69.338  0.00  0.00     0.163 HD
BRANCH   4   7
ATOM      7  C9  non d ame     -12.247  10.480  70.640  0.00  0.00     0.092 C 
ATOM      8  H11 non d ame     -12.857  10.140  69.803  0.00  0.00     0.088 H 
BRANCH   7   9
ATOM      9  N3  non d ame     -10.845  10.385  70.222  0.00  0.00    -0.346 N 
ATOM     10  C7  non d ame     -10.511  10.373  68.819  0.00  0.00     0.240 C 
ATOM     11  O3  non d ame     -11.358  10.439  68.014  0.00  0.00    -0.271 OA
ATOM     12  H10 non d ame     -10.104  10.326  70.906  0.00  0.00     0.163 HD
BRANCH  10  13
ATOM     13  C6  non d ame      -9.018  10.269  68.380  0.00  0.00     0.086 C 
ATOM     14  H6  non d ame      -8.325  10.349  69.218  0.00  0.00     0.086 H 
BRANCH  13  15
ATOM     15  N2  non d ame      -8.793   8.965  67.778  0.00  0.00    -0.343 N 
ATOM     16  C5  non d ame      -8.657   7.788  68.638  0.00  0.00     0.273 C 
ATOM     17  O2  non d ame      -8.726   7.900  69.812  0.00  0.00    -0.266 OA
ATOM     18  H5  non d ame      -8.733   8.879  66.773  0.00  0.00     0.163 HD
BRANCH  16  19
ATOM     19  C4  non d ame      -8.421   6.403  68.015  0.00  0.00     0.154 A 
ATOM     20  C1  non d ame      -9.288   5.266  68.080  0.00  0.00    -0.017 A 
ATOM     21  C2  non d ame      -8.618   4.256  67.354  0.00  0.00     0.077 A 
ATOM     22  H1  non d ame     -10.255   5.187  68.577  0.00  0.00     0.091 H 
ATOM     23  O1  non d ame      -7.500   4.764  66.926  0.00  0.00    -0.218 OA
ATOM     24  N1  non d ame      -7.362   6.015  67.299  0.00  0.00    -0.123 NA
BRANCH  21  25
ATOM     25  C3  non d ame      -9.115   2.836  67.117  0.00  0.00    -0.029 C 
ATOM     26  H2  non d ame      -8.659   2.438  66.210  0.00  0.00     0.036 H 
ATOM     27  H3  non d ame      -8.843   2.210  67.966  0.00  0.00     0.036 H 
ATOM     28  H4  non d ame     -10.200   2.844  67.004  0.00  0.00     0.036 H 
ENDBRANCH  21  25
ENDBRANCH  16  19
ENDBRANCH  13  15
BRANCH  13  29
ATOM     29  C8  non d ame      -8.706  11.358  67.385  0.00  0.00    -0.049 C 
ATOM     30  H7  non d ame      -9.096  11.079  66.407  0.00  0.00     0.030 H 
ATOM     31  H8  non d ame      -9.170  12.290  67.709  0.00  0.00     0.030 H 
ATOM     32  H9  non d ame      -7.627  11.492  67.320  0.00  0.00     0.030 H 
ENDBRANCH  13  29
ENDBRANCH  10  13
ENDBRANCH   7   9
BRANCH   7  33
ATOM     33  C11 non d ame     -12.466   9.611  71.914  0.00  0.00    -0.033 C 
ATOM     34  H12 non d ame     -12.497  10.285  72.770  0.00  0.00     0.042 H 
BRANCH  33  35
ATOM     35  C12 non d ame     -13.831   8.857  71.860  0.00  0.00    -0.071 C 
ATOM     36  H13 non d ame     -14.032   8.543  70.836  0.00  0.00     0.028 H 
ATOM     37  H14 non d ame     -13.787   7.981  72.507  0.00  0.00     0.028 H 
ATOM     38  H15 non d ame     -14.626   9.521  72.200  0.00  0.00     0.028 H 
ENDBRANCH  33  35
BRANCH  33  39
ATOM     39  C13 non d ame     -11.278   8.618  72.124  0.00  0.00    -0.071 C 
ATOM     40  H16 non d ame     -11.656   7.681  72.532  0.00  0.00     0.028 H 
ATOM     41  H17 non d ame     -10.790   8.428  71.168  0.00  0.00     0.028 H 
ATOM     42  H18 non d ame     -10.559   9.054  72.818  0.00  0.00     0.028 H 
ENDBRANCH  33  39
ENDBRANCH   7  33
ENDBRANCH   4   7
ENDBRANCH   1   3
BRANCH   1  43
ATOM     43  C15 non d ame     -11.735  15.289  69.240  0.00  0.00     0.240 C 
ATOM     44  O5  non d ame     -11.819  16.473  69.305  0.00  0.00    -0.271 OA
ATOM     45  N6  non d ame     -11.074  14.656  68.063  0.00  0.00    -0.355 N 
ATOM     46  H46 non d ame     -10.993  13.652  67.999  0.00  0.00     0.162 HD
BRANCH  45  47
ATOM     47  C20 non d ame     -10.532  15.507  66.982  0.00  0.00     0.013 C 
ATOM     48  H30 non d ame     -10.819  16.538  67.190  0.00  0.00     0.072 H 
BRANCH  47  49
ATOM     49  C21 non d ame     -11.116  15.065  65.659  0.00  0.00    -0.038 C 
ATOM     50  H31 non d ame     -12.153  14.799  65.868  0.00  0.00     0.036 H 
ATOM     51  H32 non d ame     -10.891  15.867  64.955  0.00  0.00     0.036 H 
BRANCH  49  52
ATOM     52  C22 non d ame     -10.443  13.793  65.101  0.00  0.00     0.018 C 
ATOM     53  H33 non d ame     -10.253  13.997  64.047  0.00  0.00     0.048 H 
ATOM     54  H34 non d ame      -9.611  13.580  65.773  0.00  0.00     0.048 H 
BRANCH  52  55
ATOM     55  C23 non d ame     -11.354  12.535  65.136  0.00  0.00     0.259 C 
ATOM     56  O7  non d ame     -12.334  12.519  65.807  0.00  0.00    -0.265 OA
BRANCH  55  57
ATOM     57  O8  non d ame     -10.997  11.395  64.364  0.00  0.00    -0.317 OA
BRANCH  57  58
ATOM     58  C29 non d ame     -10.194  11.694  63.219  0.00  0.00     0.052 C 
ATOM     59  H47 non d ame     -10.863  11.622  62.362  0.00  0.00     0.082 H 
ATOM     60  H48 non d ame      -9.698  12.638  63.445  0.00  0.00     0.082 H 
BRANCH  58  61
ATOM     61  C35 non d ame      -9.111  10.590  63.092  0.00  0.00    -0.034 A 
ATOM     62  C30 non d ame      -8.208  10.618  62.034  0.00  0.00    -0.075 A 
ATOM     63  C31 non d ame      -7.235   9.626  61.919  0.00  0.00    -0.082 A 
ATOM     64  H49 non d ame      -8.262  11.418  61.295  0.00  0.00     0.084 H 
ATOM     65  C32 non d ame      -7.169   8.601  62.867  0.00  0.00    -0.083 A 
ATOM     66  H50 non d ame      -6.527   9.653  61.091  0.00  0.00     0.083 H 
ATOM     67  C33 non d ame      -8.075   8.575  63.919  0.00  0.00    -0.082 A 
ATOM     68  H51 non d ame      -6.412   7.821  62.785  0.00  0.00     0.083 H 
ATOM     69  C34 non d ame      -9.047   9.565  64.038  0.00  0.00    -0.075 A 
ATOM     70  H52 non d ame      -8.022   7.772  64.655  0.00  0.00     0.083 H 
ATOM     71  H53 non d ame      -9.754   9.538  64.868  0.00  0.00     0.084 H 
ENDBRANCH  58  61
ENDBRANCH  57  58
ENDBRANCH  55  57
ENDBRANCH  52  55
ENDBRANCH  49  52
ENDBRANCH  47  49
BRANCH  47  72
ATOM     72  C24 non d ame      -9.011  15.378  66.936  0.00  0.00    -0.039 C 
ATOM     73  H35 non d ame      -8.810  14.306  66.946  0.00  0.00     0.036 H 
ATOM     74  H36 non d ame      -8.694  15.983  66.086  0.00  0.00     0.036 H 
BRANCH  72  75
ATOM     75  C25 non d ame      -8.324  16.001  68.242  0.00  0.00    -0.001 C 
ATOM     76  C26 non d ame      -8.610  17.619  68.308  0.00  0.00    -0.035 C 
ATOM     77  C27 non d ame      -7.432  18.263  68.488  0.00  0.00     0.085 C 
ATOM     78  H38 non d ame      -8.951  17.978  67.337  0.00  0.00     0.036 H 
ATOM     79  H39 non d ame      -9.173  17.863  69.208  0.00  0.00     0.036 H 
ATOM     80  N5  non d ame      -6.335  17.260  68.223  0.00  0.00    -0.049 N 
ATOM     81  H40 non d ame      -7.401  19.035  67.717  0.00  0.00     0.075 H 
ATOM     82  H41 non d ame      -7.411  18.543  69.540  0.00  0.00     0.075 H 
ATOM     83  C28 non d ame      -7.047  15.811  68.234  0.00  0.00     0.193 C 
ATOM     84  H42 non d ame      -5.997  17.445  67.290  0.00  0.00     0.280 HD
ATOM     85  H43 non d ame      -5.703  17.313  69.009  0.00  0.00     0.280 HD
ATOM     86  H44 non d ame      -6.939  15.148  69.093  0.00  0.00     0.129 H 
ATOM     87  H37 non d ame      -8.542  15.422  69.139  0.00  0.00     0.046 H 
BRANCH  83  88
ATOM     88  O6  non d ame      -6.623  15.045  67.105  0.00  0.00    -0.369 OA
ATOM     89  H45 non d ame      -5.710  14.775  67.226  0.00  0.00     0.212 HD
ENDBRANCH  83  88
ENDBRANCH  72  75
ENDBRANCH  47  72
ENDBRANCH  45  47
ENDBRANCH   1  43
BRANCH   1  90
ATOM     90  C16 non d ame     -11.669  14.809  71.707  0.00  0.00    -0.035 C 
ATOM     91  H21 non d ame     -11.479  13.872  72.231  0.00  0.00     0.037 H 
ATOM     92  H22 non d ame     -10.837  15.460  71.439  0.00  0.00     0.037 H 
BRANCH  90  93
ATOM     93  C17 non d ame     -12.608  15.648  72.630  0.00  0.00    -0.059 C 
ATOM     94  H23 non d ame     -12.332  16.697  72.516  0.00  0.00     0.038 H 
BRANCH  93  95
ATOM     95  C18 non d ame     -14.111  15.505  72.228  0.00  0.00    -0.073 C 
ATOM     96  H24 non d ame     -14.720  16.143  72.868  0.00  0.00     0.028 H 
ATOM     97  H25 non d ame     -14.239  15.805  71.188  0.00  0.00     0.028 H 
ATOM     98  H26 non d ame     -14.421  14.467  72.347  0.00  0.00     0.028 H 
ENDBRANCH  93  95
BRANCH  93  99
ATOM     99  C19 non d ame     -12.400  15.280  74.101  0.00  0.00    -0.073 C 
ATOM    100  H27 non d ame     -12.094  14.236  74.175  0.00  0.00     0.028 H 
ATOM    101  H28 non d ame     -11.626  15.918  74.529  0.00  0.00     0.028 H 
ATOM    102  H29 non d ame     -13.332  15.425  74.647  0.00  0.00     0.028 H 
ENDBRANCH  93  99
ENDBRANCH  90  93
ENDBRANCH   1  90
TORSDOF 26
ENDMDL
MODEL 6
REMARK VINA RESULT:      -6.6      3.041      8.227
REMARK  26 active torsions:
REMARK  status: ('A' for Active; 'I' for Inactive)
REMARK    1  A    between atoms: C2_2  and  C3_3 
REMARK    2  A    between atoms: C4_6  and  C5_7 
REMARK       I    between atoms: C5_7  and  N2_9 
REMARK    3  A    between atoms: N2_9  and  C6_10 
REMARK    4  A    between atoms: C6_10  and  C7_11 
REMARK    5  A    between atoms: C6_10  and  C8_13 
REMARK       I    between atoms: C7_11  and  N3_14 
REMARK    6  A    between atoms: N3_14  and  C9_15 
REMARK    7  A    between atoms: C9_15  and  C10_16 
REMARK    8  A    between atoms: C9_15  and  C11_18 
REMARK       I    between atoms: C10_16  and  N4_21 
REMARK    9  A    between atoms: C11_18  and  C12_19 
REMARK   10  A    between atoms: C11_18  and  C13_20 
REMARK   11  A    between atoms: N4_21  and  C14_22 
REMARK   12  A    between atoms: C14_22  and  C15_23 
REMARK   13  A    between atoms: C14_22  and  C16_25 
REMARK       I    between atoms: C15_23  and  N6_40 
REMARK   14  A    between atoms: C16_25  and  C17_26 
REMARK   15  A    between atoms: C17_26  and  C18_27 
REMARK   16  A    between atoms: C17_26  and  C19_28 
REMARK   17  A    between atoms: C20_29  and  C21_30 
REMARK   18  A    between atoms: C20_29  and  C24_33 
REMARK   19  A    between atoms: C20_29  and  N6_40 
REMARK   20  A    between atoms: C21_30  and  C22_31 
REMARK   21  A    between atoms: C22_31  and  C23_32 
REMARK   22  A    between atoms: C23_32  and  O8_43 
REMARK   23  A    between atoms: C24_33  and  C25_34 
REMARK   24  A    between atoms: C28_38  and  O6_39 
REMARK   25  A    between atoms: C29_42  and  O8_43 
REMARK   26  A    between atoms: C29_42  and  C35_49 
ROOT
ATOM      1  C14 non d ame      -7.288   9.908  65.974  0.00  0.00     0.089 C 
ATOM      2  H20 non d ame      -7.522   9.169  65.207  0.00  0.00     0.087 H 
ENDROOT
BRANCH   1   3
ATOM      3  N4  non d ame      -8.218  11.015  65.815  0.00  0.00    -0.346 N 
ATOM      4  C10 non d ame      -9.666  10.752  65.483  0.00  0.00     0.241 C 
ATOM      5  O4  non d ame     -10.057   9.640  65.346  0.00  0.00    -0.271 OA
ATOM      6  H19 non d ame      -7.864  11.954  65.933  0.00  0.00     0.163 HD
BRANCH   4   7
ATOM      7  C9  non d ame     -10.616  11.910  65.327  0.00  0.00     0.092 C 
ATOM      8  H11 non d ame     -11.578  11.646  65.768  0.00  0.00     0.088 H 
BRANCH   7   9
ATOM      9  N3  non d ame     -10.103  13.067  66.067  0.00  0.00    -0.346 N 
ATOM     10  C7  non d ame     -10.646  13.392  67.363  0.00  0.00     0.240 C 
ATOM     11  O3  non d ame     -11.498  12.735  67.825  0.00  0.00    -0.271 OA
ATOM     12  H10 non d ame      -9.370  13.645  65.681  0.00  0.00     0.163 HD
BRANCH  10  13
ATOM     13  C6  non d ame     -10.098  14.627  68.144  0.00  0.00     0.086 C 
ATOM     14  H6  non d ame     -10.361  15.574  67.674  0.00  0.00     0.086 H 
BRANCH  13  15
ATOM     15  N2  non d ame     -10.688  14.644  69.473  0.00  0.00    -0.343 N 
ATOM     16  C5  non d ame     -11.750  15.605  69.778  0.00  0.00     0.273 C 
ATOM     17  O2  non d ame     -12.120  16.362  68.949  0.00  0.00    -0.266 OA
ATOM     18  H5  non d ame     -10.363  13.995  70.176  0.00  0.00     0.163 HD
BRANCH  16  19
ATOM     19  C4  non d ame     -12.384  15.633  71.178  0.00  0.00     0.154 A 
ATOM     20  C1  non d ame     -11.707  15.780  72.430  0.00  0.00    -0.017 A 
ATOM     21  C2  non d ame     -12.731  15.743  73.403  0.00  0.00     0.077 A 
ATOM     22  H1  non d ame     -10.638  15.896  72.606  0.00  0.00     0.091 H 
ATOM     23  O1  non d ame     -13.859  15.594  72.772  0.00  0.00    -0.218 OA
ATOM     24  N1  non d ame     -13.682  15.527  71.473  0.00  0.00    -0.123 NA
BRANCH  21  25
ATOM     25  C3  non d ame     -12.548  15.858  74.910  0.00  0.00    -0.029 C 
ATOM     26  H2  non d ame     -13.303  16.531  75.318  0.00  0.00     0.036 H 
ATOM     27  H3  non d ame     -12.654  14.874  75.365  0.00  0.00     0.036 H 
ATOM     28  H4  non d ame     -11.555  16.253  75.127  0.00  0.00     0.036 H 
ENDBRANCH  21  25
ENDBRANCH  16  19
ENDBRANCH  13  15
BRANCH  13  29
ATOM     29  C8  non d ame      -8.597  14.534  68.247  0.00  0.00    -0.049 C 
ATOM     30  H7  non d ame      -8.158  14.629  67.254  0.00  0.00     0.030 H 
ATOM     31  H8  non d ame      -8.226  15.335  68.886  0.00  0.00     0.030 H 
ATOM     32  H9  non d ame      -8.321  13.570  68.675  0.00  0.00     0.030 H 
ENDBRANCH  13  29
ENDBRANCH  10  13
ENDBRANCH   7   9
BRANCH   7  33
ATOM     33  C11 non d ame     -10.744  12.277  63.820  0.00  0.00    -0.033 C 
ATOM     34  H12 non d ame     -10.523  13.340  63.720  0.00  0.00     0.042 H 
BRANCH  33  35
ATOM     35  C12 non d ame      -9.705  11.498  62.955  0.00  0.00    -0.071 C 
ATOM     36  H13 non d ame      -8.715  11.934  63.097  0.00  0.00     0.028 H 
ATOM     37  H14 non d ame      -9.688  10.453  63.262  0.00  0.00     0.028 H 
ATOM     38  H15 non d ame      -9.984  11.565  61.904  0.00  0.00     0.028 H 
ENDBRANCH  33  35
BRANCH  33  39
ATOM     39  C13 non d ame     -12.201  12.037  63.308  0.00  0.00    -0.071 C 
ATOM     40  H16 non d ame     -12.208  11.197  62.614  0.00  0.00     0.028 H 
ATOM     41  H17 non d ame     -12.852  11.816  64.154  0.00  0.00     0.028 H 
ATOM     42  H18 non d ame     -12.558  12.932  62.798  0.00  0.00     0.028 H 
ENDBRANCH  33  39
ENDBRANCH   7  33
ENDBRANCH   4   7
ENDBRANCH   1   3
BRANCH   1  43
ATOM     43  C15 non d ame      -7.442   9.333  67.411  0.00  0.00     0.240 C 
ATOM     44  O5  non d ame      -6.813   9.799  68.305  0.00  0.00    -0.271 OA
ATOM     45  N6  non d ame      -8.383   8.207  67.674  0.00  0.00    -0.355 N 
ATOM     46  H46 non d ame      -8.926   7.806  66.924  0.00  0.00     0.162 HD
BRANCH  45  47
ATOM     47  C20 non d ame      -8.519   7.672  69.047  0.00  0.00     0.013 C 
ATOM     48  H30 non d ame      -7.857   8.243  69.697  0.00  0.00     0.072 H 
BRANCH  47  49
ATOM     49  C21 non d ame      -8.122   6.214  69.057  0.00  0.00    -0.038 C 
ATOM     50  H31 non d ame      -7.347   6.114  68.296  0.00  0.00     0.036 H 
ATOM     51  H32 non d ame      -7.899   5.977  70.097  0.00  0.00     0.036 H 
BRANCH  49  52
ATOM     52  C22 non d ame      -9.273   5.276  68.633  0.00  0.00     0.018 C 
ATOM     53  H33 non d ame      -9.913   5.177  69.511  0.00  0.00     0.048 H 
ATOM     54  H34 non d ame      -9.675   5.699  67.711  0.00  0.00     0.048 H 
BRANCH  52  55
ATOM     55  C23 non d ame      -8.810   3.836  68.277  0.00  0.00     0.259 C 
ATOM     56  O7  non d ame      -8.199   3.187  69.063  0.00  0.00    -0.265 OA
BRANCH  55  57
ATOM     57  O8  non d ame      -9.112   3.305  66.992  0.00  0.00    -0.317 OA
BRANCH  57  58
ATOM     58  C29 non d ame     -10.052   4.083  66.246  0.00  0.00     0.052 C 
ATOM     59  H47 non d ame     -10.854   3.397  65.975  0.00  0.00     0.082 H 
ATOM     60  H48 non d ame     -10.267   4.956  66.863  0.00  0.00     0.082 H 
BRANCH  58  61
ATOM     61  C35 non d ame      -9.353   4.561  64.946  0.00  0.00    -0.034 A 
ATOM     62  C30 non d ame      -8.255   5.413  65.018  0.00  0.00    -0.075 A 
ATOM     63  C31 non d ame      -7.627   5.843  63.850  0.00  0.00    -0.082 A 
ATOM     64  H49 non d ame      -7.887   5.744  65.989  0.00  0.00     0.084 H 
ATOM     65  C32 non d ame      -8.102   5.420  62.606  0.00  0.00    -0.083 A 
ATOM     66  H50 non d ame      -6.766   6.509  63.910  0.00  0.00     0.083 H 
ATOM     67  C33 non d ame      -9.200   4.572  62.539  0.00  0.00    -0.082 A 
ATOM     68  H51 non d ame      -7.617   5.750  61.688  0.00  0.00     0.083 H 
ATOM     69  C34 non d ame      -9.829   4.138  63.704  0.00  0.00    -0.075 A 
ATOM     70  H52 non d ame      -9.570   4.245  61.566  0.00  0.00     0.083 H 
ATOM     71  H53 non d ame     -10.690   3.472  63.643  0.00  0.00     0.084 H 
ENDBRANCH  58  61
ENDBRANCH  57  58
ENDBRANCH  55  57
ENDBRANCH  52  55
ENDBRANCH  49  52
ENDBRANCH  47  49
BRANCH  47  72
ATOM     72  C24 non d ame      -9.967   7.810  69.512  0.00  0.00    -0.039 C 
ATOM     73  H35 non d ame     -10.576   7.612  68.630  0.00  0.00     0.036 H 
ATOM     74  H36 non d ame     -10.053   7.167  70.388  0.00  0.00     0.036 H 
BRANCH  72  75
ATOM     75  C25 non d ame     -10.298   9.303  69.988  0.00  0.00    -0.001 C 
ATOM     76  C26 non d ame     -11.118   9.269  71.413  0.00  0.00    -0.035 C 
ATOM     77  C27 non d ame     -12.233  10.028  71.294  0.00  0.00     0.085 C 
ATOM     78  H38 non d ame     -11.509   8.268  71.595  0.00  0.00     0.036 H 
ATOM     79  H39 non d ame     -10.544   9.779  72.187  0.00  0.00     0.036 H 
ATOM     80  N5  non d ame     -12.419  10.311  69.822  0.00  0.00    -0.049 N 
ATOM     81  H40 non d ame     -13.053   9.398  71.641  0.00  0.00     0.075 H 
ATOM     82  H41 non d ame     -12.007  10.961  71.809  0.00  0.00     0.075 H 
ATOM     83  C28 non d ame     -11.020   9.923  69.116  0.00  0.00     0.193 C 
ATOM     84  H42 non d ame     -13.131   9.674  69.496  0.00  0.00     0.280 HD
ATOM     85  H43 non d ame     -12.556  11.308  69.738  0.00  0.00     0.280 HD
ATOM     86  H44 non d ame     -10.325  10.702  68.800  0.00  0.00     0.129 H 
ATOM     87  H37 non d ame      -9.426   9.956  69.933  0.00  0.00     0.046 H 
BRANCH  83  88
ATOM     88  O6  non d ame     -11.259   9.130  67.952  0.00  0.00    -0.369 OA
ATOM     89  H45 non d ame     -11.291   8.203  68.198  0.00  0.00     0.212 HD
ENDBRANCH  83  88
ENDBRANCH  72  75
ENDBRANCH  47  72
ENDBRANCH  45  47
ENDBRANCH   1  43
BRANCH   1  90
ATOM     90  C16 non d ame      -5.869  10.420  65.778  0.00  0.00    -0.035 C 
ATOM     91  H21 non d ame      -5.974  11.481  65.550  0.00  0.00     0.037 H 
ATOM     92  H22 non d ame      -5.324  10.105  66.668  0.00  0.00     0.037 H 
BRANCH  90  93
ATOM     93  C17 non d ame      -5.134   9.777  64.559  0.00  0.00    -0.059 C 
ATOM     94  H23 non d ame      -4.160  10.258  64.470  0.00  0.00     0.038 H 
BRANCH  93  95
ATOM     95  C18 non d ame      -4.894   8.246  64.756  0.00  0.00    -0.073 C 
ATOM     96  H24 non d ame      -5.319   7.932  65.709  0.00  0.00     0.028 H 
ATOM     97  H25 non d ame      -5.373   7.696  63.945  0.00  0.00     0.028 H 
ATOM     98  H26 non d ame      -3.823   8.043  64.750  0.00  0.00     0.028 H 
ENDBRANCH  93  95
BRANCH  93  99
ATOM     99  C19 non d ame      -5.894  10.046  63.258  0.00  0.00    -0.073 C 
ATOM    100  H27 non d ame      -5.314   9.674  62.413  0.00  0.00     0.028 H 
ATOM    101  H28 non d ame      -6.858   9.537  63.289  0.00  0.00     0.028 H 
ATOM    102  H29 non d ame      -6.054  11.118  63.145  0.00  0.00     0.028 H 
ENDBRANCH  93  99
ENDBRANCH  90  93
ENDBRANCH   1  90
TORSDOF 26
ENDMDL
MODEL 7
REMARK VINA RESULT:      -6.6      2.723      9.245
REMARK  26 active torsions:
REMARK  status: ('A' for Active; 'I' for Inactive)
REMARK    1  A    between atoms: C2_2  and  C3_3 
REMARK    2  A    between atoms: C4_6  and  C5_7 
REMARK       I    between atoms: C5_7  and  N2_9 
REMARK    3  A    between atoms: N2_9  and  C6_10 
REMARK    4  A    between atoms: C6_10  and  C7_11 
REMARK    5  A    between atoms: C6_10  and  C8_13 
REMARK       I    between atoms: C7_11  and  N3_14 
REMARK    6  A    between atoms: N3_14  and  C9_15 
REMARK    7  A    between atoms: C9_15  and  C10_16 
REMARK    8  A    between atoms: C9_15  and  C11_18 
REMARK       I    between atoms: C10_16  and  N4_21 
REMARK    9  A    between atoms: C11_18  and  C12_19 
REMARK   10  A    between atoms: C11_18  and  C13_20 
REMARK   11  A    between atoms: N4_21  and  C14_22 
REMARK   12  A    between atoms: C14_22  and  C15_23 
REMARK   13  A    between atoms: C14_22  and  C16_25 
REMARK       I    between atoms: C15_23  and  N6_40 
REMARK   14  A    between atoms: C16_25  and  C17_26 
REMARK   15  A    between atoms: C17_26  and  C18_27 
REMARK   16  A    between atoms: C17_26  and  C19_28 
REMARK   17  A    between atoms: C20_29  and  C21_30 
REMARK   18  A    between atoms: C20_29  and  C24_33 
REMARK   19  A    between atoms: C20_29  and  N6_40 
REMARK   20  A    between atoms: C21_30  and  C22_31 
REMARK   21  A    between atoms: C22_31  and  C23_32 
REMARK   22  A    between atoms: C23_32  and  O8_43 
REMARK   23  A    between atoms: C24_33  and  C25_34 
REMARK   24  A    between atoms: C28_38  and  O6_39 
REMARK   25  A    between atoms: C29_42  and  O8_43 
REMARK   26  A    between atoms: C29_42  and  C35_49 
ROOT
ATOM      1  C14 non d ame      -9.235   7.137  66.943  0.00  0.00     0.089 C 
ATOM      2  H20 non d ame      -9.623   6.832  65.971  0.00  0.00     0.087 H 
ENDROOT
BRANCH   1   3
ATOM      3  N4  non d ame      -8.877   8.545  66.850  0.00  0.00    -0.346 N 
ATOM      4  C10 non d ame      -8.686   9.195  65.503  0.00  0.00     0.241 C 
ATOM      5  O4  non d ame      -8.822   8.563  64.507  0.00  0.00    -0.271 OA
ATOM      6  H19 non d ame      -8.763   9.064  67.709  0.00  0.00     0.163 HD
BRANCH   4   7
ATOM      7  C9  non d ame      -8.321  10.654  65.425  0.00  0.00     0.092 C 
ATOM      8  H11 non d ame      -7.867  10.859  64.456  0.00  0.00     0.088 H 
BRANCH   7   9
ATOM      9  N3  non d ame      -9.538  11.467  65.514  0.00  0.00    -0.346 N 
ATOM     10  C7  non d ame     -10.184  11.931  64.311  0.00  0.00     0.240 C 
ATOM     11  O3  non d ame      -9.737  11.661  63.263  0.00  0.00    -0.271 OA
ATOM     12  H10 non d ame      -9.933  11.710  66.411  0.00  0.00     0.163 HD
BRANCH  10  13
ATOM     13  C6  non d ame     -11.476  12.799  64.412  0.00  0.00     0.086 C 
ATOM     14  H6  non d ame     -12.097  12.533  65.268  0.00  0.00     0.086 H 
BRANCH  13  15
ATOM     15  N2  non d ame     -11.097  14.191  64.590  0.00  0.00    -0.343 N 
ATOM     16  C5  non d ame     -10.908  14.720  65.943  0.00  0.00     0.273 C 
ATOM     17  O2  non d ame     -11.067  14.018  66.881  0.00  0.00    -0.266 OA
ATOM     18  H5  non d ame     -10.966  14.784  63.783  0.00  0.00     0.163 HD
BRANCH  16  19
ATOM     19  C4  non d ame     -10.505  16.189  66.147  0.00  0.00     0.154 A 
ATOM     20  C1  non d ame     -10.065  16.804  67.361  0.00  0.00    -0.017 A 
ATOM     21  C2  non d ame      -9.822  18.153  67.017  0.00  0.00     0.077 A 
ATOM     22  H1  non d ame      -9.941  16.343  68.341  0.00  0.00     0.091 H 
ATOM     23  O1  non d ame     -10.093  18.285  65.752  0.00  0.00    -0.218 OA
ATOM     24  N1  non d ame     -10.494  17.153  65.222  0.00  0.00    -0.123 NA
BRANCH  21  25
ATOM     25  C3  non d ame      -9.333  19.248  67.956  0.00  0.00    -0.029 C 
ATOM     26  H2  non d ame      -8.325  19.550  67.669  0.00  0.00     0.036 H 
ATOM     27  H3  non d ame     -10.002  20.107  67.891  0.00  0.00     0.036 H 
ATOM     28  H4  non d ame      -9.322  18.873  68.979  0.00  0.00     0.036 H 
ENDBRANCH  21  25
ENDBRANCH  16  19
ENDBRANCH  13  15
BRANCH  13  29
ATOM     29  C8  non d ame     -12.290  12.643  63.153  0.00  0.00    -0.049 C 
ATOM     30  H7  non d ame     -12.279  11.599  62.840  0.00  0.00     0.030 H 
ATOM     31  H8  non d ame     -13.317  12.956  63.342  0.00  0.00     0.030 H 
ATOM     32  H9  non d ame     -11.861  13.261  62.364  0.00  0.00     0.030 H 
ENDBRANCH  13  29
ENDBRANCH  10  13
ENDBRANCH   7   9
BRANCH   7  33
ATOM     33  C11 non d ame      -7.372  11.015  66.605  0.00  0.00    -0.033 C 
ATOM     34  H12 non d ame      -7.493  10.248  67.370  0.00  0.00     0.042 H 
BRANCH  33  35
ATOM     35  C12 non d ame      -5.877  10.999  66.157  0.00  0.00    -0.071 C 
ATOM     36  H13 non d ame      -5.816  11.194  65.086  0.00  0.00     0.028 H 
ATOM     37  H14 non d ame      -5.327  11.769  66.698  0.00  0.00     0.028 H 
ATOM     38  H15 non d ame      -5.444  10.023  66.373  0.00  0.00     0.028 H 
ENDBRANCH  33  35
BRANCH  33  39
ATOM     39  C13 non d ame      -7.760  12.392  67.234  0.00  0.00    -0.071 C 
ATOM     40  H16 non d ame      -6.879  12.844  67.689  0.00  0.00     0.028 H 
ATOM     41  H17 non d ame      -8.146  13.051  66.456  0.00  0.00     0.028 H 
ATOM     42  H18 non d ame      -8.525  12.240  67.995  0.00  0.00     0.028 H 
ENDBRANCH  33  39
ENDBRANCH   7  33
ENDBRANCH   4   7
ENDBRANCH   1   3
BRANCH   1  43
ATOM     43  C15 non d ame     -10.288   6.968  68.075  0.00  0.00     0.240 C 
ATOM     44  O5  non d ame     -11.172   6.183  67.947  0.00  0.00    -0.271 OA
ATOM     45  N6  non d ame     -10.190   7.777  69.323  0.00  0.00    -0.355 N 
ATOM     46  H46 non d ame      -9.441   8.443  69.445  0.00  0.00     0.162 HD
BRANCH  45  47
ATOM     47  C20 non d ame     -11.199   7.603  70.390  0.00  0.00     0.013 C 
ATOM     48  H30 non d ame     -12.058   7.089  69.960  0.00  0.00     0.072 H 
BRANCH  47  49
ATOM     49  C21 non d ame     -11.616   8.960  70.910  0.00  0.00    -0.038 C 
ATOM     50  H31 non d ame     -12.674   9.057  70.666  0.00  0.00     0.036 H 
ATOM     51  H32 non d ame     -11.290   8.990  71.950  0.00  0.00     0.036 H 
BRANCH  49  52
ATOM     52  C22 non d ame     -10.896  10.124  70.194  0.00  0.00     0.018 C 
ATOM     53  H33 non d ame     -10.472  10.741  70.986  0.00  0.00     0.048 H 
ATOM     54  H34 non d ame     -10.241   9.657  69.457  0.00  0.00     0.048 H 
BRANCH  52  55
ATOM     55  C23 non d ame     -11.849  11.051  69.391  0.00  0.00     0.259 C 
ATOM     56  O7  non d ame     -12.020  10.880  68.228  0.00  0.00    -0.265 OA
BRANCH  55  57
ATOM     57  O8  non d ame     -12.509  12.120  70.060  0.00  0.00    -0.317 OA
BRANCH  57  58
ATOM     58  C29 non d ame     -11.827  13.374  69.968  0.00  0.00     0.052 C 
ATOM     59  H47 non d ame     -10.780  13.156  70.178  0.00  0.00     0.082 H 
ATOM     60  H48 non d ame     -12.113  13.795  69.004  0.00  0.00     0.082 H 
BRANCH  58  61
ATOM     61  C35 non d ame     -12.371  14.298  71.089  0.00  0.00    -0.034 A 
ATOM     62  C30 non d ame     -11.520  15.194  71.728  0.00  0.00    -0.075 A 
ATOM     63  C31 non d ame     -12.008  16.025  72.735  0.00  0.00    -0.082 A 
ATOM     64  H49 non d ame     -10.470  15.246  71.439  0.00  0.00     0.084 H 
ATOM     65  C32 non d ame     -13.354  15.955  73.106  0.00  0.00    -0.083 A 
ATOM     66  H50 non d ame     -11.339  16.727  73.232  0.00  0.00     0.083 H 
ATOM     67  C33 non d ame     -14.199  15.058  72.468  0.00  0.00    -0.082 A 
ATOM     68  H51 non d ame     -13.744  16.601  73.892  0.00  0.00     0.083 H 
ATOM     69  C34 non d ame     -13.716  14.227  71.459  0.00  0.00    -0.075 A 
ATOM     70  H52 non d ame     -15.248  15.004  72.760  0.00  0.00     0.083 H 
ATOM     71  H53 non d ame     -14.386  13.525  70.961  0.00  0.00     0.084 H 
ENDBRANCH  58  61
ENDBRANCH  57  58
ENDBRANCH  55  57
ENDBRANCH  52  55
ENDBRANCH  49  52
ENDBRANCH  47  49
BRANCH  47  72
ATOM     72  C24 non d ame     -10.605   6.780  71.532  0.00  0.00    -0.039 C 
ATOM     73  H35 non d ame     -11.382   6.066  71.809  0.00  0.00     0.036 H 
ATOM     74  H36 non d ame      -9.644   6.424  71.164  0.00  0.00     0.036 H 
BRANCH  72  75
ATOM     75  C25 non d ame     -10.312   7.683  72.823  0.00  0.00    -0.001 C 
ATOM     76  C26 non d ame      -8.738   8.158  72.828  0.00  0.00    -0.035 C 
ATOM     77  C27 non d ame      -8.196   7.860  74.033  0.00  0.00     0.085 C 
ATOM     78  H38 non d ame      -8.162   7.550  72.131  0.00  0.00     0.036 H 
ATOM     79  H39 non d ame      -8.676   9.246  72.782  0.00  0.00     0.036 H 
ATOM     80  N5  non d ame      -9.159   6.932  74.733  0.00  0.00    -0.049 N 
ATOM     81  H40 non d ame      -7.276   7.318  73.812  0.00  0.00     0.075 H 
ATOM     82  H41 non d ame      -8.155   8.804  74.575  0.00  0.00     0.075 H 
ATOM     83  C28 non d ame     -10.546   7.031  73.912  0.00  0.00     0.193 C 
ATOM     84  H42 non d ame      -8.787   5.999  74.625  0.00  0.00     0.280 HD
ATOM     85  H43 non d ame      -9.304   7.314  75.656  0.00  0.00     0.280 HD
ATOM     86  H44 non d ame     -11.385   7.602  74.310  0.00  0.00     0.129 H 
ATOM     87  H37 non d ame     -11.065   8.459  72.964  0.00  0.00     0.046 H 
BRANCH  83  88
ATOM     88  O6  non d ame     -11.061   5.723  73.657  0.00  0.00    -0.369 OA
ATOM     89  H45 non d ame     -11.908   5.621  74.098  0.00  0.00     0.212 HD
ENDBRANCH  83  88
ENDBRANCH  72  75
ENDBRANCH  47  72
ENDBRANCH  45  47
ENDBRANCH   1  43
BRANCH   1  90
ATOM     90  C16 non d ame      -7.990   6.330  67.277  0.00  0.00    -0.035 C 
ATOM     91  H21 non d ame      -7.163   7.038  67.219  0.00  0.00     0.037 H 
ATOM     92  H22 non d ame      -8.215   5.831  68.220  0.00  0.00     0.037 H 
BRANCH  90  93
ATOM     93  C17 non d ame      -7.679   5.202  66.244  0.00  0.00    -0.059 C 
ATOM     94  H23 non d ame      -7.569   4.268  66.796  0.00  0.00     0.038 H 
BRANCH  93  95
ATOM     95  C18 non d ame      -8.837   5.011  65.212  0.00  0.00    -0.073 C 
ATOM     96  H24 non d ame      -8.417   4.793  64.231  0.00  0.00     0.028 H 
ATOM     97  H25 non d ame      -9.472   4.183  65.528  0.00  0.00     0.028 H 
ATOM     98  H26 non d ame      -9.430   5.924  65.160  0.00  0.00     0.028 H 
ENDBRANCH  93  95
BRANCH  93  99
ATOM     99  C19 non d ame      -6.351   5.466  65.529  0.00  0.00    -0.073 C 
ATOM    100  H27 non d ame      -6.086   6.519  65.632  0.00  0.00     0.028 H 
ATOM    101  H28 non d ame      -5.570   4.849  65.973  0.00  0.00     0.028 H 
ATOM    102  H29 non d ame      -6.452   5.219  64.472  0.00  0.00     0.028 H 
ENDBRANCH  93  99
ENDBRANCH  90  93
ENDBRANCH   1  90
TORSDOF 26
ENDMDL
MODEL 8
REMARK VINA RESULT:      -6.5      2.729      7.764
REMARK  26 active torsions:
REMARK  status: ('A' for Active; 'I' for Inactive)
REMARK    1  A    between atoms: C2_2  and  C3_3 
REMARK    2  A    between atoms: C4_6  and  C5_7 
REMARK       I    between atoms: C5_7  and  N2_9 
REMARK    3  A    between atoms: N2_9  and  C6_10 
REMARK    4  A    between atoms: C6_10  and  C7_11 
REMARK    5  A    between atoms: C6_10  and  C8_13 
REMARK       I    between atoms: C7_11  and  N3_14 
REMARK    6  A    between atoms: N3_14  and  C9_15 
REMARK    7  A    between atoms: C9_15  and  C10_16 
REMARK    8  A    between atoms: C9_15  and  C11_18 
REMARK       I    between atoms: C10_16  and  N4_21 
REMARK    9  A    between atoms: C11_18  and  C12_19 
REMARK   10  A    between atoms: C11_18  and  C13_20 
REMARK   11  A    between atoms: N4_21  and  C14_22 
REMARK   12  A    between atoms: C14_22  and  C15_23 
REMARK   13  A    between atoms: C14_22  and  C16_25 
REMARK       I    between atoms: C15_23  and  N6_40 
REMARK   14  A    between atoms: C16_25  and  C17_26 
REMARK   15  A    between atoms: C17_26  and  C18_27 
REMARK   16  A    between atoms: C17_26  and  C19_28 
REMARK   17  A    between atoms: C20_29  and  C21_30 
REMARK   18  A    between atoms: C20_29  and  C24_33 
REMARK   19  A    between atoms: C20_29  and  N6_40 
REMARK   20  A    between atoms: C21_30  and  C22_31 
REMARK   21  A    between atoms: C22_31  and  C23_32 
REMARK   22  A    between atoms: C23_32  and  O8_43 
REMARK   23  A    between atoms: C24_33  and  C25_34 
REMARK   24  A    between atoms: C28_38  and  O6_39 
REMARK   25  A    between atoms: C29_42  and  O8_43 
REMARK   26  A    between atoms: C29_42  and  C35_49 
ROOT
ATOM      1  C14 non d ame     -10.021   9.177  66.632  0.00  0.00     0.089 C 
ATOM      2  H20 non d ame     -11.022   8.744  66.643  0.00  0.00     0.087 H 
ENDROOT
BRANCH   1   3
ATOM      3  N4  non d ame     -10.159  10.595  66.334  0.00  0.00    -0.346 N 
ATOM      4  C10 non d ame     -11.231  11.414  67.009  0.00  0.00     0.241 C 
ATOM      5  O4  non d ame     -11.972  10.909  67.786  0.00  0.00    -0.271 OA
ATOM      6  H19 non d ame      -9.520  11.005  65.668  0.00  0.00     0.163 HD
BRANCH   4   7
ATOM      7  C9  non d ame     -11.355  12.881  66.693  0.00  0.00     0.092 C 
ATOM      8  H11 non d ame     -12.395  13.186  66.811  0.00  0.00     0.088 H 
BRANCH   7   9
ATOM      9  N3  non d ame     -10.565  13.657  67.653  0.00  0.00    -0.346 N 
ATOM     10  C7  non d ame     -11.219  14.329  68.749  0.00  0.00     0.240 C 
ATOM     11  O3  non d ame     -12.381  14.257  68.872  0.00  0.00    -0.271 OA
ATOM     12  H10 non d ame      -9.562  13.730  67.559  0.00  0.00     0.163 HD
BRANCH  10  13
ATOM     13  C6  non d ame     -10.373  15.156  69.766  0.00  0.00     0.086 C 
ATOM     14  H6  non d ame      -9.747  14.530  70.401  0.00  0.00     0.086 H 
BRANCH  13  15
ATOM     15  N2  non d ame      -9.475  16.031  69.030  0.00  0.00    -0.343 N 
ATOM     16  C5  non d ame     -10.028  17.131  68.239  0.00  0.00     0.273 C 
ATOM     17  O2  non d ame     -11.197  17.303  68.197  0.00  0.00    -0.266 OA
ATOM     18  H5  non d ame      -8.477  15.875  69.069  0.00  0.00     0.163 HD
BRANCH  16  19
ATOM     19  C4  non d ame      -9.090  18.065  67.457  0.00  0.00     0.154 A 
ATOM     20  C1  non d ame      -8.303  19.138  67.984  0.00  0.00    -0.017 A 
ATOM     21  C2  non d ame      -7.626  19.675  66.865  0.00  0.00     0.077 A 
ATOM     22  H1  non d ame      -8.232  19.475  69.018  0.00  0.00     0.091 H 
ATOM     23  O1  non d ame      -7.989  18.983  65.825  0.00  0.00    -0.218 OA
ATOM     24  N1  non d ame      -8.843  18.039  66.145  0.00  0.00    -0.123 NA
BRANCH  21  25
ATOM     25  C3  non d ame      -6.652  20.845  66.878  0.00  0.00    -0.029 C 
ATOM     26  H2  non d ame      -7.181  21.756  67.162  0.00  0.00     0.036 H 
ATOM     27  H3  non d ame      -5.856  20.648  67.595  0.00  0.00     0.036 H 
ATOM     28  H4  non d ame      -6.222  20.971  65.884  0.00  0.00     0.036 H 
ENDBRANCH  21  25
ENDBRANCH  16  19
ENDBRANCH  13  15
BRANCH  13  29
ATOM     29  C8  non d ame     -11.290  15.974  70.640  0.00  0.00    -0.049 C 
ATOM     30  H7  non d ame     -12.304  15.579  70.572  0.00  0.00     0.030 H 
ATOM     31  H8  non d ame     -10.948  15.922  71.673  0.00  0.00     0.030 H 
ATOM     32  H9  non d ame     -11.281  17.011  70.304  0.00  0.00     0.030 H 
ENDBRANCH  13  29
ENDBRANCH  10  13
ENDBRANCH   7   9
BRANCH   7  33
ATOM     33  C11 non d ame     -10.826  13.149  65.253  0.00  0.00    -0.033 C 
ATOM     34  H12 non d ame      -9.995  12.467  65.077  0.00  0.00     0.042 H 
BRANCH  33  35
ATOM     35  C12 non d ame     -11.918  12.844  64.181  0.00  0.00    -0.071 C 
ATOM     36  H13 non d ame     -12.864  13.291  64.488  0.00  0.00     0.028 H 
ATOM     37  H14 non d ame     -11.613  13.265  63.223  0.00  0.00     0.028 H 
ATOM     38  H15 non d ame     -12.040  11.766  64.083  0.00  0.00     0.028 H 
ENDBRANCH  33  35
BRANCH  33  39
ATOM     39  C13 non d ame     -10.290  14.610  65.117  0.00  0.00    -0.071 C 
ATOM     40  H16 non d ame     -10.631  15.036  64.174  0.00  0.00     0.028 H 
ATOM     41  H17 non d ame     -10.665  15.213  65.944  0.00  0.00     0.028 H 
ATOM     42  H18 non d ame      -9.201  14.600  65.139  0.00  0.00     0.028 H 
ENDBRANCH  33  39
ENDBRANCH   7  33
ENDBRANCH   4   7
ENDBRANCH   1   3
BRANCH   1  43
ATOM     43  C15 non d ame      -9.302   9.026  68.003  0.00  0.00     0.240 C 
ATOM     44  O5  non d ame      -8.187   9.417  68.132  0.00  0.00    -0.271 OA
ATOM     45  N6  non d ame     -10.007   8.402  69.159  0.00  0.00    -0.355 N 
ATOM     46  H46 non d ame     -10.955   8.070  69.063  0.00  0.00     0.162 HD
BRANCH  45  47
ATOM     47  C20 non d ame      -9.310   8.268  70.456  0.00  0.00     0.013 C 
ATOM     48  H30 non d ame      -8.373   8.822  70.393  0.00  0.00     0.072 H 
BRANCH  47  49
ATOM     49  C21 non d ame      -9.028   6.806  70.723  0.00  0.00    -0.038 C 
ATOM     50  H31 non d ame      -8.043   6.613  70.297  0.00  0.00     0.036 H 
ATOM     51  H32 non d ame      -9.197   6.664  71.791  0.00  0.00     0.036 H 
BRANCH  49  52
ATOM     52  C22 non d ame     -10.011   5.864  69.996  0.00  0.00     0.018 C 
ATOM     53  H33 non d ame     -10.365   5.164  70.753  0.00  0.00     0.048 H 
ATOM     54  H34 non d ame     -10.719   6.515  69.482  0.00  0.00     0.048 H 
BRANCH  52  55
ATOM     55  C23 non d ame      -9.347   4.998  68.890  0.00  0.00     0.259 C 
ATOM     56  O7  non d ame      -9.233   3.823  69.030  0.00  0.00    -0.265 OA
BRANCH  55  57
ATOM     57  O8  non d ame      -8.863   5.626  67.709  0.00  0.00    -0.317 OA
BRANCH  57  58
ATOM     58  C29 non d ame      -7.636   5.078  67.218  0.00  0.00     0.052 C 
ATOM     59  H47 non d ame      -6.844   5.668  67.679  0.00  0.00     0.082 H 
ATOM     60  H48 non d ame      -7.696   4.006  67.405  0.00  0.00     0.082 H 
BRANCH  58  61
ATOM     61  C35 non d ame      -7.590   5.306  65.684  0.00  0.00    -0.034 A 
ATOM     62  C30 non d ame      -6.438   5.813  65.089  0.00  0.00    -0.075 A 
ATOM     63  C31 non d ame      -6.396   6.018  63.711  0.00  0.00    -0.082 A 
ATOM     64  H49 non d ame      -5.569   6.048  65.703  0.00  0.00     0.084 H 
ATOM     65  C32 non d ame      -7.513   5.717  62.927  0.00  0.00    -0.083 A 
ATOM     66  H50 non d ame      -5.492   6.413  63.248  0.00  0.00     0.083 H 
ATOM     67  C33 non d ame      -8.661   5.215  63.525  0.00  0.00    -0.082 A 
ATOM     68  H51 non d ame      -7.489   5.874  61.848  0.00  0.00     0.083 H 
ATOM     69  C34 non d ame      -8.706   5.007  64.901  0.00  0.00    -0.075 A 
ATOM     70  H52 non d ame      -9.531   4.984  62.910  0.00  0.00     0.083 H 
ATOM     71  H53 non d ame      -9.611   4.611  65.364  0.00  0.00     0.084 H 
ENDBRANCH  58  61
ENDBRANCH  57  58
ENDBRANCH  55  57
ENDBRANCH  52  55
ENDBRANCH  49  52
ENDBRANCH  47  49
BRANCH  47  72
ATOM     72  C24 non d ame     -10.185   8.830  71.574  0.00  0.00    -0.039 C 
ATOM     73  H35 non d ame     -10.041   8.159  72.421  0.00  0.00     0.036 H 
ATOM     74  H36 non d ame      -9.908   9.881  71.659  0.00  0.00     0.036 H 
BRANCH  72  75
ATOM     75  C25 non d ame     -11.740   8.781  71.191  0.00  0.00    -0.001 C 
ATOM     76  C26 non d ame     -12.357  10.305  71.158  0.00  0.00    -0.035 C 
ATOM     77  C27 non d ame     -13.476  10.339  71.920  0.00  0.00     0.085 C 
ATOM     78  H38 non d ame     -11.681  10.993  71.665  0.00  0.00     0.036 H 
ATOM     79  H39 non d ame     -12.723  10.539  70.158  0.00  0.00     0.036 H 
ATOM     80  N5  non d ame     -13.496   9.067  72.732  0.00  0.00    -0.049 N 
ATOM     81  H40 non d ame     -13.344  11.188  72.593  0.00  0.00     0.075 H 
ATOM     82  H41 non d ame     -14.308  10.326  71.217  0.00  0.00     0.075 H 
ATOM     83  C28 non d ame     -12.411   8.087  72.048  0.00  0.00     0.193 C 
ATOM     84  H42 non d ame     -13.171   9.311  73.656  0.00  0.00     0.280 HD
ATOM     85  H43 non d ame     -14.415   8.664  72.609  0.00  0.00     0.280 HD
ATOM     86  H44 non d ame     -12.733   7.255  71.420  0.00  0.00     0.129 H 
ATOM     87  H37 non d ame     -11.931   8.150  70.323  0.00  0.00     0.046 H 
BRANCH  83  88
ATOM     88  O6  non d ame     -11.571   7.507  73.048  0.00  0.00    -0.369 OA
ATOM     89  H45 non d ame     -11.287   8.188  73.661  0.00  0.00     0.212 HD
ENDBRANCH  83  88
ENDBRANCH  72  75
ENDBRANCH  47  72
ENDBRANCH  45  47
ENDBRANCH   1  43
BRANCH   1  90
ATOM     90  C16 non d ame      -9.188   8.520  65.543  0.00  0.00    -0.035 C 
ATOM     91  H21 non d ame      -8.415   7.960  66.069  0.00  0.00     0.037 H 
ATOM     92  H22 non d ame      -9.903   7.996  64.909  0.00  0.00     0.037 H 
BRANCH  90  93
ATOM     93  C17 non d ame      -8.445   9.539  64.622  0.00  0.00    -0.059 C 
ATOM     94  H23 non d ame      -8.858  10.528  64.822  0.00  0.00     0.038 H 
BRANCH  93  95
ATOM     95  C18 non d ame      -6.912   9.594  64.920  0.00  0.00    -0.073 C 
ATOM     96  H24 non d ame      -6.709  10.397  65.628  0.00  0.00     0.028 H 
ATOM     97  H25 non d ame      -6.591   8.643  65.345  0.00  0.00     0.028 H 
ATOM     98  H26 non d ame      -6.369   9.780  63.993  0.00  0.00     0.028 H 
ENDBRANCH  93  95
BRANCH  93  99
ATOM     99  C19 non d ame      -8.702   9.230  63.145  0.00  0.00    -0.073 C 
ATOM    100  H27 non d ame      -9.738   9.465  62.899  0.00  0.00     0.028 H 
ATOM    101  H28 non d ame      -8.036   9.832  62.526  0.00  0.00     0.028 H 
ATOM    102  H29 non d ame      -8.515   8.173  62.957  0.00  0.00     0.028 H 
ENDBRANCH  93  99
ENDBRANCH  90  93
ENDBRANCH   1  90
TORSDOF 26
ENDMDL
MODEL 9
REMARK VINA RESULT:      -6.5      2.777      7.550
REMARK  26 active torsions:
REMARK  status: ('A' for Active; 'I' for Inactive)
REMARK    1  A    between atoms: C2_2  and  C3_3 
REMARK    2  A    between atoms: C4_6  and  C5_7 
REMARK       I    between atoms: C5_7  and  N2_9 
REMARK    3  A    between atoms: N2_9  and  C6_10 
REMARK    4  A    between atoms: C6_10  and  C7_11 
REMARK    5  A    between atoms: C6_10  and  C8_13 
REMARK       I    between atoms: C7_11  and  N3_14 
REMARK    6  A    between atoms: N3_14  and  C9_15 
REMARK    7  A    between atoms: C9_15  and  C10_16 
REMARK    8  A    between atoms: C9_15  and  C11_18 
REMARK       I    between atoms: C10_16  and  N4_21 
REMARK    9  A    between atoms: C11_18  and  C12_19 
REMARK   10  A    between atoms: C11_18  and  C13_20 
REMARK   11  A    between atoms: N4_21  and  C14_22 
REMARK   12  A    between atoms: C14_22  and  C15_23 
REMARK   13  A    between atoms: C14_22  and  C16_25 
REMARK       I    between atoms: C15_23  and  N6_40 
REMARK   14  A    between atoms: C16_25  and  C17_26 
REMARK   15  A    between atoms: C17_26  and  C18_27 
REMARK   16  A    between atoms: C17_26  and  C19_28 
REMARK   17  A    between atoms: C20_29  and  C21_30 
REMARK   18  A    between atoms: C20_29  and  C24_33 
REMARK   19  A    between atoms: C20_29  and  N6_40 
REMARK   20  A    between atoms: C21_30  and  C22_31 
REMARK   21  A    between atoms: C22_31  and  C23_32 
REMARK   22  A    between atoms: C23_32  and  O8_43 
REMARK   23  A    between atoms: C24_33  and  C25_34 
REMARK   24  A    between atoms: C28_38  and  O6_39 
REMARK   25  A    between atoms: C29_42  and  O8_43 
REMARK   26  A    between atoms: C29_42  and  C35_49 
ROOT
ATOM      1  C14 non d ame      -6.698  13.440  68.191  0.00  0.00     0.089 C 
ATOM      2  H20 non d ame      -6.030  13.396  67.330  0.00  0.00     0.087 H 
ENDROOT
BRANCH   1   3
ATOM      3  N4  non d ame      -6.983  14.843  68.453  0.00  0.00    -0.346 N 
ATOM      4  C10 non d ame      -6.222  15.924  67.728  0.00  0.00     0.241 C 
ATOM      5  O4  non d ame      -5.382  15.640  66.939  0.00  0.00    -0.271 OA
ATOM      6  H19 non d ame      -7.700  15.063  69.130  0.00  0.00     0.163 HD
BRANCH   4   7
ATOM      7  C9  non d ame      -6.535  17.370  68.008  0.00  0.00     0.092 C 
ATOM      8  H11 non d ame      -6.202  17.978  67.167  0.00  0.00     0.088 H 
BRANCH   7   9
ATOM      9  N3  non d ame      -7.986  17.544  68.121  0.00  0.00    -0.346 N 
ATOM     10  C7  non d ame      -8.786  17.714  66.933  0.00  0.00     0.240 C 
ATOM     11  O3  non d ame      -8.277  17.715  65.878  0.00  0.00    -0.271 OA
ATOM     12  H10 non d ame      -8.438  17.547  69.024  0.00  0.00     0.163 HD
BRANCH  10  13
ATOM     13  C6  non d ame     -10.329  17.902  67.059  0.00  0.00     0.086 C 
ATOM     14  H6  non d ame     -10.883  17.378  66.280  0.00  0.00     0.086 H 
BRANCH  13  15
ATOM     15  N2  non d ame     -10.770  17.345  68.327  0.00  0.00    -0.343 N 
ATOM     16  C5  non d ame     -11.295  15.979  68.372  0.00  0.00     0.273 C 
ATOM     17  O2  non d ame     -11.362  15.337  67.381  0.00  0.00    -0.266 OA
ATOM     18  H5  non d ame     -10.711  17.902  69.168  0.00  0.00     0.163 HD
BRANCH  16  19
ATOM     19  C4  non d ame     -11.762  15.377  69.706  0.00  0.00     0.154 A 
ATOM     20  C1  non d ame     -11.694  15.984  71.000  0.00  0.00    -0.017 A 
ATOM     21  C2  non d ame     -12.248  15.028  71.880  0.00  0.00     0.077 A 
ATOM     22  H1  non d ame     -11.302  16.968  71.260  0.00  0.00     0.091 H 
ATOM     23  O1  non d ame     -12.592  13.997  71.165  0.00  0.00    -0.218 OA
ATOM     24  N1  non d ame     -12.318  14.176  69.894  0.00  0.00    -0.123 NA
BRANCH  21  25
ATOM     25  C3  non d ame     -12.412  15.178  73.387  0.00  0.00    -0.029 C 
ATOM     26  H2  non d ame     -11.787  14.443  73.896  0.00  0.00     0.036 H 
ATOM     27  H3  non d ame     -12.110  16.181  73.687  0.00  0.00     0.036 H 
ATOM     28  H4  non d ame     -13.456  15.016  73.657  0.00  0.00     0.036 H 
ENDBRANCH  21  25
ENDBRANCH  16  19
ENDBRANCH  13  15
BRANCH  13  29
ATOM     29  C8  non d ame     -10.667  19.370  66.994  0.00  0.00    -0.049 C 
ATOM     30  H7  non d ame      -9.996  19.926  67.648  0.00  0.00     0.030 H 
ATOM     31  H8  non d ame     -10.553  19.724  65.970  0.00  0.00     0.030 H 
ATOM     32  H9  non d ame     -11.696  19.520  67.319  0.00  0.00     0.030 H 
ENDBRANCH  13  29
ENDBRANCH  10  13
ENDBRANCH   7   9
BRANCH   7  33
ATOM     33  C11 non d ame      -5.859  17.798  69.344  0.00  0.00    -0.033 C 
ATOM     34  H12 non d ame      -6.242  17.146  70.129  0.00  0.00     0.042 H 
BRANCH  33  35
ATOM     35  C12 non d ame      -4.312  17.603  69.286  0.00  0.00    -0.071 C 
ATOM     36  H13 non d ame      -4.067  16.564  69.510  0.00  0.00     0.028 H 
ATOM     37  H14 non d ame      -3.951  17.853  68.288  0.00  0.00     0.028 H 
ATOM     38  H15 non d ame      -3.836  18.254  70.018  0.00  0.00     0.028 H 
ENDBRANCH  33  35
BRANCH  33  39
ATOM     39  C13 non d ame      -6.231  19.270  69.713  0.00  0.00    -0.071 C 
ATOM     40  H16 non d ame      -7.294  19.431  69.536  0.00  0.00     0.028 H 
ATOM     41  H17 non d ame      -6.006  19.448  70.765  0.00  0.00     0.028 H 
ATOM     42  H18 non d ame      -5.651  19.956  69.096  0.00  0.00     0.028 H 
ENDBRANCH  33  39
ENDBRANCH   7  33
ENDBRANCH   4   7
ENDBRANCH   1   3
BRANCH   1  43
ATOM     43  C15 non d ame      -8.042  12.701  67.930  0.00  0.00     0.240 C 
ATOM     44  O5  non d ame      -9.059  13.164  68.335  0.00  0.00    -0.271 OA
ATOM     45  N6  non d ame      -8.062  11.420  67.168  0.00  0.00    -0.355 N 
ATOM     46  H46 non d ame      -7.205  11.020  66.815  0.00  0.00     0.162 HD
BRANCH  45  47
ATOM     47  C20 non d ame      -9.348  10.731  66.927  0.00  0.00     0.013 C 
ATOM     48  H30 non d ame     -10.151  11.414  67.203  0.00  0.00     0.072 H 
BRANCH  47  49
ATOM     49  C21 non d ame      -9.414   9.484  67.780  0.00  0.00    -0.038 C 
ATOM     50  H31 non d ame      -8.677   9.629  68.571  0.00  0.00     0.036 H 
ATOM     51  H32 non d ame     -10.466   9.356  68.032  0.00  0.00     0.036 H 
BRANCH  49  52
ATOM     52  C22 non d ame      -8.990   8.211  67.015  0.00  0.00     0.018 C 
ATOM     53  H33 non d ame      -8.944   8.499  65.965  0.00  0.00     0.048 H 
ATOM     54  H34 non d ame      -8.094   7.849  67.520  0.00  0.00     0.048 H 
BRANCH  52  55
ATOM     55  C23 non d ame     -10.025   7.056  67.099  0.00  0.00     0.259 C 
ATOM     56  O7  non d ame     -11.191   7.290  67.102  0.00  0.00    -0.265 OA
BRANCH  55  57
ATOM     57  O8  non d ame      -9.566   5.713  67.185  0.00  0.00    -0.317 OA
BRANCH  57  58
ATOM     58  C29 non d ame      -8.451   5.424  66.337  0.00  0.00     0.052 C 
ATOM     59  H47 non d ame      -7.958   6.380  66.161  0.00  0.00     0.082 H 
ATOM     60  H48 non d ame      -7.910   4.614  66.826  0.00  0.00     0.082 H 
BRANCH  58  61
ATOM     61  C35 non d ame      -9.002   4.899  64.984  0.00  0.00    -0.034 A 
ATOM     62  C30 non d ame     -10.080   4.021  64.964  0.00  0.00    -0.075 A 
ATOM     63  C31 non d ame     -10.575   3.550  63.749  0.00  0.00    -0.082 A 
ATOM     64  H49 non d ame     -10.538   3.703  65.901  0.00  0.00     0.084 H 
ATOM     65  C32 non d ame      -9.985   3.958  62.550  0.00  0.00    -0.083 A 
ATOM     66  H50 non d ame     -11.422   2.864  63.737  0.00  0.00     0.083 H 
ATOM     67  C33 non d ame      -8.906   4.832  62.575  0.00  0.00    -0.082 A 
ATOM     68  H51 non d ame     -10.366   3.595  61.596  0.00  0.00     0.083 H 
ATOM     69  C34 non d ame      -8.410   5.307  63.787  0.00  0.00    -0.075 A 
ATOM     70  H52 non d ame      -8.447   5.147  61.637  0.00  0.00     0.083 H 
ATOM     71  H53 non d ame      -7.563   5.994  63.798  0.00  0.00     0.084 H 
ENDBRANCH  58  61
ENDBRANCH  57  58
ENDBRANCH  55  57
ENDBRANCH  52  55
ENDBRANCH  49  52
ENDBRANCH  47  49
BRANCH  47  72
ATOM     72  C24 non d ame      -9.460  10.347  65.453  0.00  0.00    -0.039 C 
ATOM     73  H35 non d ame      -8.443  10.112  65.136  0.00  0.00     0.036 H 
ATOM     74  H36 non d ame     -10.234   9.580  65.411  0.00  0.00     0.036 H 
BRANCH  72  75
ATOM     75  C25 non d ame      -9.962  11.576  64.557  0.00  0.00    -0.001 C 
ATOM     76  C26 non d ame     -11.311  12.239  65.223  0.00  0.00    -0.035 C 
ATOM     77  C27 non d ame     -12.270  12.328  64.270  0.00  0.00     0.085 C 
ATOM     78  H38 non d ame     -11.742  11.556  65.954  0.00  0.00     0.036 H 
ATOM     79  H39 non d ame     -11.123  13.279  65.492  0.00  0.00     0.036 H 
ATOM     80  N5  non d ame     -11.811  11.489  63.102  0.00  0.00    -0.049 N 
ATOM     81  H40 non d ame     -13.159  11.873  64.707  0.00  0.00     0.075 H 
ATOM     82  H41 non d ame     -12.285  13.376  63.970  0.00  0.00     0.075 H 
ATOM     83  C28 non d ame     -10.244  11.194  63.356  0.00  0.00     0.193 C 
ATOM     84  H42 non d ame     -12.316  10.616  63.162  0.00  0.00     0.280 HD
ATOM     85  H43 non d ame     -11.900  12.069  62.280  0.00  0.00     0.280 HD
ATOM     86  H44 non d ame      -9.482  11.732  62.793  0.00  0.00     0.129 H 
ATOM     87  H37 non d ame      -9.151  12.256  64.297  0.00  0.00     0.046 H 
BRANCH  83  88
ATOM     88  O6  non d ame      -9.964   9.808  63.151  0.00  0.00    -0.369 OA
ATOM     89  H45 non d ame      -9.378   9.708  62.397  0.00  0.00     0.212 HD
ENDBRANCH  83  88
ENDBRANCH  72  75
ENDBRANCH  47  72
ENDBRANCH  45  47
ENDBRANCH   1  43
BRANCH   1  90
ATOM     90  C16 non d ame      -6.010  12.838  69.406  0.00  0.00    -0.035 C 
ATOM     91  H21 non d ame      -6.817  12.474  70.043  0.00  0.00     0.037 H 
ATOM     92  H22 non d ame      -5.276  12.139  69.005  0.00  0.00     0.037 H 
BRANCH  90  93
ATOM     93  C17 non d ame      -5.213  13.878  70.254  0.00  0.00    -0.059 C 
ATOM     94  H23 non d ame      -5.559  14.872  69.970  0.00  0.00     0.038 H 
BRANCH  93  95
ATOM     95  C18 non d ame      -5.465  13.706  71.787  0.00  0.00    -0.073 C 
ATOM     96  H24 non d ame      -5.560  12.647  72.022  0.00  0.00     0.028 H 
ATOM     97  H25 non d ame      -4.627  14.128  72.342  0.00  0.00     0.028 H 
ATOM     98  H26 non d ame      -6.383  14.225  72.064  0.00  0.00     0.028 H 
ENDBRANCH  93  95
BRANCH  93  99
ATOM     99  C19 non d ame      -3.717  13.810  69.938  0.00  0.00    -0.073 C 
ATOM    100  H27 non d ame      -3.328  14.819  69.799  0.00  0.00     0.028 H 
ATOM    101  H28 non d ame      -3.192  13.329  70.764  0.00  0.00     0.028 H 
ATOM    102  H29 non d ame      -3.564  13.233  69.026  0.00  0.00     0.028 H 
ENDBRANCH  93  99
ENDBRANCH  90  93
ENDBRANCH   1  90
TORSDOF 26
ENDMDL
MODEL 10
REMARK VINA RESULT:      -6.4      2.943      5.624
REMARK  26 active torsions:
REMARK  status: ('A' for Active; 'I' for Inactive)
REMARK    1  A    between atoms: C2_2  and  C3_3 
REMARK    2  A    between atoms: C4_6  and  C5_7 
REMARK       I    between atoms: C5_7  and  N2_9 
REMARK    3  A    between atoms: N2_9  and  C6_10 
REMARK    4  A    between atoms: C6_10  and  C7_11 
REMARK    5  A    between atoms: C6_10  and  C8_13 
REMARK       I    between atoms: C7_11  and  N3_14 
REMARK    6  A    between atoms: N3_14  and  C9_15 
REMARK    7  A    between atoms: C9_15  and  C10_16 
REMARK    8  A    between atoms: C9_15  and  C11_18 
REMARK       I    between atoms: C10_16  and  N4_21 
REMARK    9  A    between atoms: C11_18  and  C12_19 
REMARK   10  A    between atoms: C11_18  and  C13_20 
REMARK   11  A    between atoms: N4_21  and  C14_22 
REMARK   12  A    between atoms: C14_22  and  C15_23 
REMARK   13  A    between atoms: C14_22  and  C16_25 
REMARK       I    between atoms: C15_23  and  N6_40 
REMARK   14  A    between atoms: C16_25  and  C17_26 
REMARK   15  A    between atoms: C17_26  and  C18_27 
REMARK   16  A    between atoms: C17_26  and  C19_28 
REMARK   17  A    between atoms: C20_29  and  C21_30 
REMARK   18  A    between atoms: C20_29  and  C24_33 
REMARK   19  A    between atoms: C20_29  and  N6_40 
REMARK   20  A    between atoms: C21_30  and  C22_31 
REMARK   21  A    between atoms: C22_31  and  C23_32 
REMARK   22  A    between atoms: C23_32  and  O8_43 
REMARK   23  A    between atoms: C24_33  and  C25_34 
REMARK   24  A    between atoms: C28_38  and  O6_39 
REMARK   25  A    between atoms: C29_42  and  O8_43 
REMARK   26  A    between atoms: C29_42  and  C35_49 
ROOT
ATOM      1  C14 non d ame     -12.183  14.283  70.056  0.00  0.00     0.089 C 
ATOM      2  H20 non d ame     -13.231  14.000  69.955  0.00  0.00     0.087 H 
ENDROOT
BRANCH   1   3
ATOM      3  N4  non d ame     -11.386  13.073  69.915  0.00  0.00    -0.346 N 
ATOM      4  C10 non d ame     -11.952  11.737  70.325  0.00  0.00     0.241 C 
ATOM      5  O4  non d ame     -13.050  11.660  70.769  0.00  0.00    -0.271 OA
ATOM      6  H19 non d ame     -10.453  13.160  69.538  0.00  0.00     0.163 HD
BRANCH   4   7
ATOM      7  C9  non d ame     -11.115  10.494  70.167  0.00  0.00     0.092 C 
ATOM      8  H11 non d ame     -10.409  10.430  70.995  0.00  0.00     0.088 H 
BRANCH   7   9
ATOM      9  N3  non d ame     -11.978   9.311  70.239  0.00  0.00    -0.346 N 
ATOM     10  C7  non d ame     -11.891   8.425  71.374  0.00  0.00     0.240 C 
ATOM     11  O3  non d ame     -11.132   8.649  72.237  0.00  0.00    -0.271 OA
ATOM     12  H10 non d ame     -12.636   9.105  69.502  0.00  0.00     0.163 HD
BRANCH  10  13
ATOM     13  C6  non d ame     -12.810   7.166  71.445  0.00  0.00     0.086 C 
ATOM     14  H6  non d ame     -12.783   6.574  70.530  0.00  0.00     0.086 H 
BRANCH  13  15
ATOM     15  N2  non d ame     -12.342   6.301  72.515  0.00  0.00    -0.343 N 
ATOM     16  C5  non d ame     -11.302   5.307  72.236  0.00  0.00     0.273 C 
ATOM     17  O2  non d ame     -10.851   5.210  71.148  0.00  0.00    -0.266 OA
ATOM     18  H5  non d ame     -12.735   6.388  73.441  0.00  0.00     0.163 HD
BRANCH  16  19
ATOM     19  C4  non d ame     -10.797   4.387  73.358  0.00  0.00     0.154 A 
ATOM     20  C1  non d ame     -10.189   3.100  73.213  0.00  0.00    -0.017 A 
ATOM     21  C2  non d ame      -9.911   2.677  74.532  0.00  0.00     0.077 A 
ATOM     22  H1  non d ame      -9.981   2.555  72.291  0.00  0.00     0.091 H 
ATOM     23  O1  non d ame     -10.315   3.619  75.333  0.00  0.00    -0.218 OA
ATOM     24  N1  non d ame     -10.836   4.627  74.672  0.00  0.00    -0.123 NA
BRANCH  21  25
ATOM     25  C3  non d ame      -9.258   1.363  74.939  0.00  0.00    -0.029 C 
ATOM     26  H2  non d ame      -9.087   1.360  76.016  0.00  0.00     0.036 H 
ATOM     27  H3  non d ame      -9.913   0.534  74.672  0.00  0.00     0.036 H 
ATOM     28  H4  non d ame      -8.305   1.254  74.420  0.00  0.00     0.036 H 
ENDBRANCH  21  25
ENDBRANCH  16  19
ENDBRANCH  13  15
BRANCH  13  29
ATOM     29  C8  non d ame     -14.231   7.592  71.709  0.00  0.00    -0.049 C 
ATOM     30  H7  non d ame     -14.247   8.326  72.515  0.00  0.00     0.030 H 
ATOM     31  H8  non d ame     -14.652   8.034  70.806  0.00  0.00     0.030 H 
ATOM     32  H9  non d ame     -14.823   6.723  71.998  0.00  0.00     0.030 H 
ENDBRANCH  13  29
ENDBRANCH  10  13
ENDBRANCH   7   9
BRANCH   7  33
ATOM     33  C11 non d ame     -10.397  10.525  68.786  0.00  0.00    -0.033 C 
ATOM     34  H12 non d ame      -9.702  11.365  68.795  0.00  0.00     0.042 H 
BRANCH  33  35
ATOM     35  C12 non d ame      -9.562   9.228  68.550  0.00  0.00    -0.071 C 
ATOM     36  H13 non d ame      -9.433   8.702  69.496  0.00  0.00     0.028 H 
ATOM     37  H14 non d ame     -10.085   8.583  67.845  0.00  0.00     0.028 H 
ATOM     38  H15 non d ame      -8.585   9.494  68.146  0.00  0.00     0.028 H 
ENDBRANCH  33  35
BRANCH  33  39
ATOM     39  C13 non d ame     -11.420  10.758  67.628  0.00  0.00    -0.071 C 
ATOM     40  H16 non d ame     -11.202  10.075  66.808  0.00  0.00     0.028 H 
ATOM     41  H17 non d ame     -12.431  10.575  67.994  0.00  0.00     0.028 H 
ATOM     42  H18 non d ame     -11.342  11.786  67.276  0.00  0.00     0.028 H 
ENDBRANCH  33  39
ENDBRANCH   7  33
ENDBRANCH   4   7
ENDBRANCH   1   3
BRANCH   1  43
ATOM     43  C15 non d ame     -11.741  15.298  68.964  0.00  0.00     0.240 C 
ATOM     44  O5  non d ame     -11.999  16.451  69.089  0.00  0.00    -0.271 OA
ATOM     45  N6  non d ame     -10.987  14.833  67.764  0.00  0.00    -0.355 N 
ATOM     46  H46 non d ame     -10.758  13.856  67.649  0.00  0.00     0.162 HD
BRANCH  45  47
ATOM     47  C20 non d ame     -10.573  15.811  66.735  0.00  0.00     0.013 C 
ATOM     48  H30 non d ame     -11.323  16.600  66.701  0.00  0.00     0.072 H 
BRANCH  47  49
ATOM     49  C21 non d ame     -10.489  15.118  65.393  0.00  0.00    -0.038 C 
ATOM     50  H31 non d ame     -10.425  15.917  64.653  0.00  0.00     0.036 H 
ATOM     51  H32 non d ame      -9.681  14.393  65.486  0.00  0.00     0.036 H 
BRANCH  49  52
ATOM     52  C22 non d ame     -11.762  14.312  65.055  0.00  0.00     0.018 C 
ATOM     53  H33 non d ame     -12.106  13.893  66.001  0.00  0.00     0.048 H 
ATOM     54  H34 non d ame     -12.404  14.994  64.496  0.00  0.00     0.048 H 
BRANCH  52  55
ATOM     55  C23 non d ame     -11.505  13.100  64.117  0.00  0.00     0.259 C 
ATOM     56  O7  non d ame     -12.345  12.734  63.361  0.00  0.00    -0.265 OA
BRANCH  55  57
ATOM     57  O8  non d ame     -10.256  12.423  64.181  0.00  0.00    -0.317 OA
BRANCH  57  58
ATOM     58  C29 non d ame     -10.369  11.005  64.335  0.00  0.00     0.052 C 
ATOM     59  H47 non d ame     -10.081  10.796  65.365  0.00  0.00     0.082 H 
ATOM     60  H48 non d ame     -11.370  10.750  63.987  0.00  0.00     0.082 H 
BRANCH  58  61
ATOM     61  C35 non d ame      -9.335  10.336  63.390  0.00  0.00    -0.034 A 
ATOM     62  C30 non d ame      -8.952   9.016  63.600  0.00  0.00    -0.075 A 
ATOM     63  C31 non d ame      -8.023   8.415  62.752  0.00  0.00    -0.082 A 
ATOM     64  H49 non d ame      -9.379   8.452  64.429  0.00  0.00     0.084 H 
ATOM     65  C32 non d ame      -7.475   9.141  61.691  0.00  0.00    -0.083 A 
ATOM     66  H50 non d ame      -7.726   7.379  62.918  0.00  0.00     0.083 H 
ATOM     67  C33 non d ame      -7.858  10.460  61.487  0.00  0.00    -0.082 A 
ATOM     68  H51 non d ame      -6.749   8.679  61.023  0.00  0.00     0.083 H 
ATOM     69  C34 non d ame      -8.788  11.063  62.331  0.00  0.00    -0.075 A 
ATOM     70  H52 non d ame      -7.427  11.024  60.660  0.00  0.00     0.083 H 
ATOM     71  H53 non d ame      -9.085  12.099  62.164  0.00  0.00     0.084 H 
ENDBRANCH  58  61
ENDBRANCH  57  58
ENDBRANCH  55  57
ENDBRANCH  52  55
ENDBRANCH  49  52
ENDBRANCH  47  49
BRANCH  47  72
ATOM     72  C24 non d ame      -9.207  16.391  67.095  0.00  0.00    -0.039 C 
ATOM     73  H35 non d ame      -9.184  16.426  68.184  0.00  0.00     0.036 H 
ATOM     74  H36 non d ame      -8.481  15.783  66.554  0.00  0.00     0.036 H 
BRANCH  72  75
ATOM     75  C25 non d ame      -9.045  17.896  66.570  0.00  0.00    -0.001 C 
ATOM     76  C26 non d ame      -7.525  18.127  65.988  0.00  0.00    -0.035 C 
ATOM     77  C27 non d ame      -6.999  19.233  66.567  0.00  0.00     0.085 C 
ATOM     78  H38 non d ame      -6.869  17.325  66.328  0.00  0.00     0.036 H 
ATOM     79  H39 non d ame      -7.565  18.387  64.930  0.00  0.00     0.036 H 
ATOM     80  N5  non d ame      -7.893  19.590  67.730  0.00  0.00    -0.049 N 
ATOM     81  H40 non d ame      -6.024  18.926  66.949  0.00  0.00     0.075 H 
ATOM     82  H41 non d ame      -7.067  20.016  65.813  0.00  0.00     0.075 H 
ATOM     83  C28 non d ame      -9.254  18.747  67.519  0.00  0.00     0.193 C 
ATOM     84  H42 non d ame      -7.431  19.251  68.561  0.00  0.00     0.280 HD
ATOM     85  H43 non d ame      -8.106  20.573  67.635  0.00  0.00     0.280 HD
ATOM     86  H44 non d ame     -10.157  19.236  67.152  0.00  0.00     0.129 H 
ATOM     87  H37 non d ame      -9.873  18.201  65.929  0.00  0.00     0.046 H 
BRANCH  83  88
ATOM     88  O6  non d ame      -9.633  18.110  68.740  0.00  0.00    -0.369 OA
ATOM     89  H45 non d ame      -9.091  17.330  68.876  0.00  0.00     0.212 HD
ENDBRANCH  83  88
ENDBRANCH  72  75
ENDBRANCH  47  72
ENDBRANCH  45  47
ENDBRANCH   1  43
BRANCH   1  90
ATOM     90  C16 non d ame     -11.942  14.878  71.434  0.00  0.00    -0.035 C 
ATOM     91  H21 non d ame     -11.701  14.031  72.077  0.00  0.00     0.037 H 
ATOM     92  H22 non d ame     -11.210  15.671  71.282  0.00  0.00     0.037 H 
BRANCH  90  93
ATOM     93  C17 non d ame     -13.205  15.556  72.054  0.00  0.00    -0.059 C 
ATOM     94  H23 non d ame     -13.319  16.534  71.585  0.00  0.00     0.038 H 
BRANCH  93  95
ATOM     95  C18 non d ame     -14.508  14.740  71.777  0.00  0.00    -0.073 C 
ATOM     96  H24 non d ame     -15.375  15.323  72.087  0.00  0.00     0.028 H 
ATOM     97  H25 non d ame     -14.580  14.521  70.711  0.00  0.00     0.028 H 
ATOM     98  H26 non d ame     -14.478  13.806  72.338  0.00  0.00     0.028 H 
ENDBRANCH  93  95
BRANCH  93  99
ATOM     99  C19 non d ame     -13.019  15.791  73.555  0.00  0.00    -0.073 C 
ATOM    100  H27 non d ame     -12.306  15.067  73.951  0.00  0.00     0.028 H 
ATOM    101  H28 non d ame     -12.641  16.800  73.721  0.00  0.00     0.028 H 
ATOM    102  H29 non d ame     -13.976  15.674  74.063  0.00  0.00     0.028 H 
ENDBRANCH  93  99
ENDBRANCH  90  93
ENDBRANCH   1  90
TORSDOF 26
ENDMDL
MODEL 11
REMARK VINA RESULT:      -6.4      1.843      2.897
REMARK  26 active torsions:
REMARK  status: ('A' for Active; 'I' for Inactive)
REMARK    1  A    between atoms: C2_2  and  C3_3 
REMARK    2  A    between atoms: C4_6  and  C5_7 
REMARK       I    between atoms: C5_7  and  N2_9 
REMARK    3  A    between atoms: N2_9  and  C6_10 
REMARK    4  A    between atoms: C6_10  and  C7_11 
REMARK    5  A    between atoms: C6_10  and  C8_13 
REMARK       I    between atoms: C7_11  and  N3_14 
REMARK    6  A    between atoms: N3_14  and  C9_15 
REMARK    7  A    between atoms: C9_15  and  C10_16 
REMARK    8  A    between atoms: C9_15  and  C11_18 
REMARK       I    between atoms: C10_16  and  N4_21 
REMARK    9  A    between atoms: C11_18  and  C12_19 
REMARK   10  A    between atoms: C11_18  and  C13_20 
REMARK   11  A    between atoms: N4_21  and  C14_22 
REMARK   12  A    between atoms: C14_22  and  C15_23 
REMARK   13  A    between atoms: C14_22  and  C16_25 
REMARK       I    between atoms: C15_23  and  N6_40 
REMARK   14  A    between atoms: C16_25  and  C17_26 
REMARK   15  A    between atoms: C17_26  and  C18_27 
REMARK   16  A    between atoms: C17_26  and  C19_28 
REMARK   17  A    between atoms: C20_29  and  C21_30 
REMARK   18  A    between atoms: C20_29  and  C24_33 
REMARK   19  A    between atoms: C20_29  and  N6_40 
REMARK   20  A    between atoms: C21_30  and  C22_31 
REMARK   21  A    between atoms: C22_31  and  C23_32 
REMARK   22  A    between atoms: C23_32  and  O8_43 
REMARK   23  A    between atoms: C24_33  and  C25_34 
REMARK   24  A    between atoms: C28_38  and  O6_39 
REMARK   25  A    between atoms: C29_42  and  O8_43 
REMARK   26  A    between atoms: C29_42  and  C35_49 
ROOT
ATOM      1  C14 non d ame     -12.176  14.408  70.764  0.00  0.00     0.089 C 
ATOM      2  H20 non d ame     -13.252  14.497  70.612  0.00  0.00     0.087 H 
ENDROOT
BRANCH   1   3
ATOM      3  N4  non d ame     -11.793  13.052  70.399  0.00  0.00    -0.346 N 
ATOM      4  C10 non d ame     -12.490  11.869  71.024  0.00  0.00     0.241 C 
ATOM      5  O4  non d ame     -13.355  12.034  71.820  0.00  0.00    -0.271 OA
ATOM      6  H19 non d ame     -11.054  12.933  69.721  0.00  0.00     0.163 HD
BRANCH   4   7
ATOM      7  C9  non d ame     -12.085  10.473  70.631  0.00  0.00     0.092 C 
ATOM      8  H11 non d ame     -12.657  10.168  69.754  0.00  0.00     0.088 H 
BRANCH   7   9
ATOM      9  N3  non d ame     -10.670  10.463  70.250  0.00  0.00    -0.346 N 
ATOM     10  C7  non d ame     -10.247   9.756  69.067  0.00  0.00     0.240 C 
ATOM     11  O3  non d ame     -11.032   9.188  68.410  0.00  0.00    -0.271 OA
ATOM     12  H10 non d ame      -9.981  10.947  70.808  0.00  0.00     0.163 HD
BRANCH  10  13
ATOM     13  C6  non d ame      -8.738   9.746  68.669  0.00  0.00     0.086 C 
ATOM     14  H6  non d ame      -8.513  10.433  67.853  0.00  0.00     0.086 H 
BRANCH  13  15
ATOM     15  N2  non d ame      -7.947  10.181  69.808  0.00  0.00    -0.343 N 
ATOM     16  C5  non d ame      -6.703  10.921  69.583  0.00  0.00     0.273 C 
ATOM     17  O2  non d ame      -6.346  11.159  68.482  0.00  0.00    -0.266 OA
ATOM     18  H5  non d ame      -8.258   9.972  70.746  0.00  0.00     0.163 HD
BRANCH  16  19
ATOM     19  C4  non d ame      -5.858  11.388  70.778  0.00  0.00     0.154 A 
ATOM     20  C1  non d ame      -5.181  12.641  70.922  0.00  0.00    -0.017 A 
ATOM     21  C2  non d ame      -4.557  12.574  72.187  0.00  0.00     0.077 A 
ATOM     22  H1  non d ame      -5.148  13.471  70.216  0.00  0.00     0.091 H 
ATOM     23  O1  non d ame      -4.849  11.416  72.702  0.00  0.00    -0.218 OA
ATOM     24  N1  non d ame      -5.607  10.706  71.899  0.00  0.00    -0.123 NA
BRANCH  21  25
ATOM     25  C3  non d ame      -3.702  13.659  72.829  0.00  0.00    -0.029 C 
ATOM     26  H2  non d ame      -3.212  14.244  72.051  0.00  0.00     0.036 H 
ATOM     27  H3  non d ame      -4.335  14.311  73.431  0.00  0.00     0.036 H 
ATOM     28  H4  non d ame      -2.947  13.197  73.466  0.00  0.00     0.036 H 
ENDBRANCH  21  25
ENDBRANCH  16  19
ENDBRANCH  13  15
BRANCH  13  29
ATOM     29  C8  non d ame      -8.332   8.353  68.260  0.00  0.00    -0.049 C 
ATOM     30  H7  non d ame      -9.216   7.788  67.967  0.00  0.00     0.030 H 
ATOM     31  H8  non d ame      -7.640   8.409  67.419  0.00  0.00     0.030 H 
ATOM     32  H9  non d ame      -7.845   7.856  69.099  0.00  0.00     0.030 H 
ENDBRANCH  13  29
ENDBRANCH  10  13
ENDBRANCH   7   9
BRANCH   7  33
ATOM     33  C11 non d ame     -12.303   9.511  71.835  0.00  0.00    -0.033 C 
ATOM     34  H12 non d ame     -12.536  10.123  72.707  0.00  0.00     0.042 H 
BRANCH  33  35
ATOM     35  C12 non d ame     -13.516   8.560  71.592  0.00  0.00    -0.071 C 
ATOM     36  H13 non d ame     -13.461   7.718  72.282  0.00  0.00     0.028 H 
ATOM     37  H14 non d ame     -14.444   9.106  71.759  0.00  0.00     0.028 H 
ATOM     38  H15 non d ame     -13.489   8.193  70.567  0.00  0.00     0.028 H 
ENDBRANCH  33  35
BRANCH  33  39
ATOM     39  C13 non d ame     -11.003   8.703  72.147  0.00  0.00    -0.071 C 
ATOM     40  H16 non d ame     -10.146   9.203  71.696  0.00  0.00     0.028 H 
ATOM     41  H17 non d ame     -10.861   8.644  73.227  0.00  0.00     0.028 H 
ATOM     42  H18 non d ame     -11.094   7.697  71.738  0.00  0.00     0.028 H 
ENDBRANCH  33  39
ENDBRANCH   7  33
ENDBRANCH   4   7
ENDBRANCH   1   3
BRANCH   1  43
ATOM     43  C15 non d ame     -11.374  15.404  69.878  0.00  0.00     0.240 C 
ATOM     44  O5  non d ame     -11.517  16.574  70.026  0.00  0.00    -0.271 OA
ATOM     45  N6  non d ame     -10.420  14.898  68.850  0.00  0.00    -0.355 N 
ATOM     46  H46 non d ame     -10.286  13.906  68.718  0.00  0.00     0.162 HD
BRANCH  45  47
ATOM     47  C20 non d ame      -9.664  15.858  68.017  0.00  0.00     0.013 C 
ATOM     48  H30 non d ame      -9.400  16.710  68.643  0.00  0.00     0.072 H 
BRANCH  47  49
ATOM     49  C21 non d ame     -10.532  16.312  66.865  0.00  0.00    -0.038 C 
ATOM     50  H31 non d ame     -11.560  16.154  67.191  0.00  0.00     0.036 H 
ATOM     51  H32 non d ame     -10.187  17.316  66.615  0.00  0.00     0.036 H 
BRANCH  49  52
ATOM     52  C22 non d ame     -10.340  15.455  65.595  0.00  0.00     0.018 C 
ATOM     53  H33 non d ame      -9.435  15.833  65.118  0.00  0.00     0.048 H 
ATOM     54  H34 non d ame     -10.386  14.418  65.929  0.00  0.00     0.048 H 
BRANCH  52  55
ATOM     55  C23 non d ame     -11.477  15.620  64.550  0.00  0.00     0.259 C 
ATOM     56  O7  non d ame     -11.610  16.642  63.959  0.00  0.00    -0.265 OA
BRANCH  55  57
ATOM     57  O8  non d ame     -12.370  14.537  64.315  0.00  0.00    -0.317 OA
BRANCH  57  58
ATOM     58  C29 non d ame     -12.378  13.553  65.353  0.00  0.00     0.052 C 
ATOM     59  H47 non d ame     -11.956  14.046  66.229  0.00  0.00     0.082 H 
ATOM     60  H48 non d ame     -13.396  13.165  65.384  0.00  0.00     0.082 H 
BRANCH  58  61
ATOM     61  C35 non d ame     -11.426  12.403  64.930  0.00  0.00    -0.034 A 
ATOM     62  C30 non d ame     -10.711  11.700  65.894  0.00  0.00    -0.075 A 
ATOM     63  C31 non d ame      -9.856  10.667  65.514  0.00  0.00    -0.082 A 
ATOM     64  H49 non d ame     -10.821  11.959  66.947  0.00  0.00     0.084 H 
ATOM     65  C32 non d ame      -9.715  10.339  64.163  0.00  0.00    -0.083 A 
ATOM     66  H50 non d ame      -9.298  10.117  66.273  0.00  0.00     0.083 H 
ATOM     67  C33 non d ame     -10.428  11.045  63.204  0.00  0.00    -0.082 A 
ATOM     68  H51 non d ame      -9.049   9.532  63.858  0.00  0.00     0.083 H 
ATOM     69  C34 non d ame     -11.286  12.077  63.580  0.00  0.00    -0.075 A 
ATOM     70  H52 non d ame     -10.315  10.788  62.151  0.00  0.00     0.083 H 
ATOM     71  H53 non d ame     -11.844  12.626  62.821  0.00  0.00     0.084 H 
ENDBRANCH  58  61
ENDBRANCH  57  58
ENDBRANCH  55  57
ENDBRANCH  52  55
ENDBRANCH  49  52
ENDBRANCH  47  49
BRANCH  47  72
ATOM     72  C24 non d ame      -8.404  15.189  67.473  0.00  0.00    -0.039 C 
ATOM     73  H35 non d ame      -8.646  14.128  67.401  0.00  0.00     0.036 H 
ATOM     74  H36 non d ame      -8.142  15.749  66.575  0.00  0.00     0.036 H 
BRANCH  72  75
ATOM     75  C25 non d ame      -7.174  15.325  68.490  0.00  0.00    -0.001 C 
ATOM     76  C26 non d ame      -6.672  16.889  68.556  0.00  0.00    -0.035 C 
ATOM     77  C27 non d ame      -5.333  16.927  68.353  0.00  0.00     0.085 C 
ATOM     78  H38 non d ame      -7.073  17.446  67.710  0.00  0.00     0.036 H 
ATOM     79  H39 non d ame      -6.787  17.277  69.568  0.00  0.00     0.036 H 
ATOM     80  N5  non d ame      -4.927  15.569  67.832  0.00  0.00    -0.049 N 
ATOM     81  H40 non d ame      -5.177  17.670  67.570  0.00  0.00     0.075 H 
ATOM     82  H41 non d ame      -4.893  17.074  69.339  0.00  0.00     0.075 H 
ATOM     83  C28 non d ame      -6.178  14.590  68.121  0.00  0.00     0.193 C 
ATOM     84  H42 non d ame      -4.820  15.667  66.832  0.00  0.00     0.280 HD
ATOM     85  H43 non d ame      -4.146  15.267  68.396  0.00  0.00     0.280 HD
ATOM     86  H44 non d ame      -6.143  13.876  68.943  0.00  0.00     0.129 H 
ATOM     87  H37 non d ame      -7.367  14.826  69.440  0.00  0.00     0.046 H 
BRANCH  83  88
ATOM     88  O6  non d ame      -6.480  13.819  66.957  0.00  0.00    -0.369 OA
ATOM     89  H45 non d ame      -7.421  13.866  66.777  0.00  0.00     0.212 HD
ENDBRANCH  83  88
ENDBRANCH  72  75
ENDBRANCH  47  72
ENDBRANCH  45  47
ENDBRANCH   1  43
BRANCH   1  90
ATOM     90  C16 non d ame     -11.841  14.641  72.228  0.00  0.00    -0.035 C 
ATOM     91  H21 non d ame     -11.503  13.675  72.604  0.00  0.00     0.037 H 
ATOM     92  H22 non d ame     -11.164  15.496  72.236  0.00  0.00     0.037 H 
BRANCH  90  93
ATOM     93  C17 non d ame     -13.074  15.046  73.096  0.00  0.00    -0.059 C 
ATOM     94  H23 non d ame     -13.419  14.154  73.618  0.00  0.00     0.038 H 
BRANCH  93  95
ATOM     95  C18 non d ame     -12.709  16.117  74.174  0.00  0.00    -0.073 C 
ATOM     96  H24 non d ame     -12.583  15.630  75.141  0.00  0.00     0.028 H 
ATOM     97  H25 non d ame     -11.780  16.614  73.893  0.00  0.00     0.028 H 
ATOM     98  H26 non d ame     -13.510  16.854  74.240  0.00  0.00     0.028 H 
ENDBRANCH  93  95
BRANCH  93  99
ATOM     99  C19 non d ame     -14.227  15.532  72.215  0.00  0.00    -0.073 C 
ATOM    100  H27 non d ame     -14.853  16.222  72.782  0.00  0.00     0.028 H 
ATOM    101  H28 non d ame     -13.825  16.044  71.340  0.00  0.00     0.028 H 
ATOM    102  H29 non d ame     -14.824  14.679  71.894  0.00  0.00     0.028 H 
ENDBRANCH  93  99
ENDBRANCH  90  93
ENDBRANCH   1  90
TORSDOF 26
ENDMDL
MODEL 12
REMARK VINA RESULT:      -6.4      2.009      8.174
REMARK  26 active torsions:
REMARK  status: ('A' for Active; 'I' for Inactive)
REMARK    1  A    between atoms: C2_2  and  C3_3 
REMARK    2  A    between atoms: C4_6  and  C5_7 
REMARK       I    between atoms: C5_7  and  N2_9 
REMARK    3  A    between atoms: N2_9  and  C6_10 
REMARK    4  A    between atoms: C6_10  and  C7_11 
REMARK    5  A    between atoms: C6_10  and  C8_13 
REMARK       I    between atoms: C7_11  and  N3_14 
REMARK    6  A    between atoms: N3_14  and  C9_15 
REMARK    7  A    between atoms: C9_15  and  C10_16 
REMARK    8  A    between atoms: C9_15  and  C11_18 
REMARK       I    between atoms: C10_16  and  N4_21 
REMARK    9  A    between atoms: C11_18  and  C12_19 
REMARK   10  A    between atoms: C11_18  and  C13_20 
REMARK   11  A    between atoms: N4_21  and  C14_22 
REMARK   12  A    between atoms: C14_22  and  C15_23 
REMARK   13  A    between atoms: C14_22  and  C16_25 
REMARK       I    between atoms: C15_23  and  N6_40 
REMARK   14  A    between atoms: C16_25  and  C17_26 
REMARK   15  A    between atoms: C17_26  and  C18_27 
REMARK   16  A    between atoms: C17_26  and  C19_28 
REMARK   17  A    between atoms: C20_29  and  C21_30 
REMARK   18  A    between atoms: C20_29  and  C24_33 
REMARK   19  A    between atoms: C20_29  and  N6_40 
REMARK   20  A    between atoms: C21_30  and  C22_31 
REMARK   21  A    between atoms: C22_31  and  C23_32 
REMARK   22  A    between atoms: C23_32  and  O8_43 
REMARK   23  A    between atoms: C24_33  and  C25_34 
REMARK   24  A    between atoms: C28_38  and  O6_39 
REMARK   25  A    between atoms: C29_42  and  O8_43 
REMARK   26  A    between atoms: C29_42  and  C35_49 
ROOT
ATOM      1  C14 non d ame      -6.716  13.499  67.847  0.00  0.00     0.089 C 
ATOM      2  H20 non d ame      -6.059  13.444  66.979  0.00  0.00     0.087 H 
ENDROOT
BRANCH   1   3
ATOM      3  N4  non d ame      -7.048  14.901  68.057  0.00  0.00    -0.346 N 
ATOM      4  C10 non d ame      -6.092  15.983  67.625  0.00  0.00     0.241 C 
ATOM      5  O4  non d ame      -5.058  15.702  67.113  0.00  0.00    -0.271 OA
ATOM      6  H19 non d ame      -7.931  15.119  68.497  0.00  0.00     0.163 HD
BRANCH   4   7
ATOM      7  C9  non d ame      -6.454  17.428  67.845  0.00  0.00     0.092 C 
ATOM      8  H11 non d ame      -6.186  18.004  66.960  0.00  0.00     0.088 H 
BRANCH   7   9
ATOM      9  N3  non d ame      -7.905  17.548  68.017  0.00  0.00    -0.346 N 
ATOM     10  C7  non d ame      -8.744  17.835  66.879  0.00  0.00     0.240 C 
ATOM     11  O3  non d ame      -8.268  17.974  65.818  0.00  0.00    -0.271 OA
ATOM     12  H10 non d ame      -8.330  17.432  68.925  0.00  0.00     0.163 HD
BRANCH  10  13
ATOM     13  C6  non d ame     -10.287  17.964  67.068  0.00  0.00     0.086 C 
ATOM     14  H6  non d ame     -10.852  17.422  66.309  0.00  0.00     0.086 H 
BRANCH  13  15
ATOM     15  N2  non d ame     -10.655  17.388  68.350  0.00  0.00    -0.343 N 
ATOM     16  C5  non d ame     -11.200  16.029  68.401  0.00  0.00     0.273 C 
ATOM     17  O2  non d ame     -11.341  15.409  67.405  0.00  0.00    -0.266 OA
ATOM     18  H5  non d ame     -10.533  17.925  69.197  0.00  0.00     0.163 HD
BRANCH  16  19
ATOM     19  C4  non d ame     -11.591  15.407  69.751  0.00  0.00     0.154 A 
ATOM     20  C1  non d ame     -11.647  16.062  71.021  0.00  0.00    -0.017 A 
ATOM     21  C2  non d ame     -12.058  15.060  71.929  0.00  0.00     0.077 A 
ATOM     22  H1  non d ame     -11.424  17.104  71.250  0.00  0.00     0.091 H 
ATOM     23  O1  non d ame     -12.217  13.963  71.249  0.00  0.00    -0.218 OA
ATOM     24  N1  non d ame     -11.951  14.140  69.976  0.00  0.00    -0.123 NA
BRANCH  21  25
ATOM     25  C3  non d ame     -12.274  15.235  73.427  0.00  0.00    -0.029 C 
ATOM     26  H2  non d ame     -13.241  15.707  73.602  0.00  0.00     0.036 H 
ATOM     27  H3  non d ame     -12.253  14.259  73.913  0.00  0.00     0.036 H 
ATOM     28  H4  non d ame     -11.483  15.863  73.838  0.00  0.00     0.036 H 
ENDBRANCH  21  25
ENDBRANCH  16  19
ENDBRANCH  13  15
BRANCH  13  29
ATOM     29  C8  non d ame     -10.682  19.418  67.023  0.00  0.00    -0.049 C 
ATOM     30  H7  non d ame     -10.804  19.730  65.985  0.00  0.00     0.030 H 
ATOM     31  H8  non d ame     -11.622  19.556  67.557  0.00  0.00     0.030 H 
ATOM     32  H9  non d ame      -9.905  20.020  67.493  0.00  0.00     0.030 H 
ENDBRANCH  13  29
ENDBRANCH  10  13
ENDBRANCH   7   9
BRANCH   7  33
ATOM     33  C11 non d ame      -5.739  17.954  69.124  0.00  0.00    -0.033 C 
ATOM     34  H12 non d ame      -6.388  18.701  69.580  0.00  0.00     0.042 H 
BRANCH  33  35
ATOM     35  C12 non d ame      -5.531  16.813  70.169  0.00  0.00    -0.071 C 
ATOM     36  H13 non d ame      -4.886  16.044  69.743  0.00  0.00     0.028 H 
ATOM     37  H14 non d ame      -5.066  17.222  71.065  0.00  0.00     0.028 H 
ATOM     38  H15 non d ame      -6.496  16.376  70.426  0.00  0.00     0.028 H 
ENDBRANCH  33  35
BRANCH  33  39
ATOM     39  C13 non d ame      -4.385  18.645  68.764  0.00  0.00    -0.071 C 
ATOM     40  H16 non d ame      -3.603  18.284  69.432  0.00  0.00     0.028 H 
ATOM     41  H17 non d ame      -4.119  18.408  67.733  0.00  0.00     0.028 H 
ATOM     42  H18 non d ame      -4.488  19.724  68.874  0.00  0.00     0.028 H 
ENDBRANCH  33  39
ENDBRANCH   7  33
ENDBRANCH   4   7
ENDBRANCH   1   3
BRANCH   1  43
ATOM     43  C15 non d ame      -8.036  12.704  67.636  0.00  0.00     0.240 C 
ATOM     44  O5  non d ame      -9.049  13.102  68.112  0.00  0.00    -0.271 OA
ATOM     45  N6  non d ame      -8.038  11.448  66.832  0.00  0.00    -0.355 N 
ATOM     46  H46 non d ame      -7.184  11.102  66.418  0.00  0.00     0.162 HD
BRANCH  45  47
ATOM     47  C20 non d ame      -9.301  10.704  66.639  0.00  0.00     0.013 C 
ATOM     48  H30 non d ame     -10.090  11.238  67.169  0.00  0.00     0.072 H 
BRANCH  47  49
ATOM     49  C21 non d ame      -9.151   9.310  67.205  0.00  0.00    -0.038 C 
ATOM     50  H31 non d ame      -9.927   9.215  67.964  0.00  0.00     0.036 H 
ATOM     51  H32 non d ame      -9.147   8.642  66.343  0.00  0.00     0.036 H 
BRANCH  49  52
ATOM     52  C22 non d ame      -7.804   9.099  67.928  0.00  0.00     0.018 C 
ATOM     53  H33 non d ame      -7.487   8.087  67.674  0.00  0.00     0.048 H 
ATOM     54  H34 non d ame      -7.182   9.950  67.650  0.00  0.00     0.048 H 
BRANCH  52  55
ATOM     55  C23 non d ame      -7.912   9.136  69.478  0.00  0.00     0.259 C 
ATOM     56  O7  non d ame      -7.218   9.862  70.114  0.00  0.00    -0.265 OA
BRANCH  55  57
ATOM     57  O8  non d ame      -8.843   8.283  70.132  0.00  0.00    -0.317 OA
BRANCH  57  58
ATOM     58  C29 non d ame      -9.209   8.718  71.445  0.00  0.00     0.052 C 
ATOM     59  H47 non d ame      -9.082   7.848  72.089  0.00  0.00     0.082 H 
ATOM     60  H48 non d ame      -8.628   9.621  71.629  0.00  0.00     0.082 H 
BRANCH  58  61
ATOM     61  C35 non d ame     -10.713   9.097  71.423  0.00  0.00    -0.034 A 
ATOM     62  C30 non d ame     -11.163  10.115  70.587  0.00  0.00    -0.075 A 
ATOM     63  C31 non d ame     -12.514  10.456  70.568  0.00  0.00    -0.082 A 
ATOM     64  H49 non d ame     -10.456  10.644  69.948  0.00  0.00     0.084 H 
ATOM     65  C32 non d ame     -13.418   9.776  71.389  0.00  0.00    -0.083 A 
ATOM     66  H50 non d ame     -12.864  11.252  69.910  0.00  0.00     0.083 H 
ATOM     67  C33 non d ame     -12.964   8.764  72.224  0.00  0.00    -0.082 A 
ATOM     68  H51 non d ame     -14.476  10.036  71.380  0.00  0.00     0.083 H 
ATOM     69  C34 non d ame     -11.614   8.418  72.245  0.00  0.00    -0.075 A 
ATOM     70  H52 non d ame     -13.671   8.237  72.865  0.00  0.00     0.083 H 
ATOM     71  H53 non d ame     -11.266   7.621  72.903  0.00  0.00     0.084 H 
ENDBRANCH  58  61
ENDBRANCH  57  58
ENDBRANCH  55  57
ENDBRANCH  52  55
ENDBRANCH  49  52
ENDBRANCH  47  49
BRANCH  47  72
ATOM     72  C24 non d ame      -9.628  10.617  65.149  0.00  0.00    -0.039 C 
ATOM     73  H35 non d ame      -8.668  10.485  64.649  0.00  0.00     0.036 H 
ATOM     74  H36 non d ame     -10.396   9.849  65.065  0.00  0.00     0.036 H 
BRANCH  72  75
ATOM     75  C25 non d ame     -10.261  11.983  64.601  0.00  0.00    -0.001 C 
ATOM     76  C26 non d ame     -11.575  12.392  65.501  0.00  0.00    -0.035 C 
ATOM     77  C27 non d ame     -12.616  12.633  64.669  0.00  0.00     0.085 C 
ATOM     78  H38 non d ame     -11.909  11.535  66.086  0.00  0.00     0.036 H 
ATOM     79  H39 non d ame     -11.410  13.353  65.989  0.00  0.00     0.036 H 
ATOM     80  N5  non d ame     -12.224  12.110  63.309  0.00  0.00    -0.049 N 
ATOM     81  H40 non d ame     -13.443  12.035  65.056  0.00  0.00     0.075 H 
ATOM     82  H41 non d ame     -12.705  13.718  64.621  0.00  0.00     0.075 H 
ATOM     83  C28 non d ame     -10.630  11.866  63.369  0.00  0.00     0.193 C 
ATOM     84  H42 non d ame     -12.683  11.216  63.203  0.00  0.00     0.280 HD
ATOM     85  H43 non d ame     -12.411  12.854  62.651  0.00  0.00     0.280 HD
ATOM     86  H44 non d ame      -9.944  12.565  62.890  0.00  0.00     0.129 H 
ATOM     87  H37 non d ame      -9.507  12.755  64.445  0.00  0.00     0.046 H 
BRANCH  83  88
ATOM     88  O6  non d ame     -10.307  10.583  62.829  0.00  0.00    -0.369 OA
ATOM     89  H45 non d ame     -10.587   9.899  63.442  0.00  0.00     0.212 HD
ENDBRANCH  83  88
ENDBRANCH  72  75
ENDBRANCH  47  72
ENDBRANCH  45  47
ENDBRANCH   1  43
BRANCH   1  90
ATOM     90  C16 non d ame      -5.992  12.972  69.075  0.00  0.00    -0.035 C 
ATOM     91  H21 non d ame      -5.941  13.815  69.765  0.00  0.00     0.037 H 
ATOM     92  H22 non d ame      -6.529  12.067  69.361  0.00  0.00     0.037 H 
BRANCH  90  93
ATOM     93  C17 non d ame      -4.517  12.540  68.796  0.00  0.00    -0.059 C 
ATOM     94  H23 non d ame      -3.892  13.429  68.873  0.00  0.00     0.038 H 
BRANCH  93  95
ATOM     95  C18 non d ame      -3.999  11.501  69.842  0.00  0.00    -0.073 C 
ATOM     96  H24 non d ame      -4.118  11.907  70.846  0.00  0.00     0.028 H 
ATOM     97  H25 non d ame      -4.572  10.579  69.752  0.00  0.00     0.028 H 
ATOM     98  H26 non d ame      -2.945  11.294  69.656  0.00  0.00     0.028 H 
ENDBRANCH  93  95
BRANCH  93  99
ATOM     99  C19 non d ame      -4.366  12.000  67.372  0.00  0.00    -0.073 C 
ATOM    100  H27 non d ame      -3.316  11.778  67.176  0.00  0.00     0.028 H 
ATOM    101  H28 non d ame      -4.956  11.089  67.264  0.00  0.00     0.028 H 
ATOM    102  H29 non d ame      -4.718  12.747  66.661  0.00  0.00     0.028 H 
ENDBRANCH  93  99
ENDBRANCH  90  93
ENDBRANCH   1  90
TORSDOF 26
ENDMDL
MODEL 13
REMARK VINA RESULT:      -6.3      2.743      7.177
REMARK  26 active torsions:
REMARK  status: ('A' for Active; 'I' for Inactive)
REMARK    1  A    between atoms: C2_2  and  C3_3 
REMARK    2  A    between atoms: C4_6  and  C5_7 
REMARK       I    between atoms: C5_7  and  N2_9 
REMARK    3  A    between atoms: N2_9  and  C6_10 
REMARK    4  A    between atoms: C6_10  and  C7_11 
REMARK    5  A    between atoms: C6_10  and  C8_13 
REMARK       I    between atoms: C7_11  and  N3_14 
REMARK    6  A    between atoms: N3_14  and  C9_15 
REMARK    7  A    between atoms: C9_15  and  C10_16 
REMARK    8  A    between atoms: C9_15  and  C11_18 
REMARK       I    between atoms: C10_16  and  N4_21 
REMARK    9  A    between atoms: C11_18  and  C12_19 
REMARK   10  A    between atoms: C11_18  and  C13_20 
REMARK   11  A    between atoms: N4_21  and  C14_22 
REMARK   12  A    between atoms: C14_22  and  C15_23 
REMARK   13  A    between atoms: C14_22  and  C16_25 
REMARK       I    between atoms: C15_23  and  N6_40 
REMARK   14  A    between atoms: C16_25  and  C17_26 
REMARK   15  A    between atoms: C17_26  and  C18_27 
REMARK   16  A    between atoms: C17_26  and  C19_28 
REMARK   17  A    between atoms: C20_29  and  C21_30 
REMARK   18  A    between atoms: C20_29  and  C24_33 
REMARK   19  A    between atoms: C20_29  and  N6_40 
REMARK   20  A    between atoms: C21_30  and  C22_31 
REMARK   21  A    between atoms: C22_31  and  C23_32 
REMARK   22  A    between atoms: C23_32  and  O8_43 
REMARK   23  A    between atoms: C24_33  and  C25_34 
REMARK   24  A    between atoms: C28_38  and  O6_39 
REMARK   25  A    between atoms: C29_42  and  O8_43 
REMARK   26  A    between atoms: C29_42  and  C35_49 
ROOT
ATOM      1  C14 non d ame      -8.011  10.300  69.533  0.00  0.00     0.089 C 
ATOM      2  H20 non d ame      -8.057  10.814  70.494  0.00  0.00     0.087 H 
ENDROOT
BRANCH   1   3
ATOM      3  N4  non d ame      -8.884   9.139  69.616  0.00  0.00    -0.346 N 
ATOM      4  C10 non d ame      -9.114   8.451  70.938  0.00  0.00     0.241 C 
ATOM      5  O4  non d ame      -8.583   8.850  71.922  0.00  0.00    -0.271 OA
ATOM      6  H19 non d ame      -9.324   8.814  68.767  0.00  0.00     0.163 HD
BRANCH   4   7
ATOM      7  C9  non d ame     -10.025   7.254  71.006  0.00  0.00     0.092 C 
ATOM      8  H11 non d ame      -9.823   6.701  71.923  0.00  0.00     0.088 H 
BRANCH   7   9
ATOM      9  N3  non d ame     -11.419   7.704  71.070  0.00  0.00    -0.346 N 
ATOM     10  C7  non d ame     -12.029   7.981  72.347  0.00  0.00     0.240 C 
ATOM     11  O3  non d ame     -11.413   7.847  73.334  0.00  0.00    -0.271 OA
ATOM     12  H10 non d ame     -11.964   7.823  70.228  0.00  0.00     0.163 HD
BRANCH  10  13
ATOM     13  C6  non d ame     -13.514   8.456  72.409  0.00  0.00     0.086 C 
ATOM     14  H6  non d ame     -14.052   8.049  73.265  0.00  0.00     0.086 H 
BRANCH  13  15
ATOM     15  N2  non d ame     -13.541   9.902  72.552  0.00  0.00    -0.343 N 
ATOM     16  C5  non d ame     -13.038  10.744  71.464  0.00  0.00     0.273 C 
ATOM     17  O2  non d ame     -12.611  10.248  70.479  0.00  0.00    -0.266 OA
ATOM     18  H5  non d ame     -13.905  10.318  73.398  0.00  0.00     0.163 HD
BRANCH  16  19
ATOM     19  C4  non d ame     -13.061  12.274  71.600  0.00  0.00     0.154 A 
ATOM     20  C1  non d ame     -12.326  13.223  70.821  0.00  0.00    -0.017 A 
ATOM     21  C2  non d ame     -12.698  14.484  71.339  0.00  0.00     0.077 A 
ATOM     22  H1  non d ame     -11.629  13.027  70.006  0.00  0.00     0.091 H 
ATOM     23  O1  non d ame     -13.548  14.273  72.300  0.00  0.00    -0.218 OA
ATOM     24  N1  non d ame     -13.776  12.991  72.472  0.00  0.00    -0.123 NA
BRANCH  21  25
ATOM     25  C3  non d ame     -12.196  15.839  70.858  0.00  0.00    -0.029 C 
ATOM     26  H2  non d ame     -12.994  16.577  70.951  0.00  0.00     0.036 H 
ATOM     27  H3  non d ame     -11.344  16.147  71.465  0.00  0.00     0.036 H 
ATOM     28  H4  non d ame     -11.890  15.765  69.814  0.00  0.00     0.036 H 
ENDBRANCH  21  25
ENDBRANCH  16  19
ENDBRANCH  13  15
BRANCH  13  29
ATOM     29  C8  non d ame     -14.228   8.049  71.146  0.00  0.00    -0.049 C 
ATOM     30  H7  non d ame     -15.160   8.606  71.058  0.00  0.00     0.030 H 
ATOM     31  H8  non d ame     -13.594   8.263  70.285  0.00  0.00     0.030 H 
ATOM     32  H9  non d ame     -14.446   6.981  71.180  0.00  0.00     0.030 H 
ENDBRANCH  13  29
ENDBRANCH  10  13
ENDBRANCH   7   9
BRANCH   7  33
ATOM     33  C11 non d ame      -9.824   6.376  69.736  0.00  0.00    -0.033 C 
ATOM     34  H12 non d ame      -9.149   6.913  69.070  0.00  0.00     0.042 H 
BRANCH  33  35
ATOM     35  C12 non d ame      -9.150   5.013  70.089  0.00  0.00    -0.071 C 
ATOM     36  H13 non d ame      -9.476   4.692  71.078  0.00  0.00     0.028 H 
ATOM     37  H14 non d ame      -9.438   4.265  69.351  0.00  0.00     0.028 H 
ATOM     38  H15 non d ame      -8.067   5.132  70.084  0.00  0.00     0.028 H 
ENDBRANCH  33  35
BRANCH  33  39
ATOM     39  C13 non d ame     -11.177   6.161  68.985  0.00  0.00    -0.071 C 
ATOM     40  H16 non d ame     -11.626   5.222  69.306  0.00  0.00     0.028 H 
ATOM     41  H17 non d ame     -11.855   6.985  69.213  0.00  0.00     0.028 H 
ATOM     42  H18 non d ame     -10.994   6.129  67.911  0.00  0.00     0.028 H 
ENDBRANCH  33  39
ENDBRANCH   7  33
ENDBRANCH   4   7
ENDBRANCH   1   3
BRANCH   1  43
ATOM     43  C15 non d ame      -8.494  11.201  68.361  0.00  0.00     0.240 C 
ATOM     44  O5  non d ame      -7.987  11.101  67.291  0.00  0.00    -0.271 OA
ATOM     45  N6  non d ame      -9.596  12.183  68.571  0.00  0.00    -0.355 N 
ATOM     46  H46 non d ame     -10.037  12.274  69.474  0.00  0.00     0.162 HD
BRANCH  45  47
ATOM     47  C20 non d ame     -10.045  13.031  67.445  0.00  0.00     0.013 C 
ATOM     48  H30 non d ame      -9.484  12.737  66.559  0.00  0.00     0.072 H 
BRANCH  47  49
ATOM     49  C21 non d ame      -9.770  14.482  67.772  0.00  0.00    -0.038 C 
ATOM     50  H31 non d ame     -10.718  15.001  67.629  0.00  0.00     0.036 H 
ATOM     51  H32 non d ame      -9.294  14.477  68.753  0.00  0.00     0.036 H 
BRANCH  49  52
ATOM     52  C22 non d ame      -8.763  15.135  66.801  0.00  0.00     0.018 C 
ATOM     53  H33 non d ame      -8.074  15.702  67.428  0.00  0.00     0.048 H 
ATOM     54  H34 non d ame      -8.389  14.324  66.175  0.00  0.00     0.048 H 
BRANCH  52  55
ATOM     55  C23 non d ame      -9.406  16.164  65.831  0.00  0.00     0.259 C 
ATOM     56  O7  non d ame     -10.315  15.849  65.133  0.00  0.00    -0.265 OA
BRANCH  55  57
ATOM     57  O8  non d ame      -8.888  17.488  65.775  0.00  0.00    -0.317 OA
BRANCH  57  58
ATOM     58  C29 non d ame      -9.411  18.361  66.780  0.00  0.00     0.052 C 
ATOM     59  H47 non d ame      -9.995  19.110  66.245  0.00  0.00     0.082 H 
ATOM     60  H48 non d ame      -9.896  17.713  67.510  0.00  0.00     0.082 H 
BRANCH  58  61
ATOM     61  C35 non d ame      -8.215  19.070  67.470  0.00  0.00    -0.034 A 
ATOM     62  C30 non d ame      -7.698  20.244  66.933  0.00  0.00    -0.075 A 
ATOM     63  C31 non d ame      -6.624  20.881  67.552  0.00  0.00    -0.082 A 
ATOM     64  H49 non d ame      -8.135  20.666  66.027  0.00  0.00     0.084 H 
ATOM     65  C32 non d ame      -6.064  20.337  68.711  0.00  0.00    -0.083 A 
ATOM     66  H50 non d ame      -6.222  21.803  67.130  0.00  0.00     0.083 H 
ATOM     67  C33 non d ame      -6.582  19.163  69.241  0.00  0.00    -0.082 A 
ATOM     68  H51 non d ame      -5.224  20.829  69.202  0.00  0.00     0.083 H 
ATOM     69  C34 non d ame      -7.657  18.525  68.627  0.00  0.00    -0.075 A 
ATOM     70  H52 non d ame      -6.141  18.740  70.145  0.00  0.00     0.083 H 
ATOM     71  H53 non d ame      -8.058  17.603  69.050  0.00  0.00     0.084 H 
ENDBRANCH  58  61
ENDBRANCH  57  58
ENDBRANCH  55  57
ENDBRANCH  52  55
ENDBRANCH  49  52
ENDBRANCH  47  49
BRANCH  47  72
ATOM     72  C24 non d ame     -11.542  12.835  67.216  0.00  0.00    -0.039 C 
ATOM     73  H35 non d ame     -11.852  12.086  67.946  0.00  0.00     0.036 H 
ATOM     74  H36 non d ame     -11.974  13.835  67.245  0.00  0.00     0.036 H 
BRANCH  72  75
ATOM     75  C25 non d ame     -11.845  12.231  65.763  0.00  0.00    -0.001 C 
ATOM     76  C26 non d ame     -10.433  11.860  65.006  0.00  0.00    -0.035 C 
ATOM     77  C27 non d ame     -10.436  12.428  63.776  0.00  0.00     0.085 C 
ATOM     78  H38 non d ame      -9.599  12.348  65.509  0.00  0.00     0.036 H 
ATOM     79  H39 non d ame     -10.392  10.792  64.793  0.00  0.00     0.036 H 
ATOM     80  N5  non d ame     -11.574  13.420  63.750  0.00  0.00    -0.049 N 
ATOM     81  H40 non d ame      -9.491  12.968  63.701  0.00  0.00     0.075 H 
ATOM     82  H41 non d ame     -10.656  11.617  63.082  0.00  0.00     0.075 H 
ATOM     83  C28 non d ame     -12.492  13.075  65.032  0.00  0.00     0.193 C 
ATOM     84  H42 non d ame     -11.161  14.332  63.885  0.00  0.00     0.280 HD
ATOM     85  H43 non d ame     -12.105  13.224  62.913  0.00  0.00     0.280 HD
ATOM     86  H44 non d ame     -13.438  12.547  64.910  0.00  0.00     0.129 H 
ATOM     87  H37 non d ame     -12.612  11.457  65.789  0.00  0.00     0.046 H 
BRANCH  83  88
ATOM     88  O6  non d ame     -12.812  14.272  65.744  0.00  0.00    -0.369 OA
ATOM     89  H45 non d ame     -12.837  15.011  65.133  0.00  0.00     0.212 HD
ENDBRANCH  83  88
ENDBRANCH  72  75
ENDBRANCH  47  72
ENDBRANCH  45  47
ENDBRANCH   1  43
BRANCH   1  90
ATOM     90  C16 non d ame      -6.588   9.833  69.267  0.00  0.00    -0.035 C 
ATOM     91  H21 non d ame      -6.632   8.744  69.291  0.00  0.00     0.037 H 
ATOM     92  H22 non d ame      -6.283  10.345  68.354  0.00  0.00     0.037 H 
BRANCH  90  93
ATOM     93  C17 non d ame      -5.571  10.259  70.373  0.00  0.00    -0.059 C 
ATOM     94  H23 non d ame      -6.071  10.978  71.022  0.00  0.00     0.038 H 
BRANCH  93  95
ATOM     95  C18 non d ame      -5.122   9.051  71.256  0.00  0.00    -0.073 C 
ATOM     96  H24 non d ame      -5.143   8.139  70.661  0.00  0.00     0.028 H 
ATOM     97  H25 non d ame      -4.109   9.225  71.621  0.00  0.00     0.028 H 
ATOM     98  H26 non d ame      -5.800   8.949  72.104  0.00  0.00     0.028 H 
ENDBRANCH  93  95
BRANCH  93  99
ATOM     99  C19 non d ame      -4.360  10.966  69.759  0.00  0.00    -0.073 C 
ATOM    100  H27 non d ame      -3.444  10.533  70.163  0.00  0.00     0.028 H 
ATOM    101  H28 non d ame      -4.376  10.839  68.676  0.00  0.00     0.028 H 
ATOM    102  H29 non d ame      -4.398  12.028  70.001  0.00  0.00     0.028 H 
ENDBRANCH  93  99
ENDBRANCH  90  93
ENDBRANCH   1  90
TORSDOF 26
ENDMDL
MODEL 14
REMARK VINA RESULT:      -6.3      2.846      8.175
REMARK  26 active torsions:
REMARK  status: ('A' for Active; 'I' for Inactive)
REMARK    1  A    between atoms: C2_2  and  C3_3 
REMARK    2  A    between atoms: C4_6  and  C5_7 
REMARK       I    between atoms: C5_7  and  N2_9 
REMARK    3  A    between atoms: N2_9  and  C6_10 
REMARK    4  A    between atoms: C6_10  and  C7_11 
REMARK    5  A    between atoms: C6_10  and  C8_13 
REMARK       I    between atoms: C7_11  and  N3_14 
REMARK    6  A    between atoms: N3_14  and  C9_15 
REMARK    7  A    between atoms: C9_15  and  C10_16 
REMARK    8  A    between atoms: C9_15  and  C11_18 
REMARK       I    between atoms: C10_16  and  N4_21 
REMARK    9  A    between atoms: C11_18  and  C12_19 
REMARK   10  A    between atoms: C11_18  and  C13_20 
REMARK   11  A    between atoms: N4_21  and  C14_22 
REMARK   12  A    between atoms: C14_22  and  C15_23 
REMARK   13  A    between atoms: C14_22  and  C16_25 
REMARK       I    between atoms: C15_23  and  N6_40 
REMARK   14  A    between atoms: C16_25  and  C17_26 
REMARK   15  A    between atoms: C17_26  and  C18_27 
REMARK   16  A    between atoms: C17_26  and  C19_28 
REMARK   17  A    between atoms: C20_29  and  C21_30 
REMARK   18  A    between atoms: C20_29  and  C24_33 
REMARK   19  A    between atoms: C20_29  and  N6_40 
REMARK   20  A    between atoms: C21_30  and  C22_31 
REMARK   21  A    between atoms: C22_31  and  C23_32 
REMARK   22  A    between atoms: C23_32  and  O8_43 
REMARK   23  A    between atoms: C24_33  and  C25_34 
REMARK   24  A    between atoms: C28_38  and  O6_39 
REMARK   25  A    between atoms: C29_42  and  O8_43 
REMARK   26  A    between atoms: C29_42  and  C35_49 
ROOT
ATOM      1  C14 non d ame      -7.316   8.864  68.082  0.00  0.00     0.089 C 
ATOM      2  H20 non d ame      -7.154   8.537  69.109  0.00  0.00     0.087 H 
ENDROOT
BRANCH   1   3
ATOM      3  N4  non d ame      -6.982  10.279  68.013  0.00  0.00    -0.346 N 
ATOM      4  C10 non d ame      -6.758  11.070  69.277  0.00  0.00     0.241 C 
ATOM      5  O4  non d ame      -6.855  10.547  70.338  0.00  0.00    -0.271 OA
ATOM      6  H19 non d ame      -6.906  10.705  67.101  0.00  0.00     0.163 HD
BRANCH   4   7
ATOM      7  C9  non d ame      -6.407  12.532  69.187  0.00  0.00     0.092 C 
ATOM      8  H11 non d ame      -5.911  12.724  68.236  0.00  0.00     0.088 H 
BRANCH   7   9
ATOM      9  N3  non d ame      -7.636  13.332  69.204  0.00  0.00    -0.346 N 
ATOM     10  C7  non d ame      -8.376  13.541  67.984  0.00  0.00     0.240 C 
ATOM     11  O3  non d ame      -7.996  13.075  66.980  0.00  0.00    -0.271 OA
ATOM     12  H10 non d ame      -7.975  13.742  70.063  0.00  0.00     0.163 HD
BRANCH  10  13
ATOM     13  C6  non d ame      -9.681  14.396  68.008  0.00  0.00     0.086 C 
ATOM     14  H6  non d ame     -10.491  13.944  67.436  0.00  0.00     0.086 H 
BRANCH  13  15
ATOM     15  N2  non d ame     -10.150  14.503  69.379  0.00  0.00    -0.343 N 
ATOM     16  C5  non d ame     -11.588  14.466  69.655  0.00  0.00     0.273 C 
ATOM     17  O2  non d ame     -12.359  14.354  68.767  0.00  0.00    -0.266 OA
ATOM     18  H5  non d ame      -9.483  14.601  70.132  0.00  0.00     0.163 HD
BRANCH  16  19
ATOM     19  C4  non d ame     -12.097  14.577  71.101  0.00  0.00     0.154 A 
ATOM     20  C1  non d ame     -11.661  15.500  72.103  0.00  0.00    -0.017 A 
ATOM     21  C2  non d ame     -12.434  15.190  73.244  0.00  0.00     0.077 A 
ATOM     22  H1  non d ame     -10.900  16.276  72.016  0.00  0.00     0.091 H 
ATOM     23  O1  non d ame     -13.220  14.204  72.923  0.00  0.00    -0.218 OA
ATOM     24  N1  non d ame     -13.041  13.829  71.678  0.00  0.00    -0.123 NA
BRANCH  21  25
ATOM     25  C3  non d ame     -12.361  15.884  74.598  0.00  0.00    -0.029 C 
ATOM     26  H2  non d ame     -12.615  16.938  74.481  0.00  0.00     0.036 H 
ATOM     27  H3  non d ame     -13.066  15.414  75.285  0.00  0.00     0.036 H 
ATOM     28  H4  non d ame     -11.351  15.795  74.998  0.00  0.00     0.036 H 
ENDBRANCH  21  25
ENDBRANCH  16  19
ENDBRANCH  13  15
BRANCH  13  29
ATOM     29  C8  non d ame      -9.397  15.767  67.450  0.00  0.00    -0.049 C 
ATOM     30  H7  non d ame     -10.262  16.411  67.611  0.00  0.00     0.030 H 
ATOM     31  H8  non d ame      -8.529  16.192  67.955  0.00  0.00     0.030 H 
ATOM     32  H9  non d ame      -9.196  15.691  66.382  0.00  0.00     0.030 H 
ENDBRANCH  13  29
ENDBRANCH  10  13
ENDBRANCH   7   9
BRANCH   7  33
ATOM     33  C11 non d ame      -5.518  12.928  70.402  0.00  0.00    -0.033 C 
ATOM     34  H12 non d ame      -5.784  12.272  71.232  0.00  0.00     0.042 H 
BRANCH  33  35
ATOM     35  C12 non d ame      -4.004  12.704  70.095  0.00  0.00    -0.071 C 
ATOM     36  H13 non d ame      -3.653  11.816  70.621  0.00  0.00     0.028 H 
ATOM     37  H14 non d ame      -3.867  12.568  69.023  0.00  0.00     0.028 H 
ATOM     38  H15 non d ame      -3.434  13.572  70.427  0.00  0.00     0.028 H 
ENDBRANCH  33  35
BRANCH  33  39
ATOM     39  C13 non d ame      -5.795  14.401  70.843  0.00  0.00    -0.071 C 
ATOM     40  H16 non d ame      -6.808  14.681  70.556  0.00  0.00     0.028 H 
ATOM     41  H17 non d ame      -5.688  14.483  71.925  0.00  0.00     0.028 H 
ATOM     42  H18 non d ame      -5.082  15.066  70.356  0.00  0.00     0.028 H 
ENDBRANCH  33  39
ENDBRANCH   7  33
ENDBRANCH   4   7
ENDBRANCH   1   3
BRANCH   1  43
ATOM     43  C15 non d ame      -6.417   8.093  67.072  0.00  0.00     0.240 C 
ATOM     44  O5  non d ame      -5.344   7.709  67.410  0.00  0.00    -0.271 OA
ATOM     45  N6  non d ame      -6.898   7.827  65.687  0.00  0.00    -0.355 N 
ATOM     46  H46 non d ame      -7.809   8.144  65.390  0.00  0.00     0.162 HD
BRANCH  45  47
ATOM     47  C20 non d ame      -6.032   7.092  64.740  0.00  0.00     0.013 C 
ATOM     48  H30 non d ame      -5.079   6.903  65.234  0.00  0.00     0.072 H 
BRANCH  47  49
ATOM     49  C21 non d ame      -5.815   7.935  63.503  0.00  0.00    -0.038 C 
ATOM     50  H31 non d ame      -4.779   8.272  63.555  0.00  0.00     0.036 H 
ATOM     51  H32 non d ame      -6.147   7.320  62.666  0.00  0.00     0.036 H 
BRANCH  49  52
ATOM     52  C22 non d ame      -6.689   9.207  63.485  0.00  0.00     0.018 C 
ATOM     53  H33 non d ame      -7.072   9.317  64.500  0.00  0.00     0.048 H 
ATOM     54  H34 non d ame      -6.064   9.988  63.051  0.00  0.00     0.048 H 
BRANCH  52  55
ATOM     55  C23 non d ame      -7.937   9.097  62.565  0.00  0.00     0.259 C 
ATOM     56  O7  non d ame      -7.863   8.552  61.512  0.00  0.00    -0.265 OA
BRANCH  55  57
ATOM     57  O8  non d ame      -9.168   9.666  62.991  0.00  0.00    -0.317 OA
BRANCH  57  58
ATOM     58  C29 non d ame      -9.175  10.083  64.359  0.00  0.00     0.052 C 
ATOM     59  H47 non d ame      -9.404   9.189  64.939  0.00  0.00     0.082 H 
ATOM     60  H48 non d ame      -8.231  10.605  64.513  0.00  0.00     0.082 H 
BRANCH  58  61
ATOM     61  C35 non d ame     -10.333  11.099  64.545  0.00  0.00    -0.034 A 
ATOM     62  C30 non d ame     -10.905  11.715  63.436  0.00  0.00    -0.075 A 
ATOM     63  C31 non d ame     -11.945  12.628  63.602  0.00  0.00    -0.082 A 
ATOM     64  H49 non d ame     -10.537  11.481  62.436  0.00  0.00     0.084 H 
ATOM     65  C32 non d ame     -12.412  12.927  64.884  0.00  0.00    -0.083 A 
ATOM     66  H50 non d ame     -12.392  13.106  62.730  0.00  0.00     0.083 H 
ATOM     67  C33 non d ame     -11.837  12.313  65.989  0.00  0.00    -0.082 A 
ATOM     68  H51 non d ame     -13.226  13.639  65.023  0.00  0.00     0.083 H 
ATOM     69  C34 non d ame     -10.799  11.398  65.827  0.00  0.00    -0.075 A 
ATOM     70  H52 non d ame     -12.203  12.550  66.988  0.00  0.00     0.083 H 
ATOM     71  H53 non d ame     -10.352  10.919  66.699  0.00  0.00     0.084 H 
ENDBRANCH  58  61
ENDBRANCH  57  58
ENDBRANCH  55  57
ENDBRANCH  52  55
ENDBRANCH  49  52
ENDBRANCH  47  49
BRANCH  47  72
ATOM     72  C24 non d ame      -6.697   5.774  64.348  0.00  0.00    -0.039 C 
ATOM     73  H35 non d ame      -6.431   5.614  63.302  0.00  0.00     0.036 H 
ATOM     74  H36 non d ame      -6.385   5.055  65.105  0.00  0.00     0.036 H 
BRANCH  72  75
ATOM     75  C25 non d ame      -8.294   5.872  64.419  0.00  0.00    -0.001 C 
ATOM     76  C26 non d ame      -8.871   4.814  65.539  0.00  0.00    -0.035 C 
ATOM     77  C27 non d ame      -9.847   4.067  64.970  0.00  0.00     0.085 C 
ATOM     78  H38 non d ame      -8.104   4.082  65.791  0.00  0.00     0.036 H 
ATOM     79  H39 non d ame      -9.391   5.354  66.330  0.00  0.00     0.036 H 
ATOM     80  N5  non d ame      -9.764   4.292  63.480  0.00  0.00    -0.049 N 
ATOM     81  H40 non d ame      -9.585   3.030  65.188  0.00  0.00     0.075 H 
ATOM     82  H41 non d ame     -10.784   4.481  65.340  0.00  0.00     0.075 H 
ATOM     83  C28 non d ame      -8.831   5.594  63.279  0.00  0.00     0.193 C 
ATOM     84  H42 non d ame      -9.285   3.490  63.095  0.00  0.00     0.280 HD
ATOM     85  H43 non d ame     -10.700   4.516  63.172  0.00  0.00     0.280 HD
ATOM     86  H44 non d ame      -9.273   6.558  63.027  0.00  0.00     0.129 H 
ATOM     87  H37 non d ame      -8.642   6.903  64.486  0.00  0.00     0.046 H 
BRANCH  83  88
ATOM     88  O6  non d ame      -7.852   5.347  62.268  0.00  0.00    -0.369 OA
ATOM     89  H45 non d ame      -7.434   4.498  62.428  0.00  0.00     0.212 HD
ENDBRANCH  83  88
ENDBRANCH  72  75
ENDBRANCH  47  72
ENDBRANCH  45  47
ENDBRANCH   1  43
BRANCH   1  90
ATOM     90  C16 non d ame      -8.778   8.681  67.707  0.00  0.00    -0.035 C 
ATOM     91  H21 non d ame      -9.084   9.630  67.266  0.00  0.00     0.037 H 
ATOM     92  H22 non d ame      -8.811   7.768  67.112  0.00  0.00     0.037 H 
BRANCH  90  93
ATOM     93  C17 non d ame      -9.714   8.442  68.935  0.00  0.00    -0.059 C 
ATOM     94  H23 non d ame     -10.503   7.759  68.621  0.00  0.00     0.038 H 
BRANCH  93  95
ATOM     95  C18 non d ame      -8.959   7.781  70.132  0.00  0.00    -0.073 C 
ATOM     96  H24 non d ame      -7.954   8.196  70.201  0.00  0.00     0.028 H 
ATOM     97  H25 non d ame      -9.499   7.981  71.057  0.00  0.00     0.028 H 
ATOM     98  H26 non d ame      -8.898   6.704  69.972  0.00  0.00     0.028 H 
ENDBRANCH  93  95
BRANCH  93  99
ATOM     99  C19 non d ame     -10.388   9.746  69.369  0.00  0.00    -0.073 C 
ATOM    100  H27 non d ame     -11.299   9.517  69.924  0.00  0.00     0.028 H 
ATOM    101  H28 non d ame      -9.707  10.312  70.006  0.00  0.00     0.028 H 
ATOM    102  H29 non d ame     -10.637  10.337  68.489  0.00  0.00     0.028 H 
ENDBRANCH  93  99
ENDBRANCH  90  93
ENDBRANCH   1  90
TORSDOF 26
ENDMDL
MODEL 15
REMARK VINA RESULT:      -6.3      2.812      4.861
REMARK  26 active torsions:
REMARK  status: ('A' for Active; 'I' for Inactive)
REMARK    1  A    between atoms: C2_2  and  C3_3 
REMARK    2  A    between atoms: C4_6  and  C5_7 
REMARK       I    between atoms: C5_7  and  N2_9 
REMARK    3  A    between atoms: N2_9  and  C6_10 
REMARK    4  A    between atoms: C6_10  and  C7_11 
REMARK    5  A    between atoms: C6_10  and  C8_13 
REMARK       I    between atoms: C7_11  and  N3_14 
REMARK    6  A    between atoms: N3_14  and  C9_15 
REMARK    7  A    between atoms: C9_15  and  C10_16 
REMARK    8  A    between atoms: C9_15  and  C11_18 
REMARK       I    between atoms: C10_16  and  N4_21 
REMARK    9  A    between atoms: C11_18  and  C12_19 
REMARK   10  A    between atoms: C11_18  and  C13_20 
REMARK   11  A    between atoms: N4_21  and  C14_22 
REMARK   12  A    between atoms: C14_22  and  C15_23 
REMARK   13  A    between atoms: C14_22  and  C16_25 
REMARK       I    between atoms: C15_23  and  N6_40 
REMARK   14  A    between atoms: C16_25  and  C17_26 
REMARK   15  A    between atoms: C17_26  and  C18_27 
REMARK   16  A    between atoms: C17_26  and  C19_28 
REMARK   17  A    between atoms: C20_29  and  C21_30 
REMARK   18  A    between atoms: C20_29  and  C24_33 
REMARK   19  A    between atoms: C20_29  and  N6_40 
REMARK   20  A    between atoms: C21_30  and  C22_31 
REMARK   21  A    between atoms: C22_31  and  C23_32 
REMARK   22  A    between atoms: C23_32  and  O8_43 
REMARK   23  A    between atoms: C24_33  and  C25_34 
REMARK   24  A    between atoms: C28_38  and  O6_39 
REMARK   25  A    between atoms: C29_42  and  O8_43 
REMARK   26  A    between atoms: C29_42  and  C35_49 
ROOT
ATOM      1  C14 non d ame     -12.227  14.187  69.933  0.00  0.00     0.089 C 
ATOM      2  H20 non d ame     -13.185  13.728  69.686  0.00  0.00     0.087 H 
ENDROOT
BRANCH   1   3
ATOM      3  N4  non d ame     -11.229  13.129  69.961  0.00  0.00    -0.346 N 
ATOM      4  C10 non d ame     -11.400  11.897  69.108  0.00  0.00     0.241 C 
ATOM      5  O4  non d ame     -12.353  11.778  68.410  0.00  0.00    -0.271 OA
ATOM      6  H19 non d ame     -10.427  13.248  70.564  0.00  0.00     0.163 HD
BRANCH   4   7
ATOM      7  C9  non d ame     -10.354  10.814  69.146  0.00  0.00     0.092 C 
ATOM      8  H11 non d ame      -9.789  10.893  70.074  0.00  0.00     0.088 H 
BRANCH   7   9
ATOM      9  N3  non d ame     -11.008   9.502  69.147  0.00  0.00    -0.346 N 
ATOM     10  C7  non d ame     -10.962   8.675  70.328  0.00  0.00     0.240 C 
ATOM     11  O3  non d ame     -10.401   9.049  71.285  0.00  0.00    -0.271 OA
ATOM     12  H10 non d ame     -11.494   9.165  68.328  0.00  0.00     0.163 HD
BRANCH  10  13
ATOM     13  C6  non d ame     -11.657   7.278  70.322  0.00  0.00     0.086 C 
ATOM     14  H6  non d ame     -12.517   7.237  69.654  0.00  0.00     0.086 H 
BRANCH  13  15
ATOM     15  N2  non d ame     -10.711   6.283  69.844  0.00  0.00    -0.343 N 
ATOM     16  C5  non d ame     -10.576   6.049  68.405  0.00  0.00     0.273 C 
ATOM     17  O2  non d ame     -11.234   6.664  67.640  0.00  0.00    -0.266 OA
ATOM     18  H5  non d ame     -10.155   5.759  70.505  0.00  0.00     0.163 HD
BRANCH  16  19
ATOM     19  C4  non d ame      -9.579   5.001  67.886  0.00  0.00     0.154 A 
ATOM     20  C1  non d ame      -9.360   3.685  68.403  0.00  0.00    -0.017 A 
ATOM     21  C2  non d ame      -8.352   3.134  67.581  0.00  0.00     0.077 A 
ATOM     22  H1  non d ame      -9.856   3.204  69.246  0.00  0.00     0.091 H 
ATOM     23  O1  non d ame      -8.038   4.035  66.697  0.00  0.00    -0.218 OA
ATOM     24  N1  non d ame      -8.740   5.133  66.855  0.00  0.00    -0.123 NA
BRANCH  21  25
ATOM     25  C3  non d ame      -7.747   1.742  67.706  0.00  0.00    -0.029 C 
ATOM     26  H2  non d ame      -7.983   1.161  66.813  0.00  0.00     0.036 H 
ATOM     27  H3  non d ame      -6.666   1.824  67.811  0.00  0.00     0.036 H 
ATOM     28  H4  non d ame      -8.161   1.243  68.583  0.00  0.00     0.036 H 
ENDBRANCH  21  25
ENDBRANCH  16  19
ENDBRANCH  13  15
BRANCH  13  29
ATOM     29  C8  non d ame     -12.109   6.933  71.718  0.00  0.00    -0.049 C 
ATOM     30  H7  non d ame     -12.171   7.842  72.316  0.00  0.00     0.030 H 
ATOM     31  H8  non d ame     -13.089   6.457  71.676  0.00  0.00     0.030 H 
ATOM     32  H9  non d ame     -11.392   6.249  72.173  0.00  0.00     0.030 H 
ENDBRANCH  13  29
ENDBRANCH  10  13
ENDBRANCH   7   9
BRANCH   7  33
ATOM     33  C11 non d ame      -9.440  10.933  67.891  0.00  0.00    -0.033 C 
ATOM     34  H12 non d ame     -10.068  11.235  67.054  0.00  0.00     0.042 H 
BRANCH  33  35
ATOM     35  C12 non d ame      -8.352  12.036  68.084  0.00  0.00    -0.071 C 
ATOM     36  H13 non d ame      -8.593  12.634  68.962  0.00  0.00     0.028 H 
ATOM     37  H14 non d ame      -7.379  11.565  68.221  0.00  0.00     0.028 H 
ATOM     38  H15 non d ame      -8.326  12.677  67.203  0.00  0.00     0.028 H 
ENDBRANCH  33  35
BRANCH  33  39
ATOM     39  C13 non d ame      -8.793   9.555  67.538  0.00  0.00    -0.071 C 
ATOM     40  H16 non d ame      -7.715   9.676  67.433  0.00  0.00     0.028 H 
ATOM     41  H17 non d ame      -9.003   8.840  68.334  0.00  0.00     0.028 H 
ATOM     42  H18 non d ame      -9.211   9.188  66.600  0.00  0.00     0.028 H 
ENDBRANCH  33  39
ENDBRANCH   7  33
ENDBRANCH   4   7
ENDBRANCH   1   3
BRANCH   1  43
ATOM     43  C15 non d ame     -11.796  15.247  68.880  0.00  0.00     0.240 C 
ATOM     44  O5  non d ame     -12.021  16.398  69.073  0.00  0.00    -0.271 OA
ATOM     45  N6  non d ame     -11.093  14.829  67.633  0.00  0.00    -0.355 N 
ATOM     46  H46 non d ame     -10.892  13.855  67.460  0.00  0.00     0.162 HD
BRANCH  45  47
ATOM     47  C20 non d ame     -10.688  15.849  66.642  0.00  0.00     0.013 C 
ATOM     48  H30 non d ame     -11.592  16.326  66.263  0.00  0.00     0.072 H 
BRANCH  47  49
ATOM     49  C21 non d ame      -9.944  15.178  65.510  0.00  0.00    -0.038 C 
ATOM     50  H31 non d ame     -10.418  15.534  64.594  0.00  0.00     0.036 H 
ATOM     51  H32 non d ame      -8.889  15.380  65.691  0.00  0.00     0.036 H 
BRANCH  49  52
ATOM     52  C22 non d ame     -10.103  13.642  65.516  0.00  0.00     0.018 C 
ATOM     53  H33 non d ame      -9.189  13.250  65.068  0.00  0.00     0.048 H 
ATOM     54  H34 non d ame     -10.366  13.376  66.540  0.00  0.00     0.048 H 
BRANCH  52  55
ATOM     55  C23 non d ame     -11.270  13.130  64.627  0.00  0.00     0.259 C 
ATOM     56  O7  non d ame     -12.399  13.304  64.954  0.00  0.00    -0.265 OA
BRANCH  55  57
ATOM     57  O8  non d ame     -10.974  12.436  63.421  0.00  0.00    -0.317 OA
BRANCH  57  58
ATOM     58  C29 non d ame     -10.856  11.019  63.578  0.00  0.00     0.052 C 
ATOM     59  H47 non d ame     -11.053  10.822  64.632  0.00  0.00     0.082 H 
ATOM     60  H48 non d ame     -11.498  10.583  62.813  0.00  0.00     0.082 H 
BRANCH  58  61
ATOM     61  C35 non d ame      -9.387  10.624  63.269  0.00  0.00    -0.034 A 
ATOM     62  C30 non d ame      -8.792  11.028  62.079  0.00  0.00    -0.075 A 
ATOM     63  C31 non d ame      -7.473  10.673  61.801  0.00  0.00    -0.082 A 
ATOM     64  H49 non d ame      -9.359  11.623  61.363  0.00  0.00     0.084 H 
ATOM     65  C32 non d ame      -6.749   9.908  62.720  0.00  0.00    -0.083 A 
ATOM     66  H50 non d ame      -7.009  10.993  60.869  0.00  0.00     0.083 H 
ATOM     67  C33 non d ame      -7.348   9.504  63.905  0.00  0.00    -0.082 A 
ATOM     68  H51 non d ame      -5.716   9.627  62.511  0.00  0.00     0.083 H 
ATOM     69  C34 non d ame      -8.665   9.859  64.187  0.00  0.00    -0.075 A 
ATOM     70  H52 non d ame      -6.780   8.905  64.619  0.00  0.00     0.083 H 
ATOM     71  H53 non d ame      -9.128   9.538  65.121  0.00  0.00     0.084 H 
ENDBRANCH  58  61
ENDBRANCH  57  58
ENDBRANCH  55  57
ENDBRANCH  52  55
ENDBRANCH  49  52
ENDBRANCH  47  49
BRANCH  47  72
ATOM     72  C24 non d ame      -9.782  16.883  67.307  0.00  0.00    -0.039 C 
ATOM     73  H35 non d ame     -10.365  17.292  68.132  0.00  0.00     0.036 H 
ATOM     74  H36 non d ame      -8.845  16.361  67.507  0.00  0.00     0.036 H 
BRANCH  72  75
ATOM     75  C25 non d ame      -9.444  18.098  66.318  0.00  0.00    -0.001 C 
ATOM     76  C26 non d ame      -7.843  18.463  66.407  0.00  0.00    -0.035 C 
ATOM     77  C27 non d ame      -7.711  19.794  66.625  0.00  0.00     0.085 C 
ATOM     78  H38 non d ame      -7.406  18.015  67.299  0.00  0.00     0.036 H 
ATOM     79  H39 non d ame      -7.371  18.316  65.436  0.00  0.00     0.036 H 
ATOM     80  N5  non d ame      -9.073  20.314  67.018  0.00  0.00    -0.049 N 
ATOM     81  H40 non d ame      -7.036  19.884  67.477  0.00  0.00     0.075 H 
ATOM     82  H41 non d ame      -7.433  20.220  65.662  0.00  0.00     0.075 H 
ATOM     83  C28 non d ame     -10.122  19.152  66.625  0.00  0.00     0.193 C 
ATOM     84  H42 non d ame      -9.062  20.412  68.024  0.00  0.00     0.280 HD
ATOM     85  H43 non d ame      -9.251  21.119  66.435  0.00  0.00     0.280 HD
ATOM     86  H44 non d ame     -10.749  19.250  65.739  0.00  0.00     0.129 H 
ATOM     87  H37 non d ame      -9.864  17.949  65.323  0.00  0.00     0.046 H 
BRANCH  83  88
ATOM     88  O6  non d ame     -11.025  18.917  67.707  0.00  0.00    -0.369 OA
ATOM     89  H45 non d ame     -10.874  18.039  68.065  0.00  0.00     0.212 HD
ENDBRANCH  83  88
ENDBRANCH  72  75
ENDBRANCH  47  72
ENDBRANCH  45  47
ENDBRANCH   1  43
BRANCH   1  90
ATOM     90  C16 non d ame     -12.304  14.833  71.307  0.00  0.00    -0.035 C 
ATOM     91  H21 non d ame     -11.480  14.402  71.875  0.00  0.00     0.037 H 
ATOM     92  H22 non d ame     -12.334  15.907  71.120  0.00  0.00     0.037 H 
BRANCH  90  93
ATOM     93  C17 non d ame     -13.610  14.485  72.090  0.00  0.00    -0.059 C 
ATOM     94  H23 non d ame     -13.502  14.876  73.102  0.00  0.00     0.038 H 
BRANCH  93  95
ATOM     95  C18 non d ame     -14.873  15.149  71.455  0.00  0.00    -0.073 C 
ATOM     96  H24 non d ame     -15.680  15.169  72.187  0.00  0.00     0.028 H 
ATOM     97  H25 non d ame     -14.634  16.169  71.151  0.00  0.00     0.028 H 
ATOM     98  H26 non d ame     -15.186  14.574  70.583  0.00  0.00     0.028 H 
ENDBRANCH  93  95
BRANCH  93  99
ATOM     99  C19 non d ame     -13.791  12.970  72.206  0.00  0.00    -0.073 C 
ATOM    100  H27 non d ame     -13.604  12.506  71.236  0.00  0.00     0.028 H 
ATOM    101  H28 non d ame     -13.088  12.575  72.939  0.00  0.00     0.028 H 
ATOM    102  H29 non d ame     -14.810  12.749  72.524  0.00  0.00     0.028 H 
ENDBRANCH  93  99
ENDBRANCH  90  93
ENDBRANCH   1  90
TORSDOF 26
ENDMDL
MODEL 16
REMARK VINA RESULT:      -6.3      2.156      7.214
REMARK  26 active torsions:
REMARK  status: ('A' for Active; 'I' for Inactive)
REMARK    1  A    between atoms: C2_2  and  C3_3 
REMARK    2  A    between atoms: C4_6  and  C5_7 
REMARK       I    between atoms: C5_7  and  N2_9 
REMARK    3  A    between atoms: N2_9  and  C6_10 
REMARK    4  A    between atoms: C6_10  and  C7_11 
REMARK    5  A    between atoms: C6_10  and  C8_13 
REMARK       I    between atoms: C7_11  and  N3_14 
REMARK    6  A    between atoms: N3_14  and  C9_15 
REMARK    7  A    between atoms: C9_15  and  C10_16 
REMARK    8  A    between atoms: C9_15  and  C11_18 
REMARK       I    between atoms: C10_16  and  N4_21 
REMARK    9  A    between atoms: C11_18  and  C12_19 
REMARK   10  A    between atoms: C11_18  and  C13_20 
REMARK   11  A    between atoms: N4_21  and  C14_22 
REMARK   12  A    between atoms: C14_22  and  C15_23 
REMARK   13  A    between atoms: C14_22  and  C16_25 
REMARK       I    between atoms: C15_23  and  N6_40 
REMARK   14  A    between atoms: C16_25  and  C17_26 
REMARK   15  A    between atoms: C17_26  and  C18_27 
REMARK   16  A    between atoms: C17_26  and  C19_28 
REMARK   17  A    between atoms: C20_29  and  C21_30 
REMARK   18  A    between atoms: C20_29  and  C24_33 
REMARK   19  A    between atoms: C20_29  and  N6_40 
REMARK   20  A    between atoms: C21_30  and  C22_31 
REMARK   21  A    between atoms: C22_31  and  C23_32 
REMARK   22  A    between atoms: C23_32  and  O8_43 
REMARK   23  A    between atoms: C24_33  and  C25_34 
REMARK   24  A    between atoms: C28_38  and  O6_39 
REMARK   25  A    between atoms: C29_42  and  O8_43 
REMARK   26  A    between atoms: C29_42  and  C35_49 
ROOT
ATOM      1  C14 non d ame      -7.285  14.495  67.878  0.00  0.00     0.089 C 
ATOM      2  H20 non d ame      -6.943  14.956  66.951  0.00  0.00     0.087 H 
ENDROOT
BRANCH   1   3
ATOM      3  N4  non d ame      -8.543  15.128  68.245  0.00  0.00    -0.346 N 
ATOM      4  C10 non d ame      -9.301  15.955  67.238  0.00  0.00     0.241 C 
ATOM      5  O4  non d ame      -8.878  16.100  66.139  0.00  0.00    -0.271 OA
ATOM      6  H19 non d ame      -8.885  14.995  69.186  0.00  0.00     0.163 HD
BRANCH   4   7
ATOM      7  C9  non d ame     -10.605  16.598  67.633  0.00  0.00     0.092 C 
ATOM      8  H11 non d ame     -11.377  16.309  66.920  0.00  0.00     0.088 H 
BRANCH   7   9
ATOM      9  N3  non d ame     -11.018  16.098  68.947  0.00  0.00    -0.346 N 
ATOM     10  C7  non d ame     -11.923  14.978  69.040  0.00  0.00     0.240 C 
ATOM     11  O3  non d ame     -12.328  14.469  68.067  0.00  0.00    -0.271 OA
ATOM     12  H10 non d ame     -10.678  16.528  69.795  0.00  0.00     0.163 HD
BRANCH  10  13
ATOM     13  C6  non d ame     -12.362  14.452  70.442  0.00  0.00     0.086 C 
ATOM     14  H6  non d ame     -13.418  14.627  70.646  0.00  0.00     0.086 H 
BRANCH  13  15
ATOM     15  N2  non d ame     -12.162  13.013  70.489  0.00  0.00    -0.343 N 
ATOM     16  C5  non d ame     -12.909  12.213  71.461  0.00  0.00     0.273 C 
ATOM     17  O2  non d ame     -13.666  12.736  72.203  0.00  0.00    -0.266 OA
ATOM     18  H5  non d ame     -11.511  12.574  69.853  0.00  0.00     0.163 HD
BRANCH  16  19
ATOM     19  C4  non d ame     -12.710  10.690  71.521  0.00  0.00     0.154 A 
ATOM     20  C1  non d ame     -11.659   9.931  70.914  0.00  0.00    -0.017 A 
ATOM     21  C2  non d ame     -11.929   8.590  71.267  0.00  0.00     0.077 A 
ATOM     22  H1  non d ame     -10.828  10.298  70.311  0.00  0.00     0.091 H 
ATOM     23  O1  non d ame     -13.009   8.590  71.991  0.00  0.00    -0.218 OA
ATOM     24  N1  non d ame     -13.483   9.804  72.154  0.00  0.00    -0.123 NA
BRANCH  21  25
ATOM     25  C3  non d ame     -11.107   7.371  70.871  0.00  0.00    -0.029 C 
ATOM     26  H2  non d ame     -11.396   6.521  71.489  0.00  0.00     0.036 H 
ATOM     27  H3  non d ame     -11.287   7.136  69.822  0.00  0.00     0.036 H 
ATOM     28  H4  non d ame     -10.047   7.584  71.018  0.00  0.00     0.036 H 
ENDBRANCH  21  25
ENDBRANCH  16  19
ENDBRANCH  13  15
BRANCH  13  29
ATOM     29  C8  non d ame     -11.540  15.123  71.513  0.00  0.00    -0.049 C 
ATOM     30  H7  non d ame     -10.504  15.199  71.183  0.00  0.00     0.030 H 
ATOM     31  H8  non d ame     -11.936  16.120  71.703  0.00  0.00     0.030 H 
ATOM     32  H9  non d ame     -11.586  14.533  72.428  0.00  0.00     0.030 H 
ENDBRANCH  13  29
ENDBRANCH  10  13
ENDBRANCH   7   9
BRANCH   7  33
ATOM     33  C11 non d ame     -10.421  18.143  67.703  0.00  0.00    -0.033 C 
ATOM     34  H12 non d ame     -11.248  18.546  68.288  0.00  0.00     0.042 H 
BRANCH  33  35
ATOM     35  C12 non d ame      -9.097  18.524  68.437  0.00  0.00    -0.071 C 
ATOM     36  H13 non d ame      -9.284  19.362  69.110  0.00  0.00     0.028 H 
ATOM     37  H14 non d ame      -8.742  17.670  69.012  0.00  0.00     0.028 H 
ATOM     38  H15 non d ame      -8.344  18.808  67.703  0.00  0.00     0.028 H 
ENDBRANCH  33  35
BRANCH  33  39
ATOM     39  C13 non d ame     -10.481  18.779  66.278  0.00  0.00    -0.071 C 
ATOM     40  H16 non d ame      -9.503  18.703  65.804  0.00  0.00     0.028 H 
ATOM     41  H17 non d ame     -11.219  18.249  65.674  0.00  0.00     0.028 H 
ATOM     42  H18 non d ame     -10.766  19.828  66.360  0.00  0.00     0.028 H 
ENDBRANCH  33  39
ENDBRANCH   7  33
ENDBRANCH   4   7
ENDBRANCH   1   3
BRANCH   1  43
ATOM     43  C15 non d ame      -7.527  12.967  67.719  0.00  0.00     0.240 C 
ATOM     44  O5  non d ame      -7.233  12.227  68.602  0.00  0.00    -0.271 OA
ATOM     45  N6  non d ame      -8.133  12.426  66.469  0.00  0.00    -0.355 N 
ATOM     46  H46 non d ame      -8.391  13.045  65.715  0.00  0.00     0.162 HD
BRANCH  45  47
ATOM     47  C20 non d ame      -8.358  10.971  66.334  0.00  0.00     0.013 C 
ATOM     48  H30 non d ame      -8.231  10.519  67.318  0.00  0.00     0.072 H 
BRANCH  47  49
ATOM     49  C21 non d ame      -7.348  10.396  65.367  0.00  0.00    -0.038 C 
ATOM     50  H31 non d ame      -7.775   9.456  65.019  0.00  0.00     0.036 H 
ATOM     51  H32 non d ame      -7.134  11.195  64.656  0.00  0.00     0.036 H 
BRANCH  49  52
ATOM     52  C22 non d ame      -6.005  10.043  66.043  0.00  0.00     0.018 C 
ATOM     53  H33 non d ame      -5.831  10.826  66.781  0.00  0.00     0.048 H 
ATOM     54  H34 non d ame      -6.100   9.005  66.363  0.00  0.00     0.048 H 
BRANCH  52  55
ATOM     55  C23 non d ame      -4.788  10.085  65.078  0.00  0.00     0.259 C 
ATOM     56  O7  non d ame      -3.682   9.962  65.496  0.00  0.00    -0.265 OA
BRANCH  55  57
ATOM     57  O8  non d ame      -5.008  10.285  63.687  0.00  0.00    -0.317 OA
BRANCH  57  58
ATOM     58  C29 non d ame      -4.530   9.218  62.863  0.00  0.00     0.052 C 
ATOM     59  H47 non d ame      -4.470   9.629  61.855  0.00  0.00     0.082 H 
ATOM     60  H48 non d ame      -3.631   8.846  63.354  0.00  0.00     0.082 H 
BRANCH  58  61
ATOM     61  C35 non d ame      -5.597   8.091  62.871  0.00  0.00    -0.034 A 
ATOM     62  C30 non d ame      -5.233   6.790  63.207  0.00  0.00    -0.075 A 
ATOM     63  C31 non d ame      -6.191   5.778  63.214  0.00  0.00    -0.082 A 
ATOM     64  H49 non d ame      -4.198   6.565  63.464  0.00  0.00     0.084 H 
ATOM     65  C32 non d ame      -7.517   6.069  62.882  0.00  0.00    -0.083 A 
ATOM     66  H50 non d ame      -5.904   4.760  63.479  0.00  0.00     0.083 H 
ATOM     67  C33 non d ame      -7.874   7.367  62.545  0.00  0.00    -0.082 A 
ATOM     68  H51 non d ame      -8.273   5.283  62.886  0.00  0.00     0.083 H 
ATOM     69  C34 non d ame      -6.921   8.383  62.538  0.00  0.00    -0.075 A 
ATOM     70  H52 non d ame      -8.909   7.591  62.284  0.00  0.00     0.083 H 
ATOM     71  H53 non d ame      -7.209   9.401  62.274  0.00  0.00     0.084 H 
ENDBRANCH  58  61
ENDBRANCH  57  58
ENDBRANCH  55  57
ENDBRANCH  52  55
ENDBRANCH  49  52
ENDBRANCH  47  49
BRANCH  47  72
ATOM     72  C24 non d ame      -9.770  10.713  65.810  0.00  0.00    -0.039 C 
ATOM     73  H35 non d ame      -9.713   9.762  65.280  0.00  0.00     0.036 H 
ATOM     74  H36 non d ame     -10.424  10.815  66.676  0.00  0.00     0.036 H 
BRANCH  72  75
ATOM     75  C25 non d ame     -10.218  11.822  64.745  0.00  0.00    -0.001 C 
ATOM     76  C26 non d ame     -11.605  12.550  65.244  0.00  0.00    -0.035 C 
ATOM     77  C27 non d ame     -12.504  12.516  64.232  0.00  0.00     0.085 C 
ATOM     78  H38 non d ame     -12.079  11.955  66.025  0.00  0.00     0.036 H 
ATOM     79  H39 non d ame     -11.434  13.615  65.398  0.00  0.00     0.036 H 
ATOM     80  N5  non d ame     -11.975  11.547  63.203  0.00  0.00    -0.049 N 
ATOM     81  H40 non d ame     -13.418  12.110  64.667  0.00  0.00     0.075 H 
ATOM     82  H41 non d ame     -12.502  13.520  63.808  0.00  0.00     0.075 H 
ATOM     83  C28 non d ame     -10.427  11.297  63.583  0.00  0.00     0.193 C 
ATOM     84  H42 non d ame     -12.483  10.683  63.336  0.00  0.00     0.280 HD
ATOM     85  H43 non d ame     -12.015  12.023  62.313  0.00  0.00     0.280 HD
ATOM     86  H44 non d ame      -9.631  11.770  63.007  0.00  0.00     0.129 H 
ATOM     87  H37 non d ame      -9.393  12.473  64.454  0.00  0.00     0.046 H 
BRANCH  83  88
ATOM     88  O6  non d ame     -10.133   9.899  63.563  0.00  0.00    -0.369 OA
ATOM     89  H45 non d ame     -10.384   9.507  64.403  0.00  0.00     0.212 HD
ENDBRANCH  83  88
ENDBRANCH  72  75
ENDBRANCH  47  72
ENDBRANCH  45  47
ENDBRANCH   1  43
BRANCH   1  90
ATOM     90  C16 non d ame      -6.266  14.740  68.980  0.00  0.00    -0.035 C 
ATOM     91  H21 non d ame      -6.800  15.302  69.747  0.00  0.00     0.037 H 
ATOM     92  H22 non d ame      -5.853  13.758  69.214  0.00  0.00     0.037 H 
BRANCH  90  93
ATOM     93  C17 non d ame      -5.064  15.631  68.536  0.00  0.00    -0.059 C 
ATOM     94  H23 non d ame      -4.756  16.225  69.397  0.00  0.00     0.038 H 
BRANCH  93  95
ATOM     95  C18 non d ame      -3.835  14.780  68.080  0.00  0.00    -0.073 C 
ATOM     96  H24 non d ame      -3.638  14.003  68.818  0.00  0.00     0.028 H 
ATOM     97  H25 non d ame      -4.051  14.319  67.116  0.00  0.00     0.028 H 
ATOM     98  H26 non d ame      -2.961  15.425  67.988  0.00  0.00     0.028 H 
ENDBRANCH  93  95
BRANCH  93  99
ATOM     99  C19 non d ame      -5.486  16.610  67.437  0.00  0.00    -0.073 C 
ATOM    100  H27 non d ame      -5.321  16.154  66.461  0.00  0.00     0.028 H 
ATOM    101  H28 non d ame      -6.543  16.851  67.552  0.00  0.00     0.028 H 
ATOM    102  H29 non d ame      -4.895  17.523  67.516  0.00  0.00     0.028 H 
ENDBRANCH  93  99
ENDBRANCH  90  93
ENDBRANCH   1  90
TORSDOF 26
ENDMDL
MODEL 17
REMARK VINA RESULT:      -6.2      3.318      9.271
REMARK  26 active torsions:
REMARK  status: ('A' for Active; 'I' for Inactive)
REMARK    1  A    between atoms: C2_2  and  C3_3 
REMARK    2  A    between atoms: C4_6  and  C5_7 
REMARK       I    between atoms: C5_7  and  N2_9 
REMARK    3  A    between atoms: N2_9  and  C6_10 
REMARK    4  A    between atoms: C6_10  and  C7_11 
REMARK    5  A    between atoms: C6_10  and  C8_13 
REMARK       I    between atoms: C7_11  and  N3_14 
REMARK    6  A    between atoms: N3_14  and  C9_15 
REMARK    7  A    between atoms: C9_15  and  C10_16 
REMARK    8  A    between atoms: C9_15  and  C11_18 
REMARK       I    between atoms: C10_16  and  N4_21 
REMARK    9  A    between atoms: C11_18  and  C12_19 
REMARK   10  A    between atoms: C11_18  and  C13_20 
REMARK   11  A    between atoms: N4_21  and  C14_22 
REMARK   12  A    between atoms: C14_22  and  C15_23 
REMARK   13  A    between atoms: C14_22  and  C16_25 
REMARK       I    between atoms: C15_23  and  N6_40 
REMARK   14  A    between atoms: C16_25  and  C17_26 
REMARK   15  A    between atoms: C17_26  and  C18_27 
REMARK   16  A    between atoms: C17_26  and  C19_28 
REMARK   17  A    between atoms: C20_29  and  C21_30 
REMARK   18  A    between atoms: C20_29  and  C24_33 
REMARK   19  A    between atoms: C20_29  and  N6_40 
REMARK   20  A    between atoms: C21_30  and  C22_31 
REMARK   21  A    between atoms: C22_31  and  C23_32 
REMARK   22  A    between atoms: C23_32  and  O8_43 
REMARK   23  A    between atoms: C24_33  and  C25_34 
REMARK   24  A    between atoms: C28_38  and  O6_39 
REMARK   25  A    between atoms: C29_42  and  O8_43 
REMARK   26  A    between atoms: C29_42  and  C35_49 
ROOT
ATOM      1  C14 non d ame      -8.357   8.590  62.827  0.00  0.00     0.089 C 
ATOM      2  H20 non d ame      -8.792   8.652  61.830  0.00  0.00     0.087 H 
ENDROOT
BRANCH   1   3
ATOM      3  N4  non d ame      -9.265   9.261  63.745  0.00  0.00    -0.346 N 
ATOM      4  C10 non d ame      -9.763  10.652  63.442  0.00  0.00     0.241 C 
ATOM      5  O4  non d ame      -9.416  11.212  62.455  0.00  0.00    -0.271 OA
ATOM      6  H19 non d ame      -9.546   8.769  64.581  0.00  0.00     0.163 HD
BRANCH   4   7
ATOM      7  C9  non d ame     -10.707  11.330  64.401  0.00  0.00     0.092 C 
ATOM      8  H11 non d ame     -11.331  10.577  64.882  0.00  0.00     0.088 H 
BRANCH   7   9
ATOM      9  N3  non d ame      -9.938  11.995  65.457  0.00  0.00    -0.346 N 
ATOM     10  C7  non d ame      -9.652  11.299  66.687  0.00  0.00     0.240 C 
ATOM     11  O3  non d ame     -10.035  10.204  66.845  0.00  0.00    -0.271 OA
ATOM     12  H10 non d ame      -9.602  12.940  65.336  0.00  0.00     0.163 HD
BRANCH  10  13
ATOM     13  C6  non d ame      -8.836  12.013  67.809  0.00  0.00     0.086 C 
ATOM     14  H6  non d ame      -8.174  12.788  67.421  0.00  0.00     0.086 H 
BRANCH  13  15
ATOM     15  N2  non d ame      -9.759  12.672  68.717  0.00  0.00    -0.343 N 
ATOM     16  C5  non d ame     -10.258  14.011  68.394  0.00  0.00     0.273 C 
ATOM     17  O2  non d ame      -9.908  14.550  67.402  0.00  0.00    -0.266 OA
ATOM     18  H5  non d ame     -10.051  12.205  69.564  0.00  0.00     0.163 HD
BRANCH  16  19
ATOM     19  C4  non d ame     -11.236  14.718  69.345  0.00  0.00     0.154 A 
ATOM     20  C1  non d ame     -12.108  14.107  70.301  0.00  0.00    -0.017 A 
ATOM     21  C2  non d ame     -12.789  15.183  70.912  0.00  0.00     0.077 A 
ATOM     22  H1  non d ame     -12.228  13.045  70.517  0.00  0.00     0.091 H 
ATOM     23  O1  non d ame     -12.350  16.279  70.366  0.00  0.00    -0.218 OA
ATOM     24  N1  non d ame     -11.444  16.034  69.449  0.00  0.00    -0.123 NA
BRANCH  21  25
ATOM     25  C3  non d ame     -13.840  15.078  72.009  0.00  0.00    -0.029 C 
ATOM     26  H2  non d ame     -13.574  15.741  72.833  0.00  0.00     0.036 H 
ATOM     27  H3  non d ame     -14.812  15.365  71.609  0.00  0.00     0.036 H 
ATOM     28  H4  non d ame     -13.886  14.050  72.372  0.00  0.00     0.036 H 
ENDBRANCH  21  25
ENDBRANCH  16  19
ENDBRANCH  13  15
BRANCH  13  29
ATOM     29  C8  non d ame      -8.010  10.998  68.557  0.00  0.00    -0.049 C 
ATOM     30  H7  non d ame      -7.851  11.342  69.580  0.00  0.00     0.030 H 
ATOM     31  H8  non d ame      -8.535  10.043  68.572  0.00  0.00     0.030 H 
ATOM     32  H9  non d ame      -7.047  10.877  68.062  0.00  0.00     0.030 H 
ENDBRANCH  13  29
ENDBRANCH  10  13
ENDBRANCH   7   9
BRANCH   7  33
ATOM     33  C11 non d ame     -11.553  12.388  63.634  0.00  0.00    -0.033 C 
ATOM     34  H12 non d ame     -11.005  12.654  62.729  0.00  0.00     0.042 H 
BRANCH  33  35
ATOM     35  C12 non d ame     -12.931  11.804  63.193  0.00  0.00    -0.071 C 
ATOM     36  H13 non d ame     -13.132  10.889  63.751  0.00  0.00     0.028 H 
ATOM     37  H14 non d ame     -13.716  12.532  63.396  0.00  0.00     0.028 H 
ATOM     38  H15 non d ame     -12.907  11.582  62.127  0.00  0.00     0.028 H 
ENDBRANCH  33  35
BRANCH  33  39
ATOM     39  C13 non d ame     -11.734  13.685  64.487  0.00  0.00    -0.071 C 
ATOM     40  H16 non d ame     -12.604  14.236  64.131  0.00  0.00     0.028 H 
ATOM     41  H17 non d ame     -11.879  13.414  65.533  0.00  0.00     0.028 H 
ATOM     42  H18 non d ame     -10.845  14.308  64.393  0.00  0.00     0.028 H 
ENDBRANCH  33  39
ENDBRANCH   7  33
ENDBRANCH   4   7
ENDBRANCH   1   3
BRANCH   1  43
ATOM     43  C15 non d ame      -8.176   7.118  63.298  0.00  0.00     0.240 C 
ATOM     44  O5  non d ame      -7.797   6.294  62.530  0.00  0.00    -0.271 OA
ATOM     45  N6  non d ame      -8.466   6.738  64.710  0.00  0.00    -0.355 N 
ATOM     46  H46 non d ame      -8.784   7.430  65.373  0.00  0.00     0.162 HD
BRANCH  45  47
ATOM     47  C20 non d ame      -8.288   5.335  65.142  0.00  0.00     0.013 C 
ATOM     48  H30 non d ame      -8.610   4.688  64.326  0.00  0.00     0.072 H 
BRANCH  47  49
ATOM     49  C21 non d ame      -9.133   5.078  66.369  0.00  0.00    -0.038 C 
ATOM     50  H31 non d ame      -9.765   4.226  66.119  0.00  0.00     0.036 H 
ATOM     51  H32 non d ame      -8.432   5.012  67.201  0.00  0.00     0.036 H 
BRANCH  49  52
ATOM     52  C22 non d ame     -10.087   6.248  66.694  0.00  0.00     0.018 C 
ATOM     53  H33 non d ame      -9.568   7.151  66.372  0.00  0.00     0.048 H 
ATOM     54  H34 non d ame     -11.045   5.981  66.247  0.00  0.00     0.048 H 
BRANCH  52  55
ATOM     55  C23 non d ame     -10.360   6.430  68.213  0.00  0.00     0.259 C 
ATOM     56  O7  non d ame     -10.852   5.554  68.847  0.00  0.00    -0.265 OA
BRANCH  55  57
ATOM     57  O8  non d ame     -10.025   7.663  68.838  0.00  0.00    -0.317 OA
BRANCH  57  58
ATOM     58  C29 non d ame      -9.976   7.598  70.266  0.00  0.00     0.052 C 
ATOM     59  H47 non d ame     -10.196   6.561  70.522  0.00  0.00     0.082 H 
ATOM     60  H48 non d ame      -9.020   8.038  70.549  0.00  0.00     0.082 H 
BRANCH  58  61
ATOM     61  C35 non d ame     -11.114   8.493  70.826  0.00  0.00    -0.034 A 
ATOM     62  C30 non d ame     -12.050   7.961  71.706  0.00  0.00    -0.075 A 
ATOM     63  C31 non d ame     -13.072   8.765  72.209  0.00  0.00    -0.082 A 
ATOM     64  H49 non d ame     -11.984   6.914  72.002  0.00  0.00     0.084 H 
ATOM     65  C32 non d ame     -13.157  10.106  71.826  0.00  0.00    -0.083 A 
ATOM     66  H50 non d ame     -13.803   8.345  72.900  0.00  0.00     0.083 H 
ATOM     67  C33 non d ame     -12.222  10.632  70.945  0.00  0.00    -0.082 A 
ATOM     68  H51 non d ame     -13.952  10.742  72.215  0.00  0.00     0.083 H 
ATOM     69  C34 non d ame     -11.197   9.833  70.442  0.00  0.00    -0.075 A 
ATOM     70  H52 non d ame     -12.292  11.679  70.647  0.00  0.00     0.083 H 
ATOM     71  H53 non d ame     -10.466  10.254  69.752  0.00  0.00     0.084 H 
ENDBRANCH  58  61
ENDBRANCH  57  58
ENDBRANCH  55  57
ENDBRANCH  52  55
ENDBRANCH  49  52
ENDBRANCH  47  49
BRANCH  47  72
ATOM     72  C24 non d ame      -6.819   5.079  65.472  0.00  0.00    -0.039 C 
ATOM     73  H35 non d ame      -6.672   4.007  65.334  0.00  0.00     0.036 H 
ATOM     74  H36 non d ame      -6.257   5.788  64.865  0.00  0.00     0.036 H 
BRANCH  72  75
ATOM     75  C25 non d ame      -6.490   5.406  67.006  0.00  0.00    -0.001 C 
ATOM     76  C26 non d ame      -5.878   6.927  67.135  0.00  0.00    -0.035 C 
ATOM     77  C27 non d ame      -4.724   6.874  67.842  0.00  0.00     0.085 C 
ATOM     78  H38 non d ame      -5.562   7.287  66.157  0.00  0.00     0.036 H 
ATOM     79  H39 non d ame      -6.530   7.541  67.757  0.00  0.00     0.036 H 
ATOM     80  N5  non d ame      -4.323   5.421  67.925  0.00  0.00    -0.049 N 
ATOM     81  H40 non d ame      -3.989   7.411  67.241  0.00  0.00     0.075 H 
ATOM     82  H41 non d ame      -4.977   7.230  68.840  0.00  0.00     0.075 H 
ATOM     83  C28 non d ame      -5.627   4.575  67.487  0.00  0.00     0.193 C 
ATOM     84  H42 non d ame      -3.602   5.282  67.232  0.00  0.00     0.280 HD
ATOM     85  H43 non d ame      -4.130   5.232  68.899  0.00  0.00     0.280 HD
ATOM     86  H44 non d ame      -6.235   4.068  68.236  0.00  0.00     0.129 H 
ATOM     87  H37 non d ame      -7.315   5.145  67.670  0.00  0.00     0.046 H 
BRANCH  83  88
ATOM     88  O6  non d ame      -5.265   3.567  66.542  0.00  0.00    -0.369 OA
ATOM     89  H45 non d ame      -5.485   2.702  66.896  0.00  0.00     0.212 HD
ENDBRANCH  83  88
ENDBRANCH  72  75
ENDBRANCH  47  72
ENDBRANCH  45  47
ENDBRANCH   1  43
BRANCH   1  90
ATOM     90  C16 non d ame      -7.014   9.302  62.848  0.00  0.00    -0.035 C 
ATOM     91  H21 non d ame      -6.489   8.955  61.958  0.00  0.00     0.037 H 
ATOM     92  H22 non d ame      -7.250  10.360  62.963  0.00  0.00     0.037 H 
BRANCH  90  93
ATOM     93  C17 non d ame      -6.118   8.915  64.068  0.00  0.00    -0.059 C 
ATOM     94  H23 non d ame      -6.610   8.096  64.593  0.00  0.00     0.038 H 
BRANCH  93  95
ATOM     95  C18 non d ame      -4.704   8.417  63.626  0.00  0.00    -0.073 C 
ATOM     96  H24 non d ame      -4.360   9.009  62.778  0.00  0.00     0.028 H 
ATOM     97  H25 non d ame      -4.005   8.528  64.455  0.00  0.00     0.028 H 
ATOM     98  H26 non d ame      -4.763   7.367  63.338  0.00  0.00     0.028 H 
ENDBRANCH  93  95
BRANCH  93  99
ATOM     99  C19 non d ame      -6.001  10.081  65.053  0.00  0.00    -0.073 C 
ATOM    100  H27 non d ame      -6.819  10.032  65.773  0.00  0.00     0.028 H 
ATOM    101  H28 non d ame      -5.049  10.018  65.579  0.00  0.00     0.028 H 
ATOM    102  H29 non d ame      -6.053  11.024  64.508  0.00  0.00     0.028 H 
ENDBRANCH  93  99
ENDBRANCH  90  93
ENDBRANCH   1  90
TORSDOF 26
ENDMDL
MODEL 18
REMARK VINA RESULT:      -6.2      2.798      6.137
REMARK  26 active torsions:
REMARK  status: ('A' for Active; 'I' for Inactive)
REMARK    1  A    between atoms: C2_2  and  C3_3 
REMARK    2  A    between atoms: C4_6  and  C5_7 
REMARK       I    between atoms: C5_7  and  N2_9 
REMARK    3  A    between atoms: N2_9  and  C6_10 
REMARK    4  A    between atoms: C6_10  and  C7_11 
REMARK    5  A    between atoms: C6_10  and  C8_13 
REMARK       I    between atoms: C7_11  and  N3_14 
REMARK    6  A    between atoms: N3_14  and  C9_15 
REMARK    7  A    between atoms: C9_15  and  C10_16 
REMARK    8  A    between atoms: C9_15  and  C11_18 
REMARK       I    between atoms: C10_16  and  N4_21 
REMARK    9  A    between atoms: C11_18  and  C12_19 
REMARK   10  A    between atoms: C11_18  and  C13_20 
REMARK   11  A    between atoms: N4_21  and  C14_22 
REMARK   12  A    between atoms: C14_22  and  C15_23 
REMARK   13  A    between atoms: C14_22  and  C16_25 
REMARK       I    between atoms: C15_23  and  N6_40 
REMARK   14  A    between atoms: C16_25  and  C17_26 
REMARK   15  A    between atoms: C17_26  and  C18_27 
REMARK   16  A    between atoms: C17_26  and  C19_28 
REMARK   17  A    between atoms: C20_29  and  C21_30 
REMARK   18  A    between atoms: C20_29  and  C24_33 
REMARK   19  A    between atoms: C20_29  and  N6_40 
REMARK   20  A    between atoms: C21_30  and  C22_31 
REMARK   21  A    between atoms: C22_31  and  C23_32 
REMARK   22  A    between atoms: C23_32  and  O8_43 
REMARK   23  A    between atoms: C24_33  and  C25_34 
REMARK   24  A    between atoms: C28_38  and  O6_39 
REMARK   25  A    between atoms: C29_42  and  O8_43 
REMARK   26  A    between atoms: C29_42  and  C35_49 
ROOT
ATOM      1  C14 non d ame     -11.883  14.608  69.486  0.00  0.00     0.089 C 
ATOM      2  H20 non d ame     -12.341  14.447  68.510  0.00  0.00     0.087 H 
ENDROOT
BRANCH   1   3
ATOM      3  N4  non d ame     -11.239  13.364  69.878  0.00  0.00    -0.346 N 
ATOM      4  C10 non d ame     -11.391  12.127  69.029  0.00  0.00     0.241 C 
ATOM      5  O4  non d ame     -12.040  12.157  68.035  0.00  0.00    -0.271 OA
ATOM      6  H19 non d ame     -10.694  13.358  70.728  0.00  0.00     0.163 HD
BRANCH   4   7
ATOM      7  C9  non d ame     -10.713  10.848  69.447  0.00  0.00     0.092 C 
ATOM      8  H11 non d ame     -10.138  11.028  70.355  0.00  0.00     0.088 H 
BRANCH   7   9
ATOM      9  N3  non d ame     -11.727   9.840  69.770  0.00  0.00    -0.346 N 
ATOM     10  C7  non d ame     -11.698   9.172  71.048  0.00  0.00     0.240 C 
ATOM     11  O3  non d ame     -10.865   9.433  71.828  0.00  0.00    -0.271 OA
ATOM     12  H10 non d ame     -12.451   9.603  69.107  0.00  0.00     0.163 HD
BRANCH  10  13
ATOM     13  C6  non d ame     -12.778   8.097  71.384  0.00  0.00     0.086 C 
ATOM     14  H6  non d ame     -13.014   7.456  70.535  0.00  0.00     0.086 H 
BRANCH  13  15
ATOM     15  N2  non d ame     -12.268   7.229  72.433  0.00  0.00    -0.343 N 
ATOM     16  C5  non d ame     -11.525   6.020  72.070  0.00  0.00     0.273 C 
ATOM     17  O2  non d ame     -11.345   5.754  70.932  0.00  0.00    -0.266 OA
ATOM     18  H5  non d ame     -12.429   7.463  73.402  0.00  0.00     0.163 HD
BRANCH  16  19
ATOM     19  C4  non d ame     -10.979   5.094  73.167  0.00  0.00     0.154 A 
ATOM     20  C1  non d ame     -10.499   3.755  73.009  0.00  0.00    -0.017 A 
ATOM     21  C2  non d ame     -10.115   3.351  74.307  0.00  0.00     0.077 A 
ATOM     22  H1  non d ame     -10.438   3.167  72.093  0.00  0.00     0.091 H 
ATOM     23  O1  non d ame     -10.350   4.348  75.109  0.00  0.00    -0.218 OA
ATOM     24  N1  non d ame     -10.855   5.376  74.467  0.00  0.00    -0.123 NA
BRANCH  21  25
ATOM     25  C3  non d ame      -9.533   1.998  74.695  0.00  0.00    -0.029 C 
ATOM     26  H2  non d ame      -8.476   1.966  74.427  0.00  0.00     0.036 H 
ATOM     27  H3  non d ame      -9.640   1.851  75.769  0.00  0.00     0.036 H 
ATOM     28  H4  non d ame     -10.065   1.207  74.165  0.00  0.00     0.036 H 
ENDBRANCH  21  25
ENDBRANCH  16  19
ENDBRANCH  13  15
BRANCH  13  29
ATOM     29  C8  non d ame     -14.041   8.778  71.847  0.00  0.00    -0.049 C 
ATOM     30  H7  non d ame     -13.846   9.317  72.774  0.00  0.00     0.030 H 
ATOM     31  H8  non d ame     -14.377   9.479  71.082  0.00  0.00     0.030 H 
ATOM     32  H9  non d ame     -14.815   8.030  72.018  0.00  0.00     0.030 H 
ENDBRANCH  13  29
ENDBRANCH  10  13
ENDBRANCH   7   9
BRANCH   7  33
ATOM     33  C11 non d ame      -9.822  10.329  68.282  0.00  0.00    -0.033 C 
ATOM     34  H12 non d ame      -9.730  11.135  67.554  0.00  0.00     0.042 H 
BRANCH  33  35
ATOM     35  C12 non d ame      -8.384   9.979  68.778  0.00  0.00    -0.071 C 
ATOM     36  H13 non d ame      -7.668  10.670  68.333  0.00  0.00     0.028 H 
ATOM     37  H14 non d ame      -8.344  10.065  69.864  0.00  0.00     0.028 H 
ATOM     38  H15 non d ame      -8.136   8.960  68.484  0.00  0.00     0.028 H 
ENDBRANCH  33  35
BRANCH  33  39
ATOM     39  C13 non d ame     -10.487   9.108  67.570  0.00  0.00    -0.071 C 
ATOM     40  H16 non d ame     -10.231   9.121  66.510  0.00  0.00     0.028 H 
ATOM     41  H17 non d ame     -10.125   8.183  68.019  0.00  0.00     0.028 H 
ATOM     42  H18 non d ame     -11.570   9.168  67.683  0.00  0.00     0.028 H 
ENDBRANCH  33  39
ENDBRANCH   7  33
ENDBRANCH   4   7
ENDBRANCH   1   3
BRANCH   1  43
ATOM     43  C15 non d ame     -10.808  15.733  69.452  0.00  0.00     0.240 C 
ATOM     44  O5  non d ame     -11.067  16.810  69.880  0.00  0.00    -0.271 OA
ATOM     45  N6  non d ame      -9.453  15.462  68.892  0.00  0.00    -0.355 N 
ATOM     46  H46 non d ame      -9.220  14.549  68.530  0.00  0.00     0.162 HD
BRANCH  45  47
ATOM     47  C20 non d ame      -8.442  16.541  68.868  0.00  0.00     0.013 C 
ATOM     48  H30 non d ame      -8.663  17.227  69.686  0.00  0.00     0.072 H 
BRANCH  47  49
ATOM     49  C21 non d ame      -8.522  17.272  67.547  0.00  0.00    -0.038 C 
ATOM     50  H31 non d ame      -9.345  17.979  67.650  0.00  0.00     0.036 H 
ATOM     51  H32 non d ame      -7.513  17.635  67.350  0.00  0.00     0.036 H 
BRANCH  49  52
ATOM     52  C22 non d ame      -8.889  16.342  66.370  0.00  0.00     0.018 C 
ATOM     53  H33 non d ame      -8.047  16.394  65.679  0.00  0.00     0.048 H 
ATOM     54  H34 non d ame      -9.166  15.389  66.821  0.00  0.00     0.048 H 
BRANCH  52  55
ATOM     55  C23 non d ame     -10.133  16.812  65.565  0.00  0.00     0.259 C 
ATOM     56  O7  non d ame     -10.483  17.947  65.604  0.00  0.00    -0.265 OA
BRANCH  55  57
ATOM     57  O8  non d ame     -10.859  15.867  64.789  0.00  0.00    -0.317 OA
BRANCH  57  58
ATOM     58  C29 non d ame     -11.485  14.838  65.561  0.00  0.00     0.052 C 
ATOM     59  H47 non d ame     -10.991  14.856  66.533  0.00  0.00     0.082 H 
ATOM     60  H48 non d ame     -12.556  15.027  65.491  0.00  0.00     0.082 H 
BRANCH  58  61
ATOM     61  C35 non d ame     -11.182  13.477  64.881  0.00  0.00    -0.034 A 
ATOM     62  C30 non d ame     -11.972  13.035  63.825  0.00  0.00    -0.075 A 
ATOM     63  C31 non d ame     -11.700  11.812  63.213  0.00  0.00    -0.082 A 
ATOM     64  H49 non d ame     -12.803  13.647  63.475  0.00  0.00     0.084 H 
ATOM     65  C32 non d ame     -10.634  11.028  63.665  0.00  0.00    -0.083 A 
ATOM     66  H50 non d ame     -12.319  11.469  62.384  0.00  0.00     0.083 H 
ATOM     67  C33 non d ame      -9.851  11.472  64.721  0.00  0.00    -0.082 A 
ATOM     68  H51 non d ame     -10.414  10.071  63.192  0.00  0.00     0.083 H 
ATOM     69  C34 non d ame     -10.118  12.694  65.334  0.00  0.00    -0.075 A 
ATOM     70  H52 non d ame      -9.022  10.857  65.072  0.00  0.00     0.083 H 
ATOM     71  H53 non d ame      -9.497  13.036  66.162  0.00  0.00     0.084 H 
ENDBRANCH  58  61
ENDBRANCH  57  58
ENDBRANCH  55  57
ENDBRANCH  52  55
ENDBRANCH  49  52
ENDBRANCH  47  49
BRANCH  47  72
ATOM     72  C24 non d ame      -7.046  15.945  69.038  0.00  0.00    -0.039 C 
ATOM     73  H35 non d ame      -6.417  16.469  68.317  0.00  0.00     0.036 H 
ATOM     74  H36 non d ame      -6.828  16.015  70.103  0.00  0.00     0.036 H 
BRANCH  72  75
ATOM     75  C25 non d ame      -7.014  14.391  68.650  0.00  0.00    -0.001 C 
ATOM     76  C26 non d ame      -6.589  13.495  69.962  0.00  0.00    -0.035 C 
ATOM     77  C27 non d ame      -5.570  12.672  69.617  0.00  0.00     0.085 C 
ATOM     78  H38 non d ame      -6.151  14.137  70.726  0.00  0.00     0.036 H 
ATOM     79  H39 non d ame      -7.395  12.809  70.223  0.00  0.00     0.036 H 
ATOM     80  N5  non d ame      -5.045  13.154  68.286  0.00  0.00    -0.049 N 
ATOM     81  H40 non d ame      -4.803  12.823  70.378  0.00  0.00     0.075 H 
ATOM     82  H41 non d ame      -6.022  11.689  69.486  0.00  0.00     0.075 H 
ATOM     83  C28 non d ame      -6.165  14.162  67.706  0.00  0.00     0.193 C 
ATOM     84  H42 non d ame      -4.208  13.682  68.484  0.00  0.00     0.280 HD
ATOM     85  H43 non d ame      -5.001  12.343  67.686  0.00  0.00     0.280 HD
ATOM     86  H44 non d ame      -6.836  13.843  66.908  0.00  0.00     0.129 H 
ATOM     87  H37 non d ame      -7.908  14.082  68.108  0.00  0.00     0.046 H 
BRANCH  83  88
ATOM     88  O6  non d ame      -5.549  15.361  67.231  0.00  0.00    -0.369 OA
ATOM     89  H45 non d ame      -5.063  15.776  67.947  0.00  0.00     0.212 HD
ENDBRANCH  83  88
ENDBRANCH  72  75
ENDBRANCH  47  72
ENDBRANCH  45  47
ENDBRANCH   1  43
BRANCH   1  90
ATOM     90  C16 non d ame     -12.954  14.956  70.507  0.00  0.00    -0.035 C 
ATOM     91  H21 non d ame     -12.866  16.032  70.663  0.00  0.00     0.037 H 
ATOM     92  H22 non d ame     -13.879  14.538  70.109  0.00  0.00     0.037 H 
BRANCH  90  93
ATOM     93  C17 non d ame     -12.731  14.288  71.901  0.00  0.00    -0.059 C 
ATOM     94  H23 non d ame     -11.795  13.732  71.855  0.00  0.00     0.038 H 
BRANCH  93  95
ATOM     95  C18 non d ame     -12.604  15.343  73.046  0.00  0.00    -0.073 C 
ATOM     96  H24 non d ame     -13.598  15.646  73.373  0.00  0.00     0.028 H 
ATOM     97  H25 non d ame     -12.063  14.905  73.885  0.00  0.00     0.028 H 
ATOM     98  H26 non d ame     -12.060  16.214  72.679  0.00  0.00     0.028 H 
ENDBRANCH  93  95
BRANCH  93  99
ATOM     99  C19 non d ame     -13.843  13.282  72.209  0.00  0.00    -0.073 C 
ATOM    100  H27 non d ame     -14.709  13.494  71.581  0.00  0.00     0.028 H 
ATOM    101  H28 non d ame     -13.485  12.272  72.006  0.00  0.00     0.028 H 
ATOM    102  H29 non d ame     -14.126  13.363  73.258  0.00  0.00     0.028 H 
ENDBRANCH  93  99
ENDBRANCH  90  93
ENDBRANCH   1  90
TORSDOF 26
ENDMDL
MODEL 19
REMARK VINA RESULT:      -6.2      3.321      9.259
REMARK  26 active torsions:
REMARK  status: ('A' for Active; 'I' for Inactive)
REMARK    1  A    between atoms: C2_2  and  C3_3 
REMARK    2  A    between atoms: C4_6  and  C5_7 
REMARK       I    between atoms: C5_7  and  N2_9 
REMARK    3  A    between atoms: N2_9  and  C6_10 
REMARK    4  A    between atoms: C6_10  and  C7_11 
REMARK    5  A    between atoms: C6_10  and  C8_13 
REMARK       I    between atoms: C7_11  and  N3_14 
REMARK    6  A    between atoms: N3_14  and  C9_15 
REMARK    7  A    between atoms: C9_15  and  C10_16 
REMARK    8  A    between atoms: C9_15  and  C11_18 
REMARK       I    between atoms: C10_16  and  N4_21 
REMARK    9  A    between atoms: C11_18  and  C12_19 
REMARK   10  A    between atoms: C11_18  and  C13_20 
REMARK   11  A    between atoms: N4_21  and  C14_22 
REMARK   12  A    between atoms: C14_22  and  C15_23 
REMARK   13  A    between atoms: C14_22  and  C16_25 
REMARK       I    between atoms: C15_23  and  N6_40 
REMARK   14  A    between atoms: C16_25  and  C17_26 
REMARK   15  A    between atoms: C17_26  and  C18_27 
REMARK   16  A    between atoms: C17_26  and  C19_28 
REMARK   17  A    between atoms: C20_29  and  C21_30 
REMARK   18  A    between atoms: C20_29  and  C24_33 
REMARK   19  A    between atoms: C20_29  and  N6_40 
REMARK   20  A    between atoms: C21_30  and  C22_31 
REMARK   21  A    between atoms: C22_31  and  C23_32 
REMARK   22  A    between atoms: C23_32  and  O8_43 
REMARK   23  A    between atoms: C24_33  and  C25_34 
REMARK   24  A    between atoms: C28_38  and  O6_39 
REMARK   25  A    between atoms: C29_42  and  O8_43 
REMARK   26  A    between atoms: C29_42  and  C35_49 
ROOT
ATOM      1  C14 non d ame      -8.230   8.234  62.759  0.00  0.00     0.089 C 
ATOM      2  H20 non d ame      -8.744   8.288  61.798  0.00  0.00     0.087 H 
ENDROOT
BRANCH   1   3
ATOM      3  N4  non d ame      -8.997   9.024  63.711  0.00  0.00    -0.346 N 
ATOM      4  C10 non d ame      -9.508  10.391  63.330  0.00  0.00     0.241 C 
ATOM      5  O4  non d ame      -9.286  10.836  62.253  0.00  0.00    -0.271 OA
ATOM      6  H19 non d ame      -9.173   8.628  64.623  0.00  0.00     0.163 HD
BRANCH   4   7
ATOM      7  C9  non d ame     -10.305  11.192  64.326  0.00  0.00     0.092 C 
ATOM      8  H11 non d ame     -10.994  10.529  64.850  0.00  0.00     0.088 H 
BRANCH   7   9
ATOM      9  N3  non d ame      -9.402  11.760  65.332  0.00  0.00    -0.346 N 
ATOM     10  C7  non d ame      -9.592  11.450  66.728  0.00  0.00     0.240 C 
ATOM     11  O3  non d ame     -10.467  10.747  67.059  0.00  0.00    -0.271 OA
ATOM     12  H10 non d ame      -8.644  12.370  65.061  0.00  0.00     0.163 HD
BRANCH  10  13
ATOM     13  C6  non d ame      -8.629  12.061  67.793  0.00  0.00     0.086 C 
ATOM     14  H6  non d ame      -7.653  12.317  67.383  0.00  0.00     0.086 H 
BRANCH  13  15
ATOM     15  N2  non d ame      -9.206  13.296  68.297  0.00  0.00    -0.343 N 
ATOM     16  C5  non d ame      -8.977  14.547  67.570  0.00  0.00     0.273 C 
ATOM     17  O2  non d ame      -8.326  14.549  66.583  0.00  0.00    -0.266 OA
ATOM     18  H5  non d ame      -9.759  13.286  69.142  0.00  0.00     0.163 HD
BRANCH  16  19
ATOM     19  C4  non d ame      -9.582  15.861  68.089  0.00  0.00     0.154 A 
ATOM     20  C1  non d ame      -9.237  17.190  67.687  0.00  0.00    -0.017 A 
ATOM     21  C2  non d ame     -10.073  18.031  68.455  0.00  0.00     0.077 A 
ATOM     22  H1  non d ame      -8.493  17.498  66.952  0.00  0.00     0.091 H 
ATOM     23  O1  non d ame     -10.810  17.264  69.205  0.00  0.00    -0.218 OA
ATOM     24  N1  non d ame     -10.541  15.994  69.009  0.00  0.00    -0.123 NA
BRANCH  21  25
ATOM     25  C3  non d ame     -10.107  19.553  68.411  0.00  0.00    -0.029 C 
ATOM     26  H2  non d ame     -10.686  19.929  69.255  0.00  0.00     0.036 H 
ATOM     27  H3  non d ame      -9.090  19.940  68.466  0.00  0.00     0.036 H 
ATOM     28  H4  non d ame     -10.569  19.880  67.479  0.00  0.00     0.036 H 
ENDBRANCH  21  25
ENDBRANCH  16  19
ENDBRANCH  13  15
BRANCH  13  29
ATOM     29  C8  non d ame      -8.441  11.081  68.924  0.00  0.00    -0.049 C 
ATOM     30  H7  non d ame      -7.401  11.099  69.251  0.00  0.00     0.030 H 
ATOM     31  H8  non d ame      -9.088  11.357  69.756  0.00  0.00     0.030 H 
ATOM     32  H9  non d ame      -8.696  10.078  68.582  0.00  0.00     0.030 H 
ENDBRANCH  13  29
ENDBRANCH  10  13
ENDBRANCH   7   9
BRANCH   7  33
ATOM     33  C11 non d ame     -11.047  12.345  63.589  0.00  0.00    -0.033 C 
ATOM     34  H12 non d ame     -10.531  12.518  62.645  0.00  0.00     0.042 H 
BRANCH  33  35
ATOM     35  C12 non d ame     -12.519  11.950  63.253  0.00  0.00    -0.071 C 
ATOM     36  H13 non d ame     -12.554  11.485  62.267  0.00  0.00     0.028 H 
ATOM     37  H14 non d ame     -12.885  11.245  63.999  0.00  0.00     0.028 H 
ATOM     38  H15 non d ame     -13.144  12.842  63.256  0.00  0.00     0.028 H 
ENDBRANCH  33  35
BRANCH  33  39
ATOM     39  C13 non d ame     -10.992  13.667  64.420  0.00  0.00    -0.071 C 
ATOM     40  H16 non d ame     -11.685  14.392  63.996  0.00  0.00     0.028 H 
ATOM     41  H17 non d ame     -11.271  13.459  65.453  0.00  0.00     0.028 H 
ATOM     42  H18 non d ame      -9.980  14.071  64.391  0.00  0.00     0.028 H 
ENDBRANCH  33  39
ENDBRANCH   7  33
ENDBRANCH   4   7
ENDBRANCH   1   3
BRANCH   1  43
ATOM     43  C15 non d ame      -8.131   6.776  63.291  0.00  0.00     0.240 C 
ATOM     44  O5  non d ame      -7.663   5.927  62.604  0.00  0.00    -0.271 OA
ATOM     45  N6  non d ame      -8.611   6.440  64.662  0.00  0.00    -0.355 N 
ATOM     46  H46 non d ame      -9.005   7.154  65.257  0.00  0.00     0.162 HD
BRANCH  45  47
ATOM     47  C20 non d ame      -8.507   5.049  65.154  0.00  0.00     0.013 C 
ATOM     48  H30 non d ame      -8.216   4.417  64.315  0.00  0.00     0.072 H 
BRANCH  47  49
ATOM     49  C21 non d ame      -9.850   4.608  65.691  0.00  0.00    -0.038 C 
ATOM     50  H31 non d ame     -10.580   5.292  65.257  0.00  0.00     0.036 H 
ATOM     51  H32 non d ame      -9.914   3.540  65.483  0.00  0.00     0.036 H 
BRANCH  49  52
ATOM     52  C22 non d ame      -9.963   4.763  67.223  0.00  0.00     0.018 C 
ATOM     53  H33 non d ame     -10.588   3.935  67.558  0.00  0.00     0.048 H 
ATOM     54  H34 non d ame      -8.939   4.855  67.587  0.00  0.00     0.048 H 
BRANCH  52  55
ATOM     55  C23 non d ame     -10.694   6.060  67.669  0.00  0.00     0.259 C 
ATOM     56  O7  non d ame     -10.767   6.993  66.938  0.00  0.00    -0.265 OA
BRANCH  55  57
ATOM     57  O8  non d ame     -11.266   6.125  68.970  0.00  0.00    -0.317 OA
BRANCH  57  58
ATOM     58  C29 non d ame     -10.561   6.980  69.874  0.00  0.00     0.052 C 
ATOM     59  H47 non d ame     -10.086   6.317  70.598  0.00  0.00     0.082 H 
ATOM     60  H48 non d ame      -9.950   7.631  69.249  0.00  0.00     0.082 H 
BRANCH  58  61
ATOM     61  C35 non d ame     -11.604   7.854  70.620  0.00  0.00    -0.034 A 
ATOM     62  C30 non d ame     -11.399   9.223  70.751  0.00  0.00    -0.075 A 
ATOM     63  C31 non d ame     -12.337  10.009  71.421  0.00  0.00    -0.082 A 
ATOM     64  H49 non d ame     -10.505   9.682  70.329  0.00  0.00     0.084 H 
ATOM     65  C32 non d ame     -13.482   9.418  71.963  0.00  0.00    -0.083 A 
ATOM     66  H50 non d ame     -12.174  11.082  71.520  0.00  0.00     0.083 H 
ATOM     67  C33 non d ame     -13.680   8.051  71.832  0.00  0.00    -0.082 A 
ATOM     68  H51 non d ame     -14.220  10.025  72.487  0.00  0.00     0.083 H 
ATOM     69  C34 non d ame     -12.747   7.263  71.162  0.00  0.00    -0.075 A 
ATOM     70  H52 non d ame     -14.574   7.593  72.258  0.00  0.00     0.083 H 
ATOM     71  H53 non d ame     -12.911   6.189  71.062  0.00  0.00     0.084 H 
ENDBRANCH  58  61
ENDBRANCH  57  58
ENDBRANCH  55  57
ENDBRANCH  52  55
ENDBRANCH  49  52
ENDBRANCH  47  49
BRANCH  47  72
ATOM     72  C24 non d ame      -7.463   4.971  66.265  0.00  0.00    -0.039 C 
ATOM     73  H35 non d ame      -7.897   5.507  67.110  0.00  0.00     0.036 H 
ATOM     74  H36 non d ame      -7.218   3.913  66.359  0.00  0.00     0.036 H 
BRANCH  72  75
ATOM     75  C25 non d ame      -6.113   5.734  65.865  0.00  0.00    -0.001 C 
ATOM     76  C26 non d ame      -4.975   4.647  65.386  0.00  0.00    -0.035 C 
ATOM     77  C27 non d ame      -3.832   4.880  66.075  0.00  0.00     0.085 C 
ATOM     78  H38 non d ame      -5.262   3.644  65.700  0.00  0.00     0.036 H 
ATOM     79  H39 non d ame      -4.692   4.834  64.351  0.00  0.00     0.036 H 
ATOM     80  N5  non d ame      -4.183   5.811  67.210  0.00  0.00    -0.049 N 
ATOM     81  H40 non d ame      -3.538   3.914  66.486  0.00  0.00     0.075 H 
ATOM     82  H41 non d ame      -3.174   5.400  65.379  0.00  0.00     0.075 H 
ATOM     83  C28 non d ame      -5.642   6.406  66.862  0.00  0.00     0.193 C 
ATOM     84  H42 non d ame      -4.258   5.238  68.038  0.00  0.00     0.280 HD
ATOM     85  H43 non d ame      -3.512   6.566  67.178  0.00  0.00     0.280 HD
ATOM     86  H44 non d ame      -5.750   7.423  66.484  0.00  0.00     0.129 H 
ATOM     87  H37 non d ame      -6.298   6.582  65.204  0.00  0.00     0.046 H 
BRANCH  83  88
ATOM     88  O6  non d ame      -6.491   6.334  68.009  0.00  0.00    -0.369 OA
ATOM     89  H45 non d ame      -6.308   5.525  68.492  0.00  0.00     0.212 HD
ENDBRANCH  83  88
ENDBRANCH  72  75
ENDBRANCH  47  72
ENDBRANCH  45  47
ENDBRANCH   1  43
BRANCH   1  90
ATOM     90  C16 non d ame      -6.837   8.828  62.631  0.00  0.00    -0.035 C 
ATOM     91  H21 non d ame      -6.341   8.238  61.860  0.00  0.00     0.037 H 
ATOM     92  H22 non d ame      -6.991   9.897  62.483  0.00  0.00     0.037 H 
BRANCH  90  93
ATOM     93  C17 non d ame      -5.972   8.682  63.923  0.00  0.00    -0.059 C 
ATOM     94  H23 non d ame      -6.494   8.001  64.595  0.00  0.00     0.038 H 
BRANCH  93  95
ATOM     95  C18 non d ame      -4.565   8.072  63.625  0.00  0.00    -0.073 C 
ATOM     96  H24 non d ame      -4.675   7.025  63.345  0.00  0.00     0.028 H 
ATOM     97  H25 non d ame      -4.098   8.620  62.806  0.00  0.00     0.028 H 
ATOM     98  H26 non d ame      -3.941   8.147  64.515  0.00  0.00     0.028 H 
ENDBRANCH  93  95
BRANCH  93  99
ATOM     99  C19 non d ame      -5.841  10.024  64.648  0.00  0.00    -0.073 C 
ATOM    100  H27 non d ame      -5.636   9.848  65.705  0.00  0.00     0.028 H 
ATOM    101  H28 non d ame      -5.023  10.596  64.209  0.00  0.00     0.028 H 
ATOM    102  H29 non d ame      -6.771  10.584  64.546  0.00  0.00     0.028 H 
ENDBRANCH  93  99
ENDBRANCH  90  93
ENDBRANCH   1  90
TORSDOF 26
ENDMDL
MODEL 20
REMARK VINA RESULT:      -6.2      2.739      8.122
REMARK  26 active torsions:
REMARK  status: ('A' for Active; 'I' for Inactive)
REMARK    1  A    between atoms: C2_2  and  C3_3 
REMARK    2  A    between atoms: C4_6  and  C5_7 
REMARK       I    between atoms: C5_7  and  N2_9 
REMARK    3  A    between atoms: N2_9  and  C6_10 
REMARK    4  A    between atoms: C6_10  and  C7_11 
REMARK    5  A    between atoms: C6_10  and  C8_13 
REMARK       I    between atoms: C7_11  and  N3_14 
REMARK    6  A    between atoms: N3_14  and  C9_15 
REMARK    7  A    between atoms: C9_15  and  C10_16 
REMARK    8  A    between atoms: C9_15  and  C11_18 
REMARK       I    between atoms: C10_16  and  N4_21 
REMARK    9  A    between atoms: C11_18  and  C12_19 
REMARK   10  A    between atoms: C11_18  and  C13_20 
REMARK   11  A    between atoms: N4_21  and  C14_22 
REMARK   12  A    between atoms: C14_22  and  C15_23 
REMARK   13  A    between atoms: C14_22  and  C16_25 
REMARK       I    between atoms: C15_23  and  N6_40 
REMARK   14  A    between atoms: C16_25  and  C17_26 
REMARK   15  A    between atoms: C17_26  and  C18_27 
REMARK   16  A    between atoms: C17_26  and  C19_28 
REMARK   17  A    between atoms: C20_29  and  C21_30 
REMARK   18  A    between atoms: C20_29  and  C24_33 
REMARK   19  A    between atoms: C20_29  and  N6_40 
REMARK   20  A    between atoms: C21_30  and  C22_31 
REMARK   21  A    between atoms: C22_31  and  C23_32 
REMARK   22  A    between atoms: C23_32  and  O8_43 
REMARK   23  A    between atoms: C24_33  and  C25_34 
REMARK   24  A    between atoms: C28_38  and  O6_39 
REMARK   25  A    between atoms: C29_42  and  O8_43 
REMARK   26  A    between atoms: C29_42  and  C35_49 
ROOT
ATOM      1  C14 non d ame      -8.855  10.004  65.003  0.00  0.00     0.089 C 
ATOM      2  H20 non d ame      -7.808  10.232  65.202  0.00  0.00     0.087 H 
ENDROOT
BRANCH   1   3
ATOM      3  N4  non d ame      -9.157   8.733  65.645  0.00  0.00    -0.346 N 
ATOM      4  C10 non d ame      -8.047   7.882  66.208  0.00  0.00     0.241 C 
ATOM      5  O4  non d ame      -6.918   8.239  66.129  0.00  0.00    -0.271 OA
ATOM      6  H19 non d ame     -10.124   8.446  65.700  0.00  0.00     0.163 HD
BRANCH   4   7
ATOM      7  C9  non d ame      -8.377   6.572  66.874  0.00  0.00     0.092 C 
ATOM      8  H11 non d ame      -7.512   5.911  66.815  0.00  0.00     0.088 H 
BRANCH   7   9
ATOM      9  N3  non d ame      -8.652   6.802  68.295  0.00  0.00    -0.346 N 
ATOM     10  C7  non d ame      -7.698   6.377  69.291  0.00  0.00     0.240 C 
ATOM     11  O3  non d ame      -6.706   5.848  68.966  0.00  0.00    -0.271 OA
ATOM     12  H10 non d ame      -9.504   7.255  68.591  0.00  0.00     0.163 HD
BRANCH  10  13
ATOM     13  C6  non d ame      -7.997   6.621  70.803  0.00  0.00     0.086 C 
ATOM     14  H6  non d ame      -7.448   7.470  71.209  0.00  0.00     0.086 H 
BRANCH  13  15
ATOM     15  N2  non d ame      -9.410   6.925  70.961  0.00  0.00    -0.343 N 
ATOM     16  C5  non d ame      -9.823   8.300  71.250  0.00  0.00     0.273 C 
ATOM     17  O2  non d ame      -9.012   9.153  71.357  0.00  0.00    -0.266 OA
ATOM     18  H5  non d ame     -10.096   6.190  70.870  0.00  0.00     0.163 HD
BRANCH  16  19
ATOM     19  C4  non d ame     -11.313   8.637  71.418  0.00  0.00     0.154 A 
ATOM     20  C1  non d ame     -12.397   7.714  71.568  0.00  0.00    -0.017 A 
ATOM     21  C2  non d ame     -13.549   8.522  71.685  0.00  0.00     0.077 A 
ATOM     22  H1  non d ame     -12.353   6.625  71.588  0.00  0.00     0.091 H 
ATOM     23  O1  non d ame     -13.162   9.762  71.612  0.00  0.00    -0.218 OA
ATOM     24  N1  non d ame     -11.862   9.854  71.456  0.00  0.00    -0.123 NA
BRANCH  21  25
ATOM     25  C3  non d ame     -14.980   8.032  71.865  0.00  0.00    -0.029 C 
ATOM     26  H2  non d ame     -15.189   7.245  71.140  0.00  0.00     0.036 H 
ATOM     27  H3  non d ame     -15.104   7.638  72.874  0.00  0.00     0.036 H 
ATOM     28  H4  non d ame     -15.671   8.861  71.711  0.00  0.00     0.036 H 
ENDBRANCH  21  25
ENDBRANCH  16  19
ENDBRANCH  13  15
BRANCH  13  29
ATOM     29  C8  non d ame      -7.643   5.388  71.594  0.00  0.00    -0.049 C 
ATOM     30  H7  non d ame      -8.123   5.433  72.571  0.00  0.00     0.030 H 
ATOM     31  H8  non d ame      -7.988   4.502  71.060  0.00  0.00     0.030 H 
ATOM     32  H9  non d ame      -6.562   5.337  71.722  0.00  0.00     0.030 H 
ENDBRANCH  13  29
ENDBRANCH  10  13
ENDBRANCH   7   9
BRANCH   7  33
ATOM     33  C11 non d ame      -9.635   5.950  66.199  0.00  0.00    -0.033 C 
ATOM     34  H12 non d ame      -9.887   6.570  65.338  0.00  0.00     0.042 H 
BRANCH  33  35
ATOM     35  C12 non d ame      -9.345   4.510  65.673  0.00  0.00    -0.071 C 
ATOM     36  H13 non d ame     -10.281   3.957  65.592  0.00  0.00     0.028 H 
ATOM     37  H14 non d ame      -8.874   4.571  64.692  0.00  0.00     0.028 H 
ATOM     38  H15 non d ame      -8.679   3.998  66.366  0.00  0.00     0.028 H 
ENDBRANCH  33  35
BRANCH  33  39
ATOM     39  C13 non d ame     -10.856   5.961  67.175  0.00  0.00    -0.071 C 
ATOM     40  H16 non d ame     -10.843   6.879  67.763  0.00  0.00     0.028 H 
ATOM     41  H17 non d ame     -11.781   5.911  66.600  0.00  0.00     0.028 H 
ATOM     42  H18 non d ame     -10.795   5.102  67.842  0.00  0.00     0.028 H 
ENDBRANCH  33  39
ENDBRANCH   7  33
ENDBRANCH   4   7
ENDBRANCH   1   3
BRANCH   1  43
ATOM     43  C15 non d ame      -9.811  11.088  65.578  0.00  0.00     0.240 C 
ATOM     44  O5  non d ame     -10.882  10.775  65.989  0.00  0.00    -0.271 OA
ATOM     45  N6  non d ame      -9.388  12.517  65.625  0.00  0.00    -0.355 N 
ATOM     46  H46 non d ame      -8.479  12.795  65.284  0.00  0.00     0.162 HD
BRANCH  45  47
ATOM     47  C20 non d ame     -10.308  13.536  66.176  0.00  0.00     0.013 C 
ATOM     48  H30 non d ame     -11.319  13.282  65.858  0.00  0.00     0.072 H 
BRANCH  47  49
ATOM     49  C21 non d ame      -9.924  14.897  65.641  0.00  0.00    -0.038 C 
ATOM     50  H31 non d ame      -8.883  14.809  65.331  0.00  0.00     0.036 H 
ATOM     51  H32 non d ame     -10.692  15.152  64.910  0.00  0.00     0.036 H 
BRANCH  49  52
ATOM     52  C22 non d ame      -9.967  15.999  66.721  0.00  0.00     0.018 C 
ATOM     53  H33 non d ame     -10.724  15.681  67.439  0.00  0.00     0.048 H 
ATOM     54  H34 non d ame      -8.934  16.137  67.043  0.00  0.00     0.048 H 
BRANCH  52  55
ATOM     55  C23 non d ame     -10.438  17.381  66.188  0.00  0.00     0.259 C 
ATOM     56  O7  non d ame     -10.857  17.489  65.081  0.00  0.00    -0.265 OA
BRANCH  55  57
ATOM     57  O8  non d ame     -10.349  18.521  67.033  0.00  0.00    -0.317 OA
BRANCH  57  58
ATOM     58  C29 non d ame      -9.624  19.615  66.463  0.00  0.00     0.052 C 
ATOM     59  H47 non d ame      -9.327  19.284  65.468  0.00  0.00     0.082 H 
ATOM     60  H48 non d ame     -10.267  20.487  66.578  0.00  0.00     0.082 H 
BRANCH  58  61
ATOM     61  C35 non d ame      -8.343  19.834  67.311  0.00  0.00    -0.034 A 
ATOM     62  C30 non d ame      -8.142  19.097  68.473  0.00  0.00    -0.075 A 
ATOM     63  C31 non d ame      -6.991  19.294  69.235  0.00  0.00    -0.082 A 
ATOM     64  H49 non d ame      -8.885  18.363  68.786  0.00  0.00     0.084 H 
ATOM     65  C32 non d ame      -6.041  20.236  68.832  0.00  0.00    -0.083 A 
ATOM     66  H50 non d ame      -6.835  18.713  70.144  0.00  0.00     0.083 H 
ATOM     67  C33 non d ame      -6.248  20.972  67.674  0.00  0.00    -0.082 A 
ATOM     68  H51 non d ame      -5.138  20.396  69.422  0.00  0.00     0.083 H 
ATOM     69  C34 non d ame      -7.395  20.777  66.908  0.00  0.00    -0.075 A 
ATOM     70  H52 non d ame      -5.505  21.708  67.363  0.00  0.00     0.083 H 
ATOM     71  H53 non d ame      -7.550  21.358  65.999  0.00  0.00     0.084 H 
ENDBRANCH  58  61
ENDBRANCH  57  58
ENDBRANCH  55  57
ENDBRANCH  52  55
ENDBRANCH  49  52
ENDBRANCH  47  49
BRANCH  47  72
ATOM     72  C24 non d ame     -10.217  13.543  67.701  0.00  0.00    -0.039 C 
ATOM     73  H35 non d ame      -9.612  12.674  67.960  0.00  0.00     0.036 H 
ATOM     74  H36 non d ame      -9.875  14.544  67.966  0.00  0.00     0.036 H 
BRANCH  72  75
ATOM     75  C25 non d ame     -11.653  13.339  68.381  0.00  0.00    -0.001 C 
ATOM     76  C26 non d ame     -11.993  14.611  69.365  0.00  0.00    -0.035 C 
ATOM     77  C27 non d ame     -12.356  14.138  70.581  0.00  0.00     0.085 C 
ATOM     78  H38 non d ame     -11.085  15.176  69.573  0.00  0.00     0.036 H 
ATOM     79  H39 non d ame     -12.887  15.127  69.015  0.00  0.00     0.036 H 
ATOM     80  N5  non d ame     -11.980  12.676  70.616  0.00  0.00    -0.049 N 
ATOM     81  H40 non d ame     -11.741  14.680  71.301  0.00  0.00     0.075 H 
ATOM     82  H41 non d ame     -13.441  14.226  70.616  0.00  0.00     0.075 H 
ATOM     83  C28 non d ame     -11.687  12.256  69.085  0.00  0.00     0.193 C 
ATOM     84  H42 non d ame     -11.118  12.614  71.137  0.00  0.00     0.280 HD
ATOM     85  H43 non d ame     -12.799  12.177  70.934  0.00  0.00     0.280 HD
ATOM     86  H44 non d ame     -12.417  11.676  68.520  0.00  0.00     0.129 H 
ATOM     87  H37 non d ame     -12.416  13.054  67.656  0.00  0.00     0.046 H 
BRANCH  83  88
ATOM     88  O6  non d ame     -10.466  11.520  69.001  0.00  0.00    -0.369 OA
ATOM     89  H45 non d ame      -9.728  12.131  68.942  0.00  0.00     0.212 HD
ENDBRANCH  83  88
ENDBRANCH  72  75
ENDBRANCH  47  72
ENDBRANCH  45  47
ENDBRANCH   1  43
BRANCH   1  90
ATOM     90  C16 non d ame      -9.078   9.869  63.506  0.00  0.00    -0.035 C 
ATOM     91  H21 non d ame      -9.601   8.921  63.376  0.00  0.00     0.037 H 
ATOM     92  H22 non d ame      -9.554  10.800  63.199  0.00  0.00     0.037 H 
BRANCH  90  93
ATOM     93  C17 non d ame      -7.755   9.758  62.683  0.00  0.00    -0.059 C 
ATOM     94  H23 non d ame      -7.575   8.701  62.487  0.00  0.00     0.038 H 
BRANCH  93  95
ATOM     95  C18 non d ame      -7.854  10.488  61.305  0.00  0.00    -0.073 C 
ATOM     96  H24 non d ame      -8.083  11.541  61.468  0.00  0.00     0.028 H 
ATOM     97  H25 non d ame      -6.904  10.399  60.778  0.00  0.00     0.028 H 
ATOM     98  H26 non d ame      -8.645  10.032  60.709  0.00  0.00     0.028 H 
ENDBRANCH  93  95
BRANCH  93  99
ATOM     99  C19 non d ame      -6.564  10.279  63.491  0.00  0.00    -0.073 C 
ATOM    100  H27 non d ame      -6.891  10.533  64.499  0.00  0.00     0.028 H 
ATOM    101  H28 non d ame      -5.794   9.509  63.542  0.00  0.00     0.028 H 
ATOM    102  H29 non d ame      -6.157  11.167  63.007  0.00  0.00     0.028 H 
ENDBRANCH  93  99
ENDBRANCH  90  93
ENDBRANCH   1  90
TORSDOF 26
ENDMDL
