MODEL 1
REMARK VINA RESULT:      -6.8      0.000      0.000
REMARK  26 active torsions:
REMARK  status: ('A' for Active; 'I' for Inactive)
REMARK    1  A    between atoms: C2_2  and  C3_3 
REMARK    2  A    between atoms: C4_6  and  C5_7 
REMARK       I    between atoms: C5_7  and  N2_9 
REMARK    3  A    between atoms: N2_9  and  C6_10 
REMARK    4  A    between atoms: C6_10  and  C7_11 
REMARK    5  A    between atoms: C6_10  and  C8_13 
REMARK       I    between atoms: C7_11  and  N3_14 
REMARK    6  A    between atoms: N3_14  and  C9_15 
REMARK    7  A    between atoms: C9_15  and  C10_16 
REMARK    8  A    between atoms: C9_15  and  C11_18 
REMARK       I    between atoms: C10_16  and  N4_21 
REMARK    9  A    between atoms: C11_18  and  C12_19 
REMARK   10  A    between atoms: C11_18  and  C13_20 
REMARK   11  A    between atoms: N4_21  and  C14_22 
REMARK   12  A    between atoms: C14_22  and  C15_23 
REMARK   13  A    between atoms: C14_22  and  C16_25 
REMARK       I    between atoms: C15_23  and  N6_40 
REMARK   14  A    between atoms: C16_25  and  C17_26 
REMARK   15  A    between atoms: C17_26  and  C18_27 
REMARK   16  A    between atoms: C17_26  and  C19_28 
REMARK   17  A    between atoms: C20_29  and  C21_30 
REMARK   18  A    between atoms: C20_29  and  C24_33 
REMARK   19  A    between atoms: C20_29  and  N6_40 
REMARK   20  A    between atoms: C21_30  and  C22_31 
REMARK   21  A    between atoms: C22_31  and  C23_32 
REMARK   22  A    between atoms: C23_32  and  O8_43 
REMARK   23  A    between atoms: C24_33  and  C25_34 
REMARK   24  A    between atoms: C28_38  and  O6_39 
REMARK   25  A    between atoms: C29_42  and  O8_43 
REMARK   26  A    between atoms: C29_42  and  C35_49 
ROOT
ATOM      1  C14 non d ame     -10.692   8.876  69.484  0.00  0.00     0.089 C 
ATOM      2  H20 non d ame     -11.717   8.518  69.379  0.00  0.00     0.087 H 
ENDROOT
BRANCH   1   3
ATOM      3  N4  non d ame      -9.820   7.712  69.499  0.00  0.00    -0.346 N 
ATOM      4  C10 non d ame     -10.381   6.336  69.242  0.00  0.00     0.241 C 
ATOM      5  O4  non d ame     -11.539   6.191  69.027  0.00  0.00    -0.271 OA
ATOM      6  H19 non d ame      -8.838   7.856  69.687  0.00  0.00     0.163 HD
BRANCH   4   7
ATOM      7  C9  non d ame      -9.462   5.142  69.256  0.00  0.00     0.092 C 
ATOM      8  H11 non d ame     -10.033   4.248  69.008  0.00  0.00     0.088 H 
BRANCH   7   9
ATOM      9  N3  non d ame      -8.437   5.302  68.221  0.00  0.00    -0.346 N 
ATOM     10  C7  non d ame      -8.398   4.397  67.099  0.00  0.00     0.240 C 
ATOM     11  O3  non d ame      -9.184   3.533  67.014  0.00  0.00    -0.271 OA
ATOM     12  H10 non d ame      -7.751   6.041  68.281  0.00  0.00     0.163 HD
BRANCH  10  13
ATOM     13  C6  non d ame      -7.302   4.570  66.002  0.00  0.00     0.086 C 
ATOM     14  H6  non d ame      -7.496   3.970  65.113  0.00  0.00     0.086 H 
BRANCH  13  15
ATOM     15  N2  non d ame      -7.282   5.958  65.571  0.00  0.00    -0.343 N 
ATOM     16  C5  non d ame      -7.798   6.310  64.247  0.00  0.00     0.273 C 
ATOM     17  O2  non d ame      -8.226   5.468  63.535  0.00  0.00    -0.266 OA
ATOM     18  H5  non d ame      -6.912   6.670  66.185  0.00  0.00     0.163 HD
BRANCH  16  19
ATOM     19  C4  non d ame      -7.785   7.773  63.778  0.00  0.00     0.154 A 
ATOM     20  C1  non d ame      -7.844   8.250  62.431  0.00  0.00    -0.017 A 
ATOM     21  C2  non d ame      -7.801   9.658  62.541  0.00  0.00     0.077 A 
ATOM     22  H1  non d ame      -7.909   7.665  61.513  0.00  0.00     0.091 H 
ATOM     23  O1  non d ame      -7.728   9.945  63.808  0.00  0.00    -0.218 OA
ATOM     24  N1  non d ame      -7.716   8.862  64.550  0.00  0.00    -0.123 NA
BRANCH  21  25
ATOM     25  C3  non d ame      -7.837  10.655  61.390  0.00  0.00    -0.029 C 
ATOM     26  H2  non d ame      -8.229  10.166  60.498  0.00  0.00     0.036 H 
ATOM     27  H3  non d ame      -8.478  11.495  61.657  0.00  0.00     0.036 H 
ATOM     28  H4  non d ame      -6.827  11.017  61.192  0.00  0.00     0.036 H 
ENDBRANCH  21  25
ENDBRANCH  16  19
ENDBRANCH  13  15
BRANCH  13  29
ATOM     29  C8  non d ame      -5.958   4.185  66.566  0.00  0.00    -0.049 C 
ATOM     30  H7  non d ame      -6.097   3.650  67.505  0.00  0.00     0.030 H 
ATOM     31  H8  non d ame      -5.437   3.542  65.856  0.00  0.00     0.030 H 
ATOM     32  H9  non d ame      -5.368   5.083  66.744  0.00  0.00     0.030 H 
ENDBRANCH  13  29
ENDBRANCH  10  13
ENDBRANCH   7   9
BRANCH   7  33
ATOM     33  C11 non d ame      -8.777   5.032  70.649  0.00  0.00    -0.033 C 
ATOM     34  H12 non d ame      -8.256   5.972  70.835  0.00  0.00     0.042 H 
BRANCH  33  35
ATOM     35  C12 non d ame      -9.829   4.847  71.787  0.00  0.00    -0.071 C 
ATOM     36  H13 non d ame     -10.195   5.823  72.106  0.00  0.00     0.028 H 
ATOM     37  H14 non d ame     -10.662   4.250  71.417  0.00  0.00     0.028 H 
ATOM     38  H15 non d ame      -9.364   4.339  72.632  0.00  0.00     0.028 H 
ENDBRANCH  33  35
BRANCH  33  39
ATOM     39  C13 non d ame      -7.719   3.883  70.663  0.00  0.00    -0.071 C 
ATOM     40  H16 non d ame      -7.100   3.969  71.556  0.00  0.00     0.028 H 
ATOM     41  H17 non d ame      -8.229   2.919  70.665  0.00  0.00     0.028 H 
ATOM     42  H18 non d ame      -7.089   3.959  69.776  0.00  0.00     0.028 H 
ENDBRANCH  33  39
ENDBRANCH   7  33
ENDBRANCH   4   7
ENDBRANCH   1   3
BRANCH   1  43
ATOM     43  C15 non d ame     -10.268   9.797  68.304  0.00  0.00     0.240 C 
ATOM     44  O5  non d ame      -9.846   9.317  67.302  0.00  0.00    -0.271 OA
ATOM     45  N6  non d ame     -10.397  11.278  68.420  0.00  0.00    -0.355 N 
ATOM     46  H46 non d ame     -10.758  11.697  69.265  0.00  0.00     0.162 HD
BRANCH  45  47
ATOM     47  C20 non d ame      -9.991  12.140  67.289  0.00  0.00     0.013 C 
ATOM     48  H30 non d ame      -9.550  11.502  66.523  0.00  0.00     0.072 H 
BRANCH  47  49
ATOM     49  C21 non d ame      -8.973  13.149  67.770  0.00  0.00    -0.038 C 
ATOM     50  H31 non d ame      -8.905  13.008  68.849  0.00  0.00     0.036 H 
ATOM     51  H32 non d ame      -8.092  13.000  67.144  0.00  0.00     0.036 H 
BRANCH  49  52
ATOM     52  C22 non d ame      -9.425  14.609  67.547  0.00  0.00     0.018 C 
ATOM     53  H33 non d ame      -8.667  15.058  66.905  0.00  0.00     0.048 H 
ATOM     54  H34 non d ame     -10.460  14.549  67.209  0.00  0.00     0.048 H 
BRANCH  52  55
ATOM     55  C23 non d ame      -9.446  15.462  68.845  0.00  0.00     0.259 C 
ATOM     56  O7  non d ame      -8.500  15.493  69.563  0.00  0.00    -0.265 OA
BRANCH  55  57
ATOM     57  O8  non d ame     -10.618  16.199  69.176  0.00  0.00    -0.317 OA
BRANCH  57  58
ATOM     58  C29 non d ame     -11.811  15.411  69.208  0.00  0.00     0.052 C 
ATOM     59  H47 non d ame     -12.577  16.015  68.721  0.00  0.00     0.082 H 
ATOM     60  H48 non d ame     -11.536  14.442  68.792  0.00  0.00     0.082 H 
BRANCH  58  61
ATOM     61  C35 non d ame     -12.213  15.211  70.693  0.00  0.00    -0.034 A 
ATOM     62  C30 non d ame     -12.959  14.099  71.070  0.00  0.00    -0.075 A 
ATOM     63  C31 non d ame     -13.320  13.919  72.404  0.00  0.00    -0.082 A 
ATOM     64  H49 non d ame     -13.259  13.367  70.320  0.00  0.00     0.084 H 
ATOM     65  C32 non d ame     -12.936  14.860  73.364  0.00  0.00    -0.083 A 
ATOM     66  H50 non d ame     -13.903  13.045  72.696  0.00  0.00     0.083 H 
ATOM     67  C33 non d ame     -12.195  15.970  72.983  0.00  0.00    -0.082 A 
ATOM     68  H51 non d ame     -13.214  14.727  74.409  0.00  0.00     0.083 H 
ATOM     69  C34 non d ame     -11.829  16.152  71.651  0.00  0.00    -0.075 A 
ATOM     70  H52 non d ame     -11.898  16.703  73.734  0.00  0.00     0.083 H 
ATOM     71  H53 non d ame     -11.246  17.026  71.359  0.00  0.00     0.084 H 
ENDBRANCH  58  61
ENDBRANCH  57  58
ENDBRANCH  55  57
ENDBRANCH  52  55
ENDBRANCH  49  52
ENDBRANCH  47  49
BRANCH  47  72
ATOM     72  C24 non d ame     -11.211  12.871  66.733  0.00  0.00    -0.039 C 
ATOM     73  H35 non d ame     -11.952  12.848  67.532  0.00  0.00     0.036 H 
ATOM     74  H36 non d ame     -10.834  13.826  66.366  0.00  0.00     0.036 H 
BRANCH  72  75
ATOM     75  C25 non d ame     -11.844  12.100  65.479  0.00  0.00    -0.001 C 
ATOM     76  C26 non d ame     -10.649  11.408  64.586  0.00  0.00    -0.035 C 
ATOM     77  C27 non d ame     -10.807  11.769  63.291  0.00  0.00     0.085 C 
ATOM     78  H38 non d ame      -9.684  11.838  64.855  0.00  0.00     0.036 H 
ATOM     79  H39 non d ame     -10.776  10.325  64.566  0.00  0.00     0.036 H 
ATOM     80  N5  non d ame     -11.802  12.904  63.268  0.00  0.00    -0.049 N 
ATOM     81  H40 non d ame      -9.834  12.144  62.971  0.00  0.00     0.075 H 
ATOM     82  H41 non d ame     -11.246  10.902  62.798  0.00  0.00     0.075 H 
ATOM     83  C28 non d ame     -12.507  12.907  64.720  0.00  0.00     0.193 C 
ATOM     84  H42 non d ame     -11.265  13.754  63.169  0.00  0.00     0.280 HD
ATOM     85  H43 non d ame     -12.496  12.662  62.575  0.00  0.00     0.280 HD
ATOM     86  H44 non d ame     -13.516  12.514  64.847  0.00  0.00     0.129 H 
ATOM     87  H37 non d ame     -12.681  11.463  65.766  0.00  0.00     0.046 H 
BRANCH  83  88
ATOM     88  O6  non d ame     -12.544  14.234  65.247  0.00  0.00    -0.369 OA
ATOM     89  H45 non d ame     -13.227  14.292  65.919  0.00  0.00     0.212 HD
ENDBRANCH  83  88
ENDBRANCH  72  75
ENDBRANCH  47  72
ENDBRANCH  45  47
ENDBRANCH   1  43
BRANCH   1  90
ATOM     90  C16 non d ame     -10.542   9.627  70.797  0.00  0.00    -0.035 C 
ATOM     91  H21 non d ame      -9.804   9.063  71.369  0.00  0.00     0.037 H 
ATOM     92  H22 non d ame     -10.340  10.661  70.518  0.00  0.00     0.037 H 
BRANCH  90  93
ATOM     93  C17 non d ame     -11.844   9.649  71.659  0.00  0.00    -0.059 C 
ATOM     94  H23 non d ame     -11.644  10.251  72.545  0.00  0.00     0.038 H 
BRANCH  93  95
ATOM     95  C18 non d ame     -13.043  10.302  70.899  0.00  0.00    -0.073 C 
ATOM     96  H24 non d ame     -12.779  10.433  69.850  0.00  0.00     0.028 H 
ATOM     97  H25 non d ame     -13.918   9.657  70.977  0.00  0.00     0.028 H 
ATOM     98  H26 non d ame     -13.267  11.273  71.342  0.00  0.00     0.028 H 
ENDBRANCH  93  95
BRANCH  93  99
ATOM     99  C19 non d ame     -12.206   8.241  72.139  0.00  0.00    -0.073 C 
ATOM    100  H27 non d ame     -11.713   7.503  71.505  0.00  0.00     0.028 H 
ATOM    101  H28 non d ame     -11.877   8.113  73.170  0.00  0.00     0.028 H 
ATOM    102  H29 non d ame     -13.286   8.104  72.084  0.00  0.00     0.028 H 
ENDBRANCH  93  99
ENDBRANCH  90  93
ENDBRANCH   1  90
TORSDOF 26
ENDMDL
MODEL 2
REMARK VINA RESULT:      -6.5      2.817      4.565
REMARK  26 active torsions:
REMARK  status: ('A' for Active; 'I' for Inactive)
REMARK    1  A    between atoms: C2_2  and  C3_3 
REMARK    2  A    between atoms: C4_6  and  C5_7 
REMARK       I    between atoms: C5_7  and  N2_9 
REMARK    3  A    between atoms: N2_9  and  C6_10 
REMARK    4  A    between atoms: C6_10  and  C7_11 
REMARK    5  A    between atoms: C6_10  and  C8_13 
REMARK       I    between atoms: C7_11  and  N3_14 
REMARK    6  A    between atoms: N3_14  and  C9_15 
REMARK    7  A    between atoms: C9_15  and  C10_16 
REMARK    8  A    between atoms: C9_15  and  C11_18 
REMARK       I    between atoms: C10_16  and  N4_21 
REMARK    9  A    between atoms: C11_18  and  C12_19 
REMARK   10  A    between atoms: C11_18  and  C13_20 
REMARK   11  A    between atoms: N4_21  and  C14_22 
REMARK   12  A    between atoms: C14_22  and  C15_23 
REMARK   13  A    between atoms: C14_22  and  C16_25 
REMARK       I    between atoms: C15_23  and  N6_40 
REMARK   14  A    between atoms: C16_25  and  C17_26 
REMARK   15  A    between atoms: C17_26  and  C18_27 
REMARK   16  A    between atoms: C17_26  and  C19_28 
REMARK   17  A    between atoms: C20_29  and  C21_30 
REMARK   18  A    between atoms: C20_29  and  C24_33 
REMARK   19  A    between atoms: C20_29  and  N6_40 
REMARK   20  A    between atoms: C21_30  and  C22_31 
REMARK   21  A    between atoms: C22_31  and  C23_32 
REMARK   22  A    between atoms: C23_32  and  O8_43 
REMARK   23  A    between atoms: C24_33  and  C25_34 
REMARK   24  A    between atoms: C28_38  and  O6_39 
REMARK   25  A    between atoms: C29_42  and  O8_43 
REMARK   26  A    between atoms: C29_42  and  C35_49 
ROOT
ATOM      1  C14 non d ame     -10.633   9.385  69.635  0.00  0.00     0.089 C 
ATOM      2  H20 non d ame     -11.117   8.463  69.312  0.00  0.00     0.087 H 
ENDROOT
BRANCH   1   3
ATOM      3  N4  non d ame      -9.196   9.159  69.608  0.00  0.00    -0.346 N 
ATOM      4  C10 non d ame      -8.642   7.833  69.150  0.00  0.00     0.241 C 
ATOM      5  O4  non d ame      -9.373   6.962  68.811  0.00  0.00    -0.271 OA
ATOM      6  H19 non d ame      -8.591   9.912  69.903  0.00  0.00     0.163 HD
BRANCH   4   7
ATOM      7  C9  non d ame      -7.151   7.619  69.123  0.00  0.00     0.092 C 
ATOM      8  H11 non d ame      -6.941   6.553  69.212  0.00  0.00     0.088 H 
BRANCH   7   9
ATOM      9  N3  non d ame      -6.617   8.060  67.832  0.00  0.00    -0.346 N 
ATOM     10  C7  non d ame      -6.334   7.092  66.800  0.00  0.00     0.240 C 
ATOM     11  O3  non d ame      -6.530   5.954  66.993  0.00  0.00    -0.271 OA
ATOM     12  H10 non d ame      -6.441   9.038  67.651  0.00  0.00     0.163 HD
BRANCH  10  13
ATOM     13  C6  non d ame      -5.763   7.567  65.429  0.00  0.00     0.086 C 
ATOM     14  H6  non d ame      -5.789   6.787  64.668  0.00  0.00     0.086 H 
BRANCH  13  15
ATOM     15  N2  non d ame      -6.580   8.661  64.931  0.00  0.00    -0.343 N 
ATOM     16  C5  non d ame      -7.831   8.365  64.228  0.00  0.00     0.273 C 
ATOM     17  O2  non d ame      -8.168   7.244  64.065  0.00  0.00    -0.266 OA
ATOM     18  H5  non d ame      -6.283   9.616  65.071  0.00  0.00     0.163 HD
BRANCH  16  19
ATOM     19  C4  non d ame      -8.706   9.511  63.697  0.00  0.00     0.154 A 
ATOM     20  C1  non d ame      -9.792  10.153  64.372  0.00  0.00    -0.017 A 
ATOM     21  C2  non d ame     -10.257  11.130  63.464  0.00  0.00     0.077 A 
ATOM     22  H1  non d ame     -10.182   9.943  65.368  0.00  0.00     0.091 H 
ATOM     23  O1  non d ame      -9.518  11.051  62.397  0.00  0.00    -0.218 OA
ATOM     24  N1  non d ame      -8.605  10.113  62.509  0.00  0.00    -0.123 NA
BRANCH  21  25
ATOM     25  C3  non d ame     -11.411  12.098  63.694  0.00  0.00    -0.029 C 
ATOM     26  H2  non d ame     -11.847  11.918  64.677  0.00  0.00     0.036 H 
ATOM     27  H3  non d ame     -11.042  13.122  63.641  0.00  0.00     0.036 H 
ATOM     28  H4  non d ame     -12.171  11.946  62.927  0.00  0.00     0.036 H 
ENDBRANCH  21  25
ENDBRANCH  16  19
ENDBRANCH  13  15
BRANCH  13  29
ATOM     29  C8  non d ame      -4.338   8.027  65.607  0.00  0.00    -0.049 C 
ATOM     30  H7  non d ame      -4.217   8.460  66.600  0.00  0.00     0.030 H 
ATOM     31  H8  non d ame      -3.665   7.177  65.497  0.00  0.00     0.030 H 
ATOM     32  H9  non d ame      -4.102   8.778  64.853  0.00  0.00     0.030 H 
ENDBRANCH  13  29
ENDBRANCH  10  13
ENDBRANCH   7   9
BRANCH   7  33
ATOM     33  C11 non d ame      -6.488   8.443  70.265  0.00  0.00    -0.033 C 
ATOM     34  H12 non d ame      -7.238   9.135  70.649  0.00  0.00     0.042 H 
BRANCH  33  35
ATOM     35  C12 non d ame      -6.047   7.525  71.448  0.00  0.00    -0.071 C 
ATOM     36  H13 non d ame      -6.892   7.367  72.119  0.00  0.00     0.028 H 
ATOM     37  H14 non d ame      -5.711   6.565  71.056  0.00  0.00     0.028 H 
ATOM     38  H15 non d ame      -5.233   8.001  71.993  0.00  0.00     0.028 H 
ENDBRANCH  33  35
BRANCH  33  39
ATOM     39  C13 non d ame      -5.288   9.284  69.723  0.00  0.00    -0.071 C 
ATOM     40  H16 non d ame      -4.421   8.637  69.591  0.00  0.00     0.028 H 
ATOM     41  H17 non d ame      -5.559   9.729  68.765  0.00  0.00     0.028 H 
ATOM     42  H18 non d ame      -5.047  10.073  70.435  0.00  0.00     0.028 H 
ENDBRANCH  33  39
ENDBRANCH   7  33
ENDBRANCH   4   7
ENDBRANCH   1   3
BRANCH   1  43
ATOM     43  C15 non d ame     -10.964  10.581  68.697  0.00  0.00     0.240 C 
ATOM     44  O5  non d ame     -11.594  10.398  67.705  0.00  0.00    -0.271 OA
ATOM     45  N6  non d ame     -10.504  11.957  69.039  0.00  0.00    -0.355 N 
ATOM     46  H46 non d ame      -9.972  12.126  69.881  0.00  0.00     0.162 HD
BRANCH  45  47
ATOM     47  C20 non d ame     -10.828  13.084  68.138  0.00  0.00     0.013 C 
ATOM     48  H30 non d ame     -11.060  12.672  67.156  0.00  0.00     0.072 H 
BRANCH  47  49
ATOM     49  C21 non d ame      -9.633  14.006  68.042  0.00  0.00    -0.038 C 
ATOM     50  H31 non d ame      -9.897  14.891  68.622  0.00  0.00     0.036 H 
ATOM     51  H32 non d ame      -8.772  13.403  68.329  0.00  0.00     0.036 H 
BRANCH  49  52
ATOM     52  C22 non d ame      -9.366  14.492  66.601  0.00  0.00     0.018 C 
ATOM     53  H33 non d ame      -8.284  14.602  66.522  0.00  0.00     0.048 H 
ATOM     54  H34 non d ame      -9.891  13.792  65.951  0.00  0.00     0.048 H 
BRANCH  52  55
ATOM     55  C23 non d ame      -9.962  15.894  66.292  0.00  0.00     0.259 C 
ATOM     56  O7  non d ame     -10.195  16.216  65.172  0.00  0.00    -0.265 OA
BRANCH  55  57
ATOM     57  O8  non d ame     -10.216  16.795  67.363  0.00  0.00    -0.317 OA
BRANCH  57  58
ATOM     58  C29 non d ame     -10.353  18.159  66.956  0.00  0.00     0.052 C 
ATOM     59  H47 non d ame     -10.473  18.133  65.873  0.00  0.00     0.082 H 
ATOM     60  H48 non d ame     -11.142  18.576  67.582  0.00  0.00     0.082 H 
BRANCH  58  61
ATOM     61  C35 non d ame      -9.026  18.893  67.286  0.00  0.00    -0.034 A 
ATOM     62  C30 non d ame      -8.490  18.821  68.567  0.00  0.00    -0.075 A 
ATOM     63  C31 non d ame      -7.298  19.481  68.864  0.00  0.00    -0.082 A 
ATOM     64  H49 non d ame      -9.004  18.248  69.339  0.00  0.00     0.084 H 
ATOM     65  C32 non d ame      -6.643  20.216  67.873  0.00  0.00    -0.083 A 
ATOM     66  H50 non d ame      -6.879  19.420  69.869  0.00  0.00     0.083 H 
ATOM     67  C33 non d ame      -7.183  20.288  66.596  0.00  0.00    -0.082 A 
ATOM     68  H51 non d ame      -5.710  20.734  68.096  0.00  0.00     0.083 H 
ATOM     69  C34 non d ame      -8.373  19.629  66.295  0.00  0.00    -0.075 A 
ATOM     70  H52 non d ame      -6.670  20.865  65.826  0.00  0.00     0.083 H 
ATOM     71  H53 non d ame      -8.790  19.689  65.289  0.00  0.00     0.084 H 
ENDBRANCH  58  61
ENDBRANCH  57  58
ENDBRANCH  55  57
ENDBRANCH  52  55
ENDBRANCH  49  52
ENDBRANCH  47  49
BRANCH  47  72
ATOM     72  C24 non d ame     -12.026  13.856  68.686  0.00  0.00    -0.039 C 
ATOM     73  H35 non d ame     -12.096  14.756  68.074  0.00  0.00     0.036 H 
ATOM     74  H36 non d ame     -12.849  13.142  68.702  0.00  0.00     0.036 H 
BRANCH  72  75
ATOM     75  C25 non d ame     -11.783  14.331  70.197  0.00  0.00    -0.001 C 
ATOM     76  C26 non d ame     -12.765  13.489  71.213  0.00  0.00    -0.035 C 
ATOM     77  C27 non d ame     -13.432  14.366  72.001  0.00  0.00     0.085 C 
ATOM     78  H38 non d ame     -13.558  13.001  70.647  0.00  0.00     0.036 H 
ATOM     79  H39 non d ame     -12.167  12.915  71.920  0.00  0.00     0.036 H 
ATOM     80  N5  non d ame     -13.242  15.736  71.397  0.00  0.00    -0.049 N 
ATOM     81  H40 non d ame     -14.483  14.086  71.924  0.00  0.00     0.075 H 
ATOM     82  H41 non d ame     -12.928  14.331  72.966  0.00  0.00     0.075 H 
ATOM     83  C28 non d ame     -12.033  15.590  70.337  0.00  0.00     0.193 C 
ATOM     84  H42 non d ame     -14.090  15.945  70.890  0.00  0.00     0.280 HD
ATOM     85  H43 non d ame     -12.940  16.341  72.147  0.00  0.00     0.280 HD
ATOM     86  H44 non d ame     -11.038  15.964  70.578  0.00  0.00     0.129 H 
ATOM     87  H37 non d ame     -10.724  14.373  70.452  0.00  0.00     0.046 H 
BRANCH  83  88
ATOM     88  O6  non d ame     -12.385  16.211  69.099  0.00  0.00    -0.369 OA
ATOM     89  H45 non d ame     -12.863  15.584  68.552  0.00  0.00     0.212 HD
ENDBRANCH  83  88
ENDBRANCH  72  75
ENDBRANCH  47  72
ENDBRANCH  45  47
ENDBRANCH   1  43
BRANCH   1  90
ATOM     90  C16 non d ame     -11.057   9.718  71.056  0.00  0.00    -0.035 C 
ATOM     91  H21 non d ame     -10.168  10.132  71.533  0.00  0.00     0.037 H 
ATOM     92  H22 non d ame     -11.954  10.329  70.955  0.00  0.00     0.037 H 
BRANCH  90  93
ATOM     93  C17 non d ame     -11.467   8.467  71.897  0.00  0.00    -0.059 C 
ATOM     94  H23 non d ame     -12.239   8.780  72.600  0.00  0.00     0.038 H 
BRANCH  93  95
ATOM     95  C18 non d ame     -12.063   7.329  71.008  0.00  0.00    -0.073 C 
ATOM     96  H24 non d ame     -12.453   7.757  70.085  0.00  0.00     0.028 H 
ATOM     97  H25 non d ame     -11.283   6.606  70.773  0.00  0.00     0.028 H 
ATOM     98  H26 non d ame     -12.869   6.832  71.548  0.00  0.00     0.028 H 
ENDBRANCH  93  95
BRANCH  93  99
ATOM     99  C19 non d ame     -10.284   7.951  72.721  0.00  0.00    -0.073 C 
ATOM    100  H27 non d ame     -10.628   7.681  73.720  0.00  0.00     0.028 H 
ATOM    101  H28 non d ame      -9.857   7.074  72.234  0.00  0.00     0.028 H 
ATOM    102  H29 non d ame      -9.526   8.730  72.796  0.00  0.00     0.028 H 
ENDBRANCH  93  99
ENDBRANCH  90  93
ENDBRANCH   1  90
TORSDOF 26
ENDMDL
MODEL 3
REMARK VINA RESULT:      -6.5      2.824      9.214
REMARK  26 active torsions:
REMARK  status: ('A' for Active; 'I' for Inactive)
REMARK    1  A    between atoms: C2_2  and  C3_3 
REMARK    2  A    between atoms: C4_6  and  C5_7 
REMARK       I    between atoms: C5_7  and  N2_9 
REMARK    3  A    between atoms: N2_9  and  C6_10 
REMARK    4  A    between atoms: C6_10  and  C7_11 
REMARK    5  A    between atoms: C6_10  and  C8_13 
REMARK       I    between atoms: C7_11  and  N3_14 
REMARK    6  A    between atoms: N3_14  and  C9_15 
REMARK    7  A    between atoms: C9_15  and  C10_16 
REMARK    8  A    between atoms: C9_15  and  C11_18 
REMARK       I    between atoms: C10_16  and  N4_21 
REMARK    9  A    between atoms: C11_18  and  C12_19 
REMARK   10  A    between atoms: C11_18  and  C13_20 
REMARK   11  A    between atoms: N4_21  and  C14_22 
REMARK   12  A    between atoms: C14_22  and  C15_23 
REMARK   13  A    between atoms: C14_22  and  C16_25 
REMARK       I    between atoms: C15_23  and  N6_40 
REMARK   14  A    between atoms: C16_25  and  C17_26 
REMARK   15  A    between atoms: C17_26  and  C18_27 
REMARK   16  A    between atoms: C17_26  and  C19_28 
REMARK   17  A    between atoms: C20_29  and  C21_30 
REMARK   18  A    between atoms: C20_29  and  C24_33 
REMARK   19  A    between atoms: C20_29  and  N6_40 
REMARK   20  A    between atoms: C21_30  and  C22_31 
REMARK   21  A    between atoms: C22_31  and  C23_32 
REMARK   22  A    between atoms: C23_32  and  O8_43 
REMARK   23  A    between atoms: C24_33  and  C25_34 
REMARK   24  A    between atoms: C28_38  and  O6_39 
REMARK   25  A    between atoms: C29_42  and  O8_43 
REMARK   26  A    between atoms: C29_42  and  C35_49 
ROOT
ATOM      1  C14 non d ame     -10.218  10.852  64.364  0.00  0.00     0.089 C 
ATOM      2  H20 non d ame     -11.249  10.507  64.449  0.00  0.00     0.087 H 
ENDROOT
BRANCH   1   3
ATOM      3  N4  non d ame      -9.635  10.823  65.698  0.00  0.00    -0.346 N 
ATOM      4  C10 non d ame     -10.506  11.017  66.914  0.00  0.00     0.241 C 
ATOM      5  O4  non d ame     -11.673  11.197  66.794  0.00  0.00    -0.271 OA
ATOM      6  H19 non d ame      -8.640  10.671  65.778  0.00  0.00     0.163 HD
BRANCH   4   7
ATOM      7  C9  non d ame      -9.887  10.979  68.286  0.00  0.00     0.092 C 
ATOM      8  H11 non d ame      -9.806  11.996  68.671  0.00  0.00     0.088 H 
BRANCH   7   9
ATOM      9  N3  non d ame     -10.765  10.239  69.198  0.00  0.00    -0.346 N 
ATOM     10  C7  non d ame     -11.679  10.953  70.055  0.00  0.00     0.240 C 
ATOM     11  O3  non d ame     -11.721  12.122  70.025  0.00  0.00    -0.271 OA
ATOM     12  H10 non d ame     -10.739   9.230  69.237  0.00  0.00     0.163 HD
BRANCH  10  13
ATOM     13  C6  non d ame     -12.608  10.160  71.026  0.00  0.00     0.086 C 
ATOM     14  H6  non d ame     -13.334   9.539  70.501  0.00  0.00     0.086 H 
BRANCH  13  15
ATOM     15  N2  non d ame     -11.795   9.261  71.828  0.00  0.00    -0.343 N 
ATOM     16  C5  non d ame     -12.146   7.841  71.900  0.00  0.00     0.273 C 
ATOM     17  O2  non d ame     -13.086   7.433  71.312  0.00  0.00    -0.266 OA
ATOM     18  H5  non d ame     -10.995   9.620  72.330  0.00  0.00     0.163 HD
BRANCH  16  19
ATOM     19  C4  non d ame     -11.294   6.880  72.743  0.00  0.00     0.154 A 
ATOM     20  C1  non d ame     -11.402   5.454  72.801  0.00  0.00    -0.017 A 
ATOM     21  C2  non d ame     -10.401   5.051  73.714  0.00  0.00     0.077 A 
ATOM     22  H1  non d ame     -12.099   4.810  72.264  0.00  0.00     0.091 H 
ATOM     23  O1  non d ame      -9.795   6.126  74.124  0.00  0.00    -0.218 OA
ATOM     24  N1  non d ame     -10.299   7.206  73.572  0.00  0.00    -0.123 NA
BRANCH  21  25
ATOM     25  C3  non d ame     -10.090   3.621  74.137  0.00  0.00    -0.029 C 
ATOM     26  H2  non d ame     -11.014   3.117  74.424  0.00  0.00     0.036 H 
ATOM     27  H3  non d ame      -9.629   3.088  73.305  0.00  0.00     0.036 H 
ATOM     28  H4  non d ame      -9.404   3.634  74.984  0.00  0.00     0.036 H 
ENDBRANCH  21  25
ENDBRANCH  16  19
ENDBRANCH  13  15
BRANCH  13  29
ATOM     29  C8  non d ame     -13.347  11.124  71.919  0.00  0.00    -0.049 C 
ATOM     30  H7  non d ame     -14.067  10.578  72.528  0.00  0.00     0.030 H 
ATOM     31  H8  non d ame     -12.636  11.636  72.568  0.00  0.00     0.030 H 
ATOM     32  H9  non d ame     -13.872  11.857  71.306  0.00  0.00     0.030 H 
ENDBRANCH  13  29
ENDBRANCH  10  13
ENDBRANCH   7   9
BRANCH   7  33
ATOM     33  C11 non d ame      -8.504  10.269  68.212  0.00  0.00    -0.033 C 
ATOM     34  H12 non d ame      -8.158  10.330  67.180  0.00  0.00     0.042 H 
BRANCH  33  35
ATOM     35  C12 non d ame      -7.446  10.990  69.104  0.00  0.00    -0.071 C 
ATOM     36  H13 non d ame      -7.204  11.960  68.669  0.00  0.00     0.028 H 
ATOM     37  H14 non d ame      -7.852  11.132  70.105  0.00  0.00     0.028 H 
ATOM     38  H15 non d ame      -6.543  10.382  69.160  0.00  0.00     0.028 H 
ENDBRANCH  33  35
BRANCH  33  39
ATOM     39  C13 non d ame      -8.629   8.758  68.591  0.00  0.00    -0.071 C 
ATOM     40  H16 non d ame      -7.682   8.406  68.997  0.00  0.00     0.028 H 
ATOM     41  H17 non d ame      -9.414   8.635  69.338  0.00  0.00     0.028 H 
ATOM     42  H18 non d ame      -8.881   8.181  67.701  0.00  0.00     0.028 H 
ENDBRANCH  33  39
ENDBRANCH   7  33
ENDBRANCH   4   7
ENDBRANCH   1   3
BRANCH   1  43
ATOM     43  C15 non d ame      -9.369   9.939  63.433  0.00  0.00     0.240 C 
ATOM     44  O5  non d ame      -9.120  10.293  62.326  0.00  0.00    -0.271 OA
ATOM     45  N6  non d ame      -8.858   8.628  63.925  0.00  0.00    -0.355 N 
ATOM     46  H46 non d ame      -9.059   8.319  64.865  0.00  0.00     0.162 HD
BRANCH  45  47
ATOM     47  C20 non d ame      -8.051   7.773  63.028  0.00  0.00     0.013 C 
ATOM     48  H30 non d ame      -8.558   7.725  62.064  0.00  0.00     0.072 H 
BRANCH  47  49
ATOM     49  C21 non d ame      -7.942   6.387  63.623  0.00  0.00    -0.038 C 
ATOM     50  H31 non d ame      -6.876   6.209  63.761  0.00  0.00     0.036 H 
ATOM     51  H32 non d ame      -8.612   6.383  64.483  0.00  0.00     0.036 H 
BRANCH  49  52
ATOM     52  C22 non d ame      -8.449   5.284  62.669  0.00  0.00     0.018 C 
ATOM     53  H33 non d ame      -8.868   5.806  61.809  0.00  0.00     0.048 H 
ATOM     54  H34 non d ame      -7.611   4.600  62.537  0.00  0.00     0.048 H 
BRANCH  52  55
ATOM     55  C23 non d ame      -9.608   4.432  63.258  0.00  0.00     0.259 C 
ATOM     56  O7  non d ame     -10.476   4.026  62.554  0.00  0.00    -0.265 OA
BRANCH  55  57
ATOM     57  O8  non d ame      -9.628   4.150  64.652  0.00  0.00    -0.317 OA
BRANCH  57  58
ATOM     58  C29 non d ame     -10.684   4.803  65.363  0.00  0.00     0.052 C 
ATOM     59  H47 non d ame     -10.672   5.839  65.022  0.00  0.00     0.082 H 
ATOM     60  H48 non d ame     -11.569   4.188  65.206  0.00  0.00     0.082 H 
BRANCH  58  61
ATOM     61  C35 non d ame     -10.330   4.779  66.874  0.00  0.00    -0.034 A 
ATOM     62  C30 non d ame      -9.494   3.788  67.378  0.00  0.00    -0.075 A 
ATOM     63  C31 non d ame      -9.177   3.766  68.735  0.00  0.00    -0.082 A 
ATOM     64  H49 non d ame      -9.088   3.029  66.710  0.00  0.00     0.084 H 
ATOM     65  C32 non d ame      -9.701   4.740  69.590  0.00  0.00    -0.083 A 
ATOM     66  H50 non d ame      -8.520   2.990  69.127  0.00  0.00     0.083 H 
ATOM     67  C33 non d ame     -10.537   5.725  69.083  0.00  0.00    -0.082 A 
ATOM     68  H51 non d ame      -9.457   4.731  70.652  0.00  0.00     0.083 H 
ATOM     69  C34 non d ame     -10.855   5.752  67.727  0.00  0.00    -0.075 A 
ATOM     70  H52 non d ame     -10.946   6.482  69.753  0.00  0.00     0.083 H 
ATOM     71  H53 non d ame     -11.511   6.530  67.335  0.00  0.00     0.084 H 
ENDBRANCH  58  61
ENDBRANCH  57  58
ENDBRANCH  55  57
ENDBRANCH  52  55
ENDBRANCH  49  52
ENDBRANCH  47  49
BRANCH  47  72
ATOM     72  C24 non d ame      -6.655   8.369  62.865  0.00  0.00    -0.039 C 
ATOM     73  H35 non d ame      -6.168   7.763  62.100  0.00  0.00     0.036 H 
ATOM     74  H36 non d ame      -6.812   9.435  62.696  0.00  0.00     0.036 H 
BRANCH  72  75
ATOM     75  C25 non d ame      -5.789   8.225  64.205  0.00  0.00    -0.001 C 
ATOM     76  C26 non d ame      -5.637   9.692  64.934  0.00  0.00    -0.035 C 
ATOM     77  C27 non d ame      -4.326   9.918  65.189  0.00  0.00     0.085 C 
ATOM     78  H38 non d ame      -5.902  10.485  64.235  0.00  0.00     0.036 H 
ATOM     79  H39 non d ame      -6.089   9.665  65.925  0.00  0.00     0.036 H 
ATOM     80  N5  non d ame      -3.540   8.892  64.409  0.00  0.00    -0.049 N 
ATOM     81  H40 non d ame      -4.118  10.909  64.784  0.00  0.00     0.075 H 
ATOM     82  H41 non d ame      -4.200   9.728  66.255  0.00  0.00     0.075 H 
ATOM     83  C28 non d ame      -4.607   7.771  63.951  0.00  0.00     0.193 C 
ATOM     84  H42 non d ame      -3.194   9.363  63.585  0.00  0.00     0.280 HD
ATOM     85  H43 non d ame      -2.893   8.472  65.061  0.00  0.00     0.280 HD
ATOM     86  H44 non d ame      -4.651   6.808  64.460  0.00  0.00     0.129 H 
ATOM     87  H37 non d ame      -6.124   7.395  64.826  0.00  0.00     0.046 H 
BRANCH  83  88
ATOM     88  O6  non d ame      -4.434   7.463  62.567  0.00  0.00    -0.369 OA
ATOM     89  H45 non d ame      -4.965   8.061  62.037  0.00  0.00     0.212 HD
ENDBRANCH  83  88
ENDBRANCH  72  75
ENDBRANCH  47  72
ENDBRANCH  45  47
ENDBRANCH   1  43
BRANCH   1  90
ATOM     90  C16 non d ame     -10.193  12.279  63.842  0.00  0.00    -0.035 C 
ATOM     91  H21 non d ame      -9.777  12.876  64.654  0.00  0.00     0.037 H 
ATOM     92  H22 non d ame      -9.676  12.227  62.884  0.00  0.00     0.037 H 
BRANCH  90  93
ATOM     93  C17 non d ame     -11.612  12.863  63.547  0.00  0.00    -0.059 C 
ATOM     94  H23 non d ame     -11.566  13.371  62.584  0.00  0.00     0.038 H 
BRANCH  93  95
ATOM     95  C18 non d ame     -12.699  11.746  63.445  0.00  0.00    -0.073 C 
ATOM     96  H24 non d ame     -13.685  12.184  63.602  0.00  0.00     0.028 H 
ATOM     97  H25 non d ame     -12.658  11.288  62.457  0.00  0.00     0.028 H 
ATOM     98  H26 non d ame     -12.513  10.987  64.205  0.00  0.00     0.028 H 
ENDBRANCH  93  95
BRANCH  93  99
ATOM     99  C19 non d ame     -12.001  13.909  64.595  0.00  0.00    -0.073 C 
ATOM    100  H27 non d ame     -12.160  14.871  64.107  0.00  0.00     0.028 H 
ATOM    101  H28 non d ame     -12.920  13.598  65.094  0.00  0.00     0.028 H 
ATOM    102  H29 non d ame     -11.203  14.001  65.331  0.00  0.00     0.028 H 
ENDBRANCH  93  99
ENDBRANCH  90  93
ENDBRANCH   1  90
TORSDOF 26
ENDMDL
MODEL 4
REMARK VINA RESULT:      -6.4      2.849      6.551
REMARK  26 active torsions:
REMARK  status: ('A' for Active; 'I' for Inactive)
REMARK    1  A    between atoms: C2_2  and  C3_3 
REMARK    2  A    between atoms: C4_6  and  C5_7 
REMARK       I    between atoms: C5_7  and  N2_9 
REMARK    3  A    between atoms: N2_9  and  C6_10 
REMARK    4  A    between atoms: C6_10  and  C7_11 
REMARK    5  A    between atoms: C6_10  and  C8_13 
REMARK       I    between atoms: C7_11  and  N3_14 
REMARK    6  A    between atoms: N3_14  and  C9_15 
REMARK    7  A    between atoms: C9_15  and  C10_16 
REMARK    8  A    between atoms: C9_15  and  C11_18 
REMARK       I    between atoms: C10_16  and  N4_21 
REMARK    9  A    between atoms: C11_18  and  C12_19 
REMARK   10  A    between atoms: C11_18  and  C13_20 
REMARK   11  A    between atoms: N4_21  and  C14_22 
REMARK   12  A    between atoms: C14_22  and  C15_23 
REMARK   13  A    between atoms: C14_22  and  C16_25 
REMARK       I    between atoms: C15_23  and  N6_40 
REMARK   14  A    between atoms: C16_25  and  C17_26 
REMARK   15  A    between atoms: C17_26  and  C18_27 
REMARK   16  A    between atoms: C17_26  and  C19_28 
REMARK   17  A    between atoms: C20_29  and  C21_30 
REMARK   18  A    between atoms: C20_29  and  C24_33 
REMARK   19  A    between atoms: C20_29  and  N6_40 
REMARK   20  A    between atoms: C21_30  and  C22_31 
REMARK   21  A    between atoms: C22_31  and  C23_32 
REMARK   22  A    between atoms: C23_32  and  O8_43 
REMARK   23  A    between atoms: C24_33  and  C25_34 
REMARK   24  A    between atoms: C28_38  and  O6_39 
REMARK   25  A    between atoms: C29_42  and  O8_43 
REMARK   26  A    between atoms: C29_42  and  C35_49 
ROOT
ATOM      1  C14 non d ame      -7.489   9.991  69.745  0.00  0.00     0.089 C 
ATOM      2  H20 non d ame      -7.314  10.251  70.789  0.00  0.00     0.087 H 
ENDROOT
BRANCH   1   3
ATOM      3  N4  non d ame      -8.466   8.913  69.720  0.00  0.00    -0.346 N 
ATOM      4  C10 non d ame      -9.027   8.364  71.007  0.00  0.00     0.241 C 
ATOM      5  O4  non d ame      -8.674   8.803  72.052  0.00  0.00    -0.271 OA
ATOM      6  H19 non d ame      -8.752   8.551  68.821  0.00  0.00     0.163 HD
BRANCH   4   7
ATOM      7  C9  non d ame     -10.042   7.252  70.962  0.00  0.00     0.092 C 
ATOM      8  H11 non d ame      -9.931   6.629  71.850  0.00  0.00     0.088 H 
BRANCH   7   9
ATOM      9  N3  non d ame     -11.393   7.820  70.997  0.00  0.00    -0.346 N 
ATOM     10  C7  non d ame     -12.071   7.990  72.259  0.00  0.00     0.240 C 
ATOM     11  O3  non d ame     -11.545   7.672  73.255  0.00  0.00    -0.271 OA
ATOM     12  H10 non d ame     -11.860   8.097  70.146  0.00  0.00     0.163 HD
BRANCH  10  13
ATOM     13  C6  non d ame     -13.509   8.593  72.290  0.00  0.00     0.086 C 
ATOM     14  H6  non d ame     -14.102   8.227  73.128  0.00  0.00     0.086 H 
BRANCH  13  15
ATOM     15  N2  non d ame     -13.413  10.034  72.447  0.00  0.00    -0.343 N 
ATOM     16  C5  non d ame     -12.970  10.855  71.317  0.00  0.00     0.273 C 
ATOM     17  O2  non d ame     -12.690  10.345  70.288  0.00  0.00    -0.266 OA
ATOM     18  H5  non d ame     -13.651  10.461  73.331  0.00  0.00     0.163 HD
BRANCH  16  19
ATOM     19  C4  non d ame     -12.865  12.380  71.469  0.00  0.00     0.154 A 
ATOM     20  C1  non d ame     -13.611  13.214  72.360  0.00  0.00    -0.017 A 
ATOM     21  C2  non d ame     -13.143  14.524  72.111  0.00  0.00     0.077 A 
ATOM     22  H1  non d ame     -14.375  12.915  73.078  0.00  0.00     0.091 H 
ATOM     23  O1  non d ame     -12.234  14.440  71.184  0.00  0.00    -0.218 OA
ATOM     24  N1  non d ame     -12.054  13.200  70.793  0.00  0.00    -0.123 NA
BRANCH  21  25
ATOM     25  C3  non d ame     -13.615  15.797  72.800  0.00  0.00    -0.029 C 
ATOM     26  H2  non d ame     -12.829  16.550  72.751  0.00  0.00     0.036 H 
ATOM     27  H3  non d ame     -14.509  16.171  72.300  0.00  0.00     0.036 H 
ATOM     28  H4  non d ame     -13.847  15.581  73.844  0.00  0.00     0.036 H 
ENDBRANCH  21  25
ENDBRANCH  16  19
ENDBRANCH  13  15
BRANCH  13  29
ATOM     29  C8  non d ame     -14.224   8.260  71.005  0.00  0.00    -0.049 C 
ATOM     30  H7  non d ame     -13.600   8.543  70.158  0.00  0.00     0.030 H 
ATOM     31  H8  non d ame     -14.424   7.189  70.967  0.00  0.00     0.030 H 
ATOM     32  H9  non d ame     -15.165   8.807  70.961  0.00  0.00     0.030 H 
ENDBRANCH  13  29
ENDBRANCH  10  13
ENDBRANCH   7   9
BRANCH   7  33
ATOM     33  C11 non d ame      -9.860   6.436  69.649  0.00  0.00    -0.033 C 
ATOM     34  H12 non d ame      -9.078   6.922  69.066  0.00  0.00     0.042 H 
BRANCH  33  35
ATOM     35  C12 non d ame      -9.385   4.979  69.946  0.00  0.00    -0.071 C 
ATOM     36  H13 non d ame      -9.777   4.659  70.912  0.00  0.00     0.028 H 
ATOM     37  H14 non d ame      -9.752   4.312  69.167  0.00  0.00     0.028 H 
ATOM     38  H15 non d ame      -8.296   4.949  69.968  0.00  0.00     0.028 H 
ENDBRANCH  33  35
BRANCH  33  39
ATOM     39  C13 non d ame     -11.171   6.442  68.800  0.00  0.00    -0.071 C 
ATOM     40  H16 non d ame     -11.483   5.416  68.605  0.00  0.00     0.028 H 
ATOM     41  H17 non d ame     -11.957   6.962  69.349  0.00  0.00     0.028 H 
ATOM     42  H18 non d ame     -10.989   6.953  67.855  0.00  0.00     0.028 H 
ENDBRANCH  33  39
ENDBRANCH   7  33
ENDBRANCH   4   7
ENDBRANCH   1   3
BRANCH   1  43
ATOM     43  C15 non d ame      -8.052  11.190  68.928  0.00  0.00     0.240 C 
ATOM     44  O5  non d ame      -7.407  12.181  68.811  0.00  0.00    -0.271 OA
ATOM     45  N6  non d ame      -9.393  11.098  68.283  0.00  0.00    -0.355 N 
ATOM     46  H46 non d ame      -9.948  10.259  68.371  0.00  0.00     0.162 HD
BRANCH  45  47
ATOM     47  C20 non d ame      -9.914  12.245  67.509  0.00  0.00     0.013 C 
ATOM     48  H30 non d ame      -9.654  13.157  68.045  0.00  0.00     0.072 H 
BRANCH  47  49
ATOM     49  C21 non d ame     -11.417  12.127  67.390  0.00  0.00    -0.038 C 
ATOM     50  H31 non d ame     -11.605  11.775  66.375  0.00  0.00     0.036 H 
ATOM     51  H32 non d ame     -11.733  11.526  68.243  0.00  0.00     0.036 H 
BRANCH  49  52
ATOM     52  C22 non d ame     -12.137  13.486  67.522  0.00  0.00     0.018 C 
ATOM     53  H33 non d ame     -13.191  13.249  67.671  0.00  0.00     0.048 H 
ATOM     54  H34 non d ame     -11.589  14.038  68.286  0.00  0.00     0.048 H 
BRANCH  52  55
ATOM     55  C23 non d ame     -12.073  14.357  66.236  0.00  0.00     0.259 C 
ATOM     56  O7  non d ame     -12.814  14.151  65.331  0.00  0.00    -0.265 OA
BRANCH  55  57
ATOM     57  O8  non d ame     -11.107  15.397  66.147  0.00  0.00    -0.317 OA
BRANCH  57  58
ATOM     58  C29 non d ame     -10.586  15.817  67.412  0.00  0.00     0.052 C 
ATOM     59  H47 non d ame     -11.376  15.621  68.136  0.00  0.00     0.082 H 
ATOM     60  H48 non d ame      -9.619  15.324  67.511  0.00  0.00     0.082 H 
BRANCH  58  61
ATOM     61  C35 non d ame     -10.349  17.350  67.346  0.00  0.00    -0.034 A 
ATOM     62  C30 non d ame     -10.445  18.019  66.130  0.00  0.00    -0.075 A 
ATOM     63  C31 non d ame     -10.232  19.395  66.071  0.00  0.00    -0.082 A 
ATOM     64  H49 non d ame     -10.687  17.464  65.223  0.00  0.00     0.084 H 
ATOM     65  C32 non d ame      -9.920  20.103  67.235  0.00  0.00    -0.083 A 
ATOM     66  H50 non d ame     -10.310  19.916  65.117  0.00  0.00     0.083 H 
ATOM     67  C33 non d ame      -9.822  19.431  68.446  0.00  0.00    -0.082 A 
ATOM     68  H51 non d ame      -9.753  21.180  67.198  0.00  0.00     0.083 H 
ATOM     69  C34 non d ame     -10.036  18.056  68.510  0.00  0.00    -0.075 A 
ATOM     70  H52 non d ame      -9.577  19.986  69.352  0.00  0.00     0.083 H 
ATOM     71  H53 non d ame      -9.959  17.535  69.465  0.00  0.00     0.084 H 
ENDBRANCH  58  61
ENDBRANCH  57  58
ENDBRANCH  55  57
ENDBRANCH  52  55
ENDBRANCH  49  52
ENDBRANCH  47  49
BRANCH  47  72
ATOM     72  C24 non d ame      -9.291  12.252  66.114  0.00  0.00    -0.039 C 
ATOM     73  H35 non d ame      -9.386  13.279  65.760  0.00  0.00     0.036 H 
ATOM     74  H36 non d ame      -8.303  11.807  66.235  0.00  0.00     0.036 H 
BRANCH  72  75
ATOM     75  C25 non d ame     -10.107  11.323  65.096  0.00  0.00    -0.001 C 
ATOM     76  C26 non d ame      -9.209  10.003  64.700  0.00  0.00    -0.035 C 
ATOM     77  C27 non d ame      -9.169   9.892  63.350  0.00  0.00     0.085 C 
ATOM     78  H38 non d ame      -8.167  10.165  64.973  0.00  0.00     0.036 H 
ATOM     79  H39 non d ame      -9.721   9.094  65.016  0.00  0.00     0.036 H 
ATOM     80  N5  non d ame      -9.680  11.194  62.784  0.00  0.00    -0.049 N 
ATOM     81  H40 non d ame      -8.113   9.785  63.098  0.00  0.00     0.075 H 
ATOM     82  H41 non d ame      -9.872   9.097  63.103  0.00  0.00     0.075 H 
ATOM     83  C28 non d ame     -10.397  11.961  64.011  0.00  0.00     0.193 C 
ATOM     84  H42 non d ame      -8.867  11.724  62.505  0.00  0.00     0.280 HD
ATOM     85  H43 non d ame     -10.384  10.953  62.101  0.00  0.00     0.280 HD
ATOM     86  H44 non d ame     -11.484  11.992  64.085  0.00  0.00     0.129 H 
ATOM     87  H37 non d ame     -11.130  11.145  65.428  0.00  0.00     0.046 H 
BRANCH  83  88
ATOM     88  O6  non d ame      -9.972  13.324  64.057  0.00  0.00    -0.369 OA
ATOM     89  H45 non d ame     -10.616  13.844  64.543  0.00  0.00     0.212 HD
ENDBRANCH  83  88
ENDBRANCH  72  75
ENDBRANCH  47  72
ENDBRANCH  45  47
ENDBRANCH   1  43
BRANCH   1  90
ATOM     90  C16 non d ame      -6.196   9.504  69.111  0.00  0.00    -0.035 C 
ATOM     91  H21 non d ame      -5.593  10.399  68.959  0.00  0.00     0.037 H 
ATOM     92  H22 non d ame      -5.836   8.710  69.766  0.00  0.00     0.037 H 
BRANCH  90  93
ATOM     93  C17 non d ame      -6.393   8.859  67.702  0.00  0.00    -0.059 C 
ATOM     94  H23 non d ame      -7.461   8.850  67.489  0.00  0.00     0.038 H 
BRANCH  93  95
ATOM     95  C18 non d ame      -5.689   9.681  66.575  0.00  0.00    -0.073 C 
ATOM     96  H24 non d ame      -5.338   9.003  65.797  0.00  0.00     0.028 H 
ATOM     97  H25 non d ame      -6.397  10.391  66.147  0.00  0.00     0.028 H 
ATOM     98  H26 non d ame      -4.841  10.222  66.995  0.00  0.00     0.028 H 
ENDBRANCH  93  95
BRANCH  93  99
ATOM     99  C19 non d ame      -5.916   7.405  67.695  0.00  0.00    -0.073 C 
ATOM    100  H27 non d ame      -4.945   7.343  67.202  0.00  0.00     0.028 H 
ATOM    101  H28 non d ame      -5.825   7.047  68.721  0.00  0.00     0.028 H 
ATOM    102  H29 non d ame      -6.636   6.788  67.158  0.00  0.00     0.028 H 
ENDBRANCH  93  99
ENDBRANCH  90  93
ENDBRANCH   1  90
TORSDOF 26
ENDMDL
MODEL 5
REMARK VINA RESULT:      -6.3      2.732     10.047
REMARK  26 active torsions:
REMARK  status: ('A' for Active; 'I' for Inactive)
REMARK    1  A    between atoms: C2_2  and  C3_3 
REMARK    2  A    between atoms: C4_6  and  C5_7 
REMARK       I    between atoms: C5_7  and  N2_9 
REMARK    3  A    between atoms: N2_9  and  C6_10 
REMARK    4  A    between atoms: C6_10  and  C7_11 
REMARK    5  A    between atoms: C6_10  and  C8_13 
REMARK       I    between atoms: C7_11  and  N3_14 
REMARK    6  A    between atoms: N3_14  and  C9_15 
REMARK    7  A    between atoms: C9_15  and  C10_16 
REMARK    8  A    between atoms: C9_15  and  C11_18 
REMARK       I    between atoms: C10_16  and  N4_21 
REMARK    9  A    between atoms: C11_18  and  C12_19 
REMARK   10  A    between atoms: C11_18  and  C13_20 
REMARK   11  A    between atoms: N4_21  and  C14_22 
REMARK   12  A    between atoms: C14_22  and  C15_23 
REMARK   13  A    between atoms: C14_22  and  C16_25 
REMARK       I    between atoms: C15_23  and  N6_40 
REMARK   14  A    between atoms: C16_25  and  C17_26 
REMARK   15  A    between atoms: C17_26  and  C18_27 
REMARK   16  A    between atoms: C17_26  and  C19_28 
REMARK   17  A    between atoms: C20_29  and  C21_30 
REMARK   18  A    between atoms: C20_29  and  C24_33 
REMARK   19  A    between atoms: C20_29  and  N6_40 
REMARK   20  A    between atoms: C21_30  and  C22_31 
REMARK   21  A    between atoms: C22_31  and  C23_32 
REMARK   22  A    between atoms: C23_32  and  O8_43 
REMARK   23  A    between atoms: C24_33  and  C25_34 
REMARK   24  A    between atoms: C28_38  and  O6_39 
REMARK   25  A    between atoms: C29_42  and  O8_43 
REMARK   26  A    between atoms: C29_42  and  C35_49 
ROOT
ATOM      1  C14 non d ame      -9.093  10.173  66.177  0.00  0.00     0.089 C 
ATOM      2  H20 non d ame      -9.703   9.611  65.469  0.00  0.00     0.087 H 
ENDROOT
BRANCH   1   3
ATOM      3  N4  non d ame      -9.496  11.569  66.092  0.00  0.00    -0.346 N 
ATOM      4  C10 non d ame     -10.895  11.982  66.476  0.00  0.00     0.241 C 
ATOM      5  O4  non d ame     -11.679  11.173  66.848  0.00  0.00    -0.271 OA
ATOM      6  H19 non d ame      -8.814  12.242  65.771  0.00  0.00     0.163 HD
BRANCH   4   7
ATOM      7  C9  non d ame     -11.293  13.432  66.388  0.00  0.00     0.092 C 
ATOM      8  H11 non d ame     -12.356  13.526  66.611  0.00  0.00     0.088 H 
BRANCH   7   9
ATOM      9  N3  non d ame     -10.567  14.202  67.402  0.00  0.00    -0.346 N 
ATOM     10  C7  non d ame     -11.203  14.521  68.657  0.00  0.00     0.240 C 
ATOM     11  O3  non d ame     -12.299  14.167  68.866  0.00  0.00    -0.271 OA
ATOM     12  H10 non d ame      -9.621  14.515  67.235  0.00  0.00     0.163 HD
BRANCH  10  13
ATOM     13  C6  non d ame     -10.426  15.343  69.731  0.00  0.00     0.086 C 
ATOM     14  H6  non d ame      -9.566  14.807  70.132  0.00  0.00     0.086 H 
BRANCH  13  15
ATOM     15  N2  non d ame      -9.910  16.554  69.116  0.00  0.00    -0.343 N 
ATOM     16  C5  non d ame      -8.538  16.576  68.604  0.00  0.00     0.273 C 
ATOM     17  O2  non d ame      -7.857  15.614  68.694  0.00  0.00    -0.266 OA
ATOM     18  H5  non d ame     -10.499  17.373  69.045  0.00  0.00     0.163 HD
BRANCH  16  19
ATOM     19  C4  non d ame      -7.981  17.849  67.949  0.00  0.00     0.154 A 
ATOM     20  C1  non d ame      -7.719  18.064  66.559  0.00  0.00    -0.017 A 
ATOM     21  C2  non d ame      -7.220  19.383  66.482  0.00  0.00     0.077 A 
ATOM     22  H1  non d ame      -7.868  17.368  65.732  0.00  0.00     0.091 H 
ATOM     23  O1  non d ame      -7.203  19.862  67.691  0.00  0.00    -0.218 OA
ATOM     24  N1  non d ame      -7.642  18.986  68.565  0.00  0.00    -0.123 NA
BRANCH  21  25
ATOM     25  C3  non d ame      -6.785  20.110  65.216  0.00  0.00    -0.029 C 
ATOM     26  H2  non d ame      -7.199  21.118  65.215  0.00  0.00     0.036 H 
ATOM     27  H3  non d ame      -5.697  20.164  65.185  0.00  0.00     0.036 H 
ATOM     28  H4  non d ame      -7.147  19.567  64.342  0.00  0.00     0.036 H 
ENDBRANCH  21  25
ENDBRANCH  16  19
ENDBRANCH  13  15
BRANCH  13  29
ATOM     29  C8  non d ame     -11.353  15.695  70.866  0.00  0.00    -0.049 C 
ATOM     30  H7  non d ame     -11.370  16.776  71.001  0.00  0.00     0.030 H 
ATOM     31  H8  non d ame     -12.359  15.342  70.637  0.00  0.00     0.030 H 
ATOM     32  H9  non d ame     -11.002  15.221  71.782  0.00  0.00     0.030 H 
ENDBRANCH  13  29
ENDBRANCH  10  13
ENDBRANCH   7   9
BRANCH   7  33
ATOM     33  C11 non d ame     -10.942  13.981  64.974  0.00  0.00    -0.033 C 
ATOM     34  H12 non d ame      -9.941  13.629  64.724  0.00  0.00     0.042 H 
BRANCH  33  35
ATOM     35  C12 non d ame     -11.918  13.427  63.890  0.00  0.00    -0.071 C 
ATOM     36  H13 non d ame     -11.395  13.345  62.937  0.00  0.00     0.028 H 
ATOM     37  H14 non d ame     -12.277  12.444  64.193  0.00  0.00     0.028 H 
ATOM     38  H15 non d ame     -12.764  14.105  63.783  0.00  0.00     0.028 H 
ENDBRANCH  33  35
BRANCH  33  39
ATOM     39  C13 non d ame     -10.919  15.543  64.970  0.00  0.00    -0.071 C 
ATOM     40  H16 non d ame     -10.250  15.895  64.185  0.00  0.00     0.028 H 
ATOM     41  H17 non d ame     -11.925  15.921  64.787  0.00  0.00     0.028 H 
ATOM     42  H18 non d ame     -10.566  15.903  65.937  0.00  0.00     0.028 H 
ENDBRANCH  33  39
ENDBRANCH   7  33
ENDBRANCH   4   7
ENDBRANCH   1   3
BRANCH   1  43
ATOM     43  C15 non d ame      -9.294   9.687  67.641  0.00  0.00     0.240 C 
ATOM     44  O5  non d ame      -8.633  10.150  68.514  0.00  0.00    -0.271 OA
ATOM     45  N6  non d ame     -10.319   8.651  67.957  0.00  0.00    -0.355 N 
ATOM     46  H46 non d ame     -10.890   8.254  67.225  0.00  0.00     0.162 HD
BRANCH  45  47
ATOM     47  C20 non d ame     -10.499   8.201  69.354  0.00  0.00     0.013 C 
ATOM     48  H30 non d ame      -9.548   8.324  69.872  0.00  0.00     0.072 H 
BRANCH  47  49
ATOM     49  C21 non d ame     -10.906   6.745  69.361  0.00  0.00    -0.038 C 
ATOM     50  H31 non d ame     -10.242   6.256  70.074  0.00  0.00     0.036 H 
ATOM     51  H32 non d ame     -11.984   6.741  69.528  0.00  0.00     0.036 H 
BRANCH  49  52
ATOM     52  C22 non d ame     -10.674   6.051  68.001  0.00  0.00     0.018 C 
ATOM     53  H33 non d ame     -11.657   5.721  67.666  0.00  0.00     0.048 H 
ATOM     54  H34 non d ame     -10.103   6.760  67.401  0.00  0.00     0.048 H 
BRANCH  52  55
ATOM     55  C23 non d ame      -9.800   4.769  68.093  0.00  0.00     0.259 C 
ATOM     56  O7  non d ame      -9.688   4.188  69.124  0.00  0.00    -0.265 OA
BRANCH  55  57
ATOM     57  O8  non d ame      -9.123   4.302  66.933  0.00  0.00    -0.317 OA
BRANCH  57  58
ATOM     58  C29 non d ame      -9.557   4.919  65.718  0.00  0.00     0.052 C 
ATOM     59  H47 non d ame     -10.132   4.158  65.190  0.00  0.00     0.082 H 
ATOM     60  H48 non d ame     -10.034   5.853  66.015  0.00  0.00     0.082 H 
BRANCH  58  61
ATOM     61  C35 non d ame      -8.299   5.257  64.875  0.00  0.00    -0.034 A 
ATOM     62  C30 non d ame      -8.401   5.398  63.495  0.00  0.00    -0.075 A 
ATOM     63  C31 non d ame      -7.271   5.701  62.738  0.00  0.00    -0.082 A 
ATOM     64  H49 non d ame      -9.367   5.271  63.006  0.00  0.00     0.084 H 
ATOM     65  C32 non d ame      -6.033   5.862  63.366  0.00  0.00    -0.083 A 
ATOM     66  H50 non d ame      -7.355   5.813  61.657  0.00  0.00     0.083 H 
ATOM     67  C33 non d ame      -5.935   5.717  64.743  0.00  0.00    -0.082 A 
ATOM     68  H51 non d ame      -5.144   6.100  62.782  0.00  0.00     0.083 H 
ATOM     69  C34 non d ame      -7.062   5.416  65.504  0.00  0.00    -0.075 A 
ATOM     70  H52 non d ame      -4.967   5.841  65.230  0.00  0.00     0.083 H 
ATOM     71  H53 non d ame      -6.977   5.305  66.585  0.00  0.00     0.084 H 
ENDBRANCH  58  61
ENDBRANCH  57  58
ENDBRANCH  55  57
ENDBRANCH  52  55
ENDBRANCH  49  52
ENDBRANCH  47  49
BRANCH  47  72
ATOM     72  C24 non d ame     -11.584   9.037  70.030  0.00  0.00    -0.039 C 
ATOM     73  H35 non d ame     -11.490  10.035  69.602  0.00  0.00     0.036 H 
ATOM     74  H36 non d ame     -12.508   8.473  69.899  0.00  0.00     0.036 H 
BRANCH  72  75
ATOM     75  C25 non d ame     -11.331   9.173  71.606  0.00  0.00    -0.001 C 
ATOM     76  C26 non d ame      -9.870   8.528  71.996  0.00  0.00    -0.035 C 
ATOM     77  C27 non d ame     -10.038   7.652  73.016  0.00  0.00     0.085 C 
ATOM     78  H38 non d ame      -9.507   7.903  71.181  0.00  0.00     0.036 H 
ATOM     79  H39 non d ame      -9.225   9.296  72.424  0.00  0.00     0.036 H 
ATOM     80  N5  non d ame     -11.521   7.396  73.138  0.00  0.00    -0.049 N 
ATOM     81  H40 non d ame      -9.544   6.734  72.696  0.00  0.00     0.075 H 
ATOM     82  H41 non d ame      -9.693   8.174  73.908  0.00  0.00     0.075 H 
ATOM     83  C28 non d ame     -12.244   8.556  72.280  0.00  0.00     0.193 C 
ATOM     84  H42 non d ame     -11.696   6.508  72.690  0.00  0.00     0.280 HD
ATOM     85  H43 non d ame     -11.754   7.524  74.113  0.00  0.00     0.280 HD
ATOM     86  H44 non d ame     -12.723   9.398  72.781  0.00  0.00     0.129 H 
ATOM     87  H37 non d ame     -11.545  10.177  71.973  0.00  0.00     0.046 H 
BRANCH  83  88
ATOM     88  O6  non d ame     -13.249   7.992  71.436  0.00  0.00    -0.369 OA
ATOM     89  H45 non d ame     -13.440   8.598  70.717  0.00  0.00     0.212 HD
ENDBRANCH  83  88
ENDBRANCH  72  75
ENDBRANCH  47  72
ENDBRANCH  45  47
ENDBRANCH   1  43
BRANCH   1  90
ATOM     90  C16 non d ame      -7.625  10.057  65.798  0.00  0.00    -0.035 C 
ATOM     91  H21 non d ame      -7.320  11.064  65.512  0.00  0.00     0.037 H 
ATOM     92  H22 non d ame      -7.147   9.562  66.643  0.00  0.00     0.037 H 
BRANCH  90  93
ATOM     93  C17 non d ame      -7.370   9.149  64.552  0.00  0.00    -0.059 C 
ATOM     94  H23 non d ame      -7.201   8.134  64.912  0.00  0.00     0.038 H 
BRANCH  93  95
ATOM     95  C18 non d ame      -8.598   9.114  63.587  0.00  0.00    -0.073 C 
ATOM     96  H24 non d ame      -8.516   8.252  62.926  0.00  0.00     0.028 H 
ATOM     97  H25 non d ame      -9.516   9.040  64.170  0.00  0.00     0.028 H 
ATOM     98  H26 non d ame      -8.619  10.028  62.992  0.00  0.00     0.028 H 
ENDBRANCH  93  95
BRANCH  93  99
ATOM     99  C19 non d ame      -6.105   9.584  63.809  0.00  0.00    -0.073 C 
ATOM    100  H27 non d ame      -6.382  10.179  62.938  0.00  0.00     0.028 H 
ATOM    101  H28 non d ame      -5.480  10.182  64.473  0.00  0.00     0.028 H 
ATOM    102  H29 non d ame      -5.551   8.703  63.486  0.00  0.00     0.028 H 
ENDBRANCH  93  99
ENDBRANCH  90  93
ENDBRANCH   1  90
TORSDOF 26
ENDMDL
MODEL 6
REMARK VINA RESULT:      -6.2      2.676      5.324
REMARK  26 active torsions:
REMARK  status: ('A' for Active; 'I' for Inactive)
REMARK    1  A    between atoms: C2_2  and  C3_3 
REMARK    2  A    between atoms: C4_6  and  C5_7 
REMARK       I    between atoms: C5_7  and  N2_9 
REMARK    3  A    between atoms: N2_9  and  C6_10 
REMARK    4  A    between atoms: C6_10  and  C7_11 
REMARK    5  A    between atoms: C6_10  and  C8_13 
REMARK       I    between atoms: C7_11  and  N3_14 
REMARK    6  A    between atoms: N3_14  and  C9_15 
REMARK    7  A    between atoms: C9_15  and  C10_16 
REMARK    8  A    between atoms: C9_15  and  C11_18 
REMARK       I    between atoms: C10_16  and  N4_21 
REMARK    9  A    between atoms: C11_18  and  C12_19 
REMARK   10  A    between atoms: C11_18  and  C13_20 
REMARK   11  A    between atoms: N4_21  and  C14_22 
REMARK   12  A    between atoms: C14_22  and  C15_23 
REMARK   13  A    between atoms: C14_22  and  C16_25 
REMARK       I    between atoms: C15_23  and  N6_40 
REMARK   14  A    between atoms: C16_25  and  C17_26 
REMARK   15  A    between atoms: C17_26  and  C18_27 
REMARK   16  A    between atoms: C17_26  and  C19_28 
REMARK   17  A    between atoms: C20_29  and  C21_30 
REMARK   18  A    between atoms: C20_29  and  C24_33 
REMARK   19  A    between atoms: C20_29  and  N6_40 
REMARK   20  A    between atoms: C21_30  and  C22_31 
REMARK   21  A    between atoms: C22_31  and  C23_32 
REMARK   22  A    between atoms: C23_32  and  O8_43 
REMARK   23  A    between atoms: C24_33  and  C25_34 
REMARK   24  A    between atoms: C28_38  and  O6_39 
REMARK   25  A    between atoms: C29_42  and  O8_43 
REMARK   26  A    between atoms: C29_42  and  C35_49 
ROOT
ATOM      1  C14 non d ame     -11.058   9.085  70.066  0.00  0.00     0.089 C 
ATOM      2  H20 non d ame     -11.734   8.260  69.839  0.00  0.00     0.087 H 
ENDROOT
BRANCH   1   3
ATOM      3  N4  non d ame      -9.828   8.861  69.322  0.00  0.00    -0.346 N 
ATOM      4  C10 non d ame      -9.475   7.480  68.831  0.00  0.00     0.241 C 
ATOM      5  O4  non d ame     -10.196   6.563  69.050  0.00  0.00    -0.271 OA
ATOM      6  H19 non d ame      -9.227   9.655  69.148  0.00  0.00     0.163 HD
BRANCH   4   7
ATOM      7  C9  non d ame      -8.201   7.268  68.057  0.00  0.00     0.092 C 
ATOM      8  H11 non d ame      -8.212   6.272  67.613  0.00  0.00     0.088 H 
BRANCH   7   9
ATOM      9  N3  non d ame      -8.130   8.233  66.956  0.00  0.00    -0.346 N 
ATOM     10  C7  non d ame      -8.120   7.768  65.590  0.00  0.00     0.240 C 
ATOM     11  O3  non d ame      -8.166   6.622  65.360  0.00  0.00    -0.271 OA
ATOM     12  H10 non d ame      -8.089   9.225  67.139  0.00  0.00     0.163 HD
BRANCH  10  13
ATOM     13  C6  non d ame      -8.042   8.800  64.423  0.00  0.00     0.086 C 
ATOM     14  H6  non d ame      -8.240   8.351  63.449  0.00  0.00     0.086 H 
BRANCH  13  15
ATOM     15  N2  non d ame      -9.058   9.819  64.625  0.00  0.00    -0.343 N 
ATOM     16  C5  non d ame      -9.539  10.597  63.481  0.00  0.00     0.273 C 
ATOM     17  O2  non d ame      -9.099  10.397  62.402  0.00  0.00    -0.266 OA
ATOM     18  H5  non d ame      -9.427   9.985  65.551  0.00  0.00     0.163 HD
BRANCH  16  19
ATOM     19  C4  non d ame     -10.614  11.676  63.681  0.00  0.00     0.154 A 
ATOM     20  C1  non d ame     -10.439  12.976  64.253  0.00  0.00    -0.017 A 
ATOM     21  C2  non d ame     -11.720  13.569  64.206  0.00  0.00     0.077 A 
ATOM     22  H1  non d ame      -9.523  13.420  64.642  0.00  0.00     0.091 H 
ATOM     23  O1  non d ame     -12.528  12.704  63.668  0.00  0.00    -0.218 OA
ATOM     24  N1  non d ame     -11.907  11.591  63.353  0.00  0.00    -0.123 NA
BRANCH  21  25
ATOM     25  C3  non d ame     -12.086  14.965  64.695  0.00  0.00    -0.029 C 
ATOM     26  H2  non d ame     -12.975  14.908  65.324  0.00  0.00     0.036 H 
ATOM     27  H3  non d ame     -11.258  15.376  65.272  0.00  0.00     0.036 H 
ATOM     28  H4  non d ame     -12.287  15.609  63.839  0.00  0.00     0.036 H 
ENDBRANCH  21  25
ENDBRANCH  16  19
ENDBRANCH  13  15
BRANCH  13  29
ATOM     29  C8  non d ame      -6.674   9.433  64.398  0.00  0.00    -0.049 C 
ATOM     30  H7  non d ame      -6.772  10.504  64.218  0.00  0.00     0.030 H 
ATOM     31  H8  non d ame      -6.180   9.269  65.356  0.00  0.00     0.030 H 
ATOM     32  H9  non d ame      -6.081   8.984  63.601  0.00  0.00     0.030 H 
ENDBRANCH  13  29
ENDBRANCH  10  13
ENDBRANCH   7   9
BRANCH   7  33
ATOM     33  C11 non d ame      -6.980   7.473  69.001  0.00  0.00    -0.033 C 
ATOM     34  H12 non d ame      -7.338   7.983  69.896  0.00  0.00     0.042 H 
BRANCH  33  35
ATOM     35  C12 non d ame      -6.374   6.107  69.452  0.00  0.00    -0.071 C 
ATOM     36  H13 non d ame      -6.672   5.328  68.750  0.00  0.00     0.028 H 
ATOM     37  H14 non d ame      -5.287   6.181  69.471  0.00  0.00     0.028 H 
ATOM     38  H15 non d ame      -6.739   5.859  70.448  0.00  0.00     0.028 H 
ENDBRANCH  33  35
BRANCH  33  39
ATOM     39  C13 non d ame      -5.899   8.378  68.329  0.00  0.00    -0.071 C 
ATOM     40  H16 non d ame      -4.926   8.176  68.776  0.00  0.00     0.028 H 
ATOM     41  H17 non d ame      -5.859   8.165  67.260  0.00  0.00     0.028 H 
ATOM     42  H18 non d ame      -6.157   9.426  68.481  0.00  0.00     0.028 H 
ENDBRANCH  33  39
ENDBRANCH   7  33
ENDBRANCH   4   7
ENDBRANCH   1   3
BRANCH   1  43
ATOM     43  C15 non d ame     -11.649  10.461  69.645  0.00  0.00     0.240 C 
ATOM     44  O5  non d ame     -11.977  10.643  68.517  0.00  0.00    -0.271 OA
ATOM     45  N6  non d ame     -11.814  11.550  70.650  0.00  0.00    -0.355 N 
ATOM     46  H46 non d ame     -11.543  11.405  71.612  0.00  0.00     0.162 HD
BRANCH  45  47
ATOM     47  C20 non d ame     -12.378  12.852  70.234  0.00  0.00     0.013 C 
ATOM     48  H30 non d ame     -13.000  12.683  69.355  0.00  0.00     0.072 H 
BRANCH  47  49
ATOM     49  C21 non d ame     -11.250  13.800  69.894  0.00  0.00    -0.038 C 
ATOM     50  H31 non d ame     -11.346  14.634  70.589  0.00  0.00     0.036 H 
ATOM     51  H32 non d ame     -10.345  13.192  69.893  0.00  0.00     0.036 H 
BRANCH  49  52
ATOM     52  C22 non d ame     -11.376  14.397  68.476  0.00  0.00     0.018 C 
ATOM     53  H33 non d ame     -11.457  13.544  67.802  0.00  0.00     0.048 H 
ATOM     54  H34 non d ame     -12.186  15.125  68.533  0.00  0.00     0.048 H 
BRANCH  52  55
ATOM     55  C23 non d ame     -10.121  15.189  68.016  0.00  0.00     0.259 C 
ATOM     56  O7  non d ame      -9.032  14.740  68.177  0.00  0.00    -0.265 OA
BRANCH  55  57
ATOM     57  O8  non d ame     -10.285  16.465  67.409  0.00  0.00    -0.317 OA
BRANCH  57  58
ATOM     58  C29 non d ame     -10.363  17.547  68.340  0.00  0.00     0.052 C 
ATOM     59  H47 non d ame     -11.276  18.087  68.089  0.00  0.00     0.082 H 
ATOM     60  H48 non d ame     -10.251  17.096  69.326  0.00  0.00     0.082 H 
BRANCH  58  61
ATOM     61  C35 non d ame      -9.152  18.484  68.089  0.00  0.00    -0.034 A 
ATOM     62  C30 non d ame      -9.336  19.703  67.444  0.00  0.00    -0.075 A 
ATOM     63  C31 non d ame      -8.249  20.545  67.218  0.00  0.00    -0.082 A 
ATOM     64  H49 non d ame     -10.333  19.999  67.117  0.00  0.00     0.084 H 
ATOM     65  C32 non d ame      -6.971  20.162  67.637  0.00  0.00    -0.083 A 
ATOM     66  H50 non d ame      -8.397  21.501  66.715  0.00  0.00     0.083 H 
ATOM     67  C33 non d ame      -6.792  18.943  68.276  0.00  0.00    -0.082 A 
ATOM     68  H51 non d ame      -6.115  20.815  67.464  0.00  0.00     0.083 H 
ATOM     69  C34 non d ame      -7.876  18.100  68.507  0.00  0.00    -0.075 A 
ATOM     70  H52 non d ame      -5.793  18.647  68.600  0.00  0.00     0.083 H 
ATOM     71  H53 non d ame      -7.727  17.145  69.011  0.00  0.00     0.084 H 
ENDBRANCH  58  61
ENDBRANCH  57  58
ENDBRANCH  55  57
ENDBRANCH  52  55
ENDBRANCH  49  52
ENDBRANCH  47  49
BRANCH  47  72
ATOM     72  C24 non d ame     -13.213  13.440  71.370  0.00  0.00    -0.039 C 
ATOM     73  H35 non d ame     -14.194  13.638  70.936  0.00  0.00     0.036 H 
ATOM     74  H36 non d ame     -13.115  12.736  72.196  0.00  0.00     0.036 H 
BRANCH  72  75
ATOM     75  C25 non d ame     -12.627  14.843  71.872  0.00  0.00    -0.001 C 
ATOM     76  C26 non d ame     -12.099  14.706  73.423  0.00  0.00    -0.035 C 
ATOM     77  C27 non d ame     -12.647  15.701  74.160  0.00  0.00     0.085 C 
ATOM     78  H38 non d ame     -12.502  13.801  73.877  0.00  0.00     0.036 H 
ATOM     79  H39 non d ame     -11.029  14.911  73.474  0.00  0.00     0.036 H 
ATOM     80  N5  non d ame     -13.754  16.307  73.331  0.00  0.00    -0.049 N 
ATOM     81  H40 non d ame     -13.084  15.212  75.032  0.00  0.00     0.075 H 
ATOM     82  H41 non d ame     -11.856  16.439  74.289  0.00  0.00     0.075 H 
ATOM     83  C28 non d ame     -13.526  15.769  71.826  0.00  0.00     0.193 C 
ATOM     84  H42 non d ame     -14.619  15.921  73.682  0.00  0.00     0.280 HD
ATOM     85  H43 non d ame     -13.605  17.306  73.341  0.00  0.00     0.280 HD
ATOM     86  H44 non d ame     -13.099  16.421  71.063  0.00  0.00     0.129 H 
ATOM     87  H37 non d ame     -11.938  15.285  71.151  0.00  0.00     0.046 H 
BRANCH  83  88
ATOM     88  O6  non d ame     -14.758  15.297  71.279  0.00  0.00    -0.369 OA
ATOM     89  H45 non d ame     -15.017  15.857  70.544  0.00  0.00     0.212 HD
ENDBRANCH  83  88
ENDBRANCH  72  75
ENDBRANCH  47  72
ENDBRANCH  45  47
ENDBRANCH   1  43
BRANCH   1  90
ATOM     90  C16 non d ame     -10.742   9.098  71.554  0.00  0.00    -0.035 C 
ATOM     91  H21 non d ame      -9.758   8.638  71.644  0.00  0.00     0.037 H 
ATOM     92  H22 non d ame     -10.892  10.130  71.871  0.00  0.00     0.037 H 
BRANCH  90  93
ATOM     93  C17 non d ame     -11.717   8.227  72.408  0.00  0.00    -0.059 C 
ATOM     94  H23 non d ame     -11.567   8.493  73.455  0.00  0.00     0.038 H 
BRANCH  93  95
ATOM     95  C18 non d ame     -13.215   8.502  72.058  0.00  0.00    -0.073 C 
ATOM     96  H24 non d ame     -13.854   7.884  72.687  0.00  0.00     0.028 H 
ATOM     97  H25 non d ame     -13.441   9.554  72.231  0.00  0.00     0.028 H 
ATOM     98  H26 non d ame     -13.392   8.259  71.010  0.00  0.00     0.028 H 
ENDBRANCH  93  95
BRANCH  93  99
ATOM     99  C19 non d ame     -11.388   6.739  72.266  0.00  0.00    -0.073 C 
ATOM    100  H27 non d ame     -12.308   6.156  72.323  0.00  0.00     0.028 H 
ATOM    101  H28 non d ame     -10.907   6.564  71.303  0.00  0.00     0.028 H 
ATOM    102  H29 non d ame     -10.715   6.437  73.068  0.00  0.00     0.028 H 
ENDBRANCH  93  99
ENDBRANCH  90  93
ENDBRANCH   1  90
TORSDOF 26
ENDMDL
MODEL 7
REMARK VINA RESULT:      -6.2      2.793      7.643
REMARK  26 active torsions:
REMARK  status: ('A' for Active; 'I' for Inactive)
REMARK    1  A    between atoms: C2_2  and  C3_3 
REMARK    2  A    between atoms: C4_6  and  C5_7 
REMARK       I    between atoms: C5_7  and  N2_9 
REMARK    3  A    between atoms: N2_9  and  C6_10 
REMARK    4  A    between atoms: C6_10  and  C7_11 
REMARK    5  A    between atoms: C6_10  and  C8_13 
REMARK       I    between atoms: C7_11  and  N3_14 
REMARK    6  A    between atoms: N3_14  and  C9_15 
REMARK    7  A    between atoms: C9_15  and  C10_16 
REMARK    8  A    between atoms: C9_15  and  C11_18 
REMARK       I    between atoms: C10_16  and  N4_21 
REMARK    9  A    between atoms: C11_18  and  C12_19 
REMARK   10  A    between atoms: C11_18  and  C13_20 
REMARK   11  A    between atoms: N4_21  and  C14_22 
REMARK   12  A    between atoms: C14_22  and  C15_23 
REMARK   13  A    between atoms: C14_22  and  C16_25 
REMARK       I    between atoms: C15_23  and  N6_40 
REMARK   14  A    between atoms: C16_25  and  C17_26 
REMARK   15  A    between atoms: C17_26  and  C18_27 
REMARK   16  A    between atoms: C17_26  and  C19_28 
REMARK   17  A    between atoms: C20_29  and  C21_30 
REMARK   18  A    between atoms: C20_29  and  C24_33 
REMARK   19  A    between atoms: C20_29  and  N6_40 
REMARK   20  A    between atoms: C21_30  and  C22_31 
REMARK   21  A    between atoms: C22_31  and  C23_32 
REMARK   22  A    between atoms: C23_32  and  O8_43 
REMARK   23  A    between atoms: C24_33  and  C25_34 
REMARK   24  A    between atoms: C28_38  and  O6_39 
REMARK   25  A    between atoms: C29_42  and  O8_43 
REMARK   26  A    between atoms: C29_42  and  C35_49 
ROOT
ATOM      1  C14 non d ame      -9.191   6.049  67.858  0.00  0.00     0.089 C 
ATOM      2  H20 non d ame      -9.881   5.673  67.102  0.00  0.00     0.087 H 
ENDROOT
BRANCH   1   3
ATOM      3  N4  non d ame      -8.639   7.302  67.364  0.00  0.00    -0.346 N 
ATOM      4  C10 non d ame      -9.543   8.347  66.762  0.00  0.00     0.241 C 
ATOM      5  O4  non d ame     -10.711   8.157  66.682  0.00  0.00    -0.271 OA
ATOM      6  H19 non d ame      -7.641   7.443  67.439  0.00  0.00     0.163 HD
BRANCH   4   7
ATOM      7  C9  non d ame      -8.955   9.641  66.261  0.00  0.00     0.092 C 
ATOM      8  H11 non d ame      -8.551   9.487  65.260  0.00  0.00     0.088 H 
BRANCH   7   9
ATOM      9  N3  non d ame     -10.013  10.649  66.151  0.00  0.00    -0.346 N 
ATOM     10  C7  non d ame     -10.447  11.100  64.852  0.00  0.00     0.240 C 
ATOM     11  O3  non d ame      -9.955  10.662  63.884  0.00  0.00    -0.271 OA
ATOM     12  H10 non d ame     -10.446  11.037  66.977  0.00  0.00     0.163 HD
BRANCH  10  13
ATOM     13  C6  non d ame     -11.572  12.175  64.742  0.00  0.00     0.086 C 
ATOM     14  H6  non d ame     -12.332  12.072  65.516  0.00  0.00     0.086 H 
BRANCH  13  15
ATOM     15  N2  non d ame     -10.983  13.493  64.911  0.00  0.00    -0.343 N 
ATOM     16  C5  non d ame     -11.425  14.344  66.018  0.00  0.00     0.273 C 
ATOM     17  O2  non d ame     -12.258  13.961  66.764  0.00  0.00    -0.266 OA
ATOM     18  H5  non d ame     -10.273  13.813  64.267  0.00  0.00     0.163 HD
BRANCH  16  19
ATOM     19  C4  non d ame     -10.809  15.739  66.210  0.00  0.00     0.154 A 
ATOM     20  C1  non d ame     -10.517  16.392  67.449  0.00  0.00    -0.017 A 
ATOM     21  C2  non d ame      -9.967  17.640  67.082  0.00  0.00     0.077 A 
ATOM     22  H1  non d ame     -10.679  16.018  68.460  0.00  0.00     0.091 H 
ATOM     23  O1  non d ame      -9.948  17.688  65.782  0.00  0.00    -0.218 OA
ATOM     24  N1  non d ame     -10.435  16.590  65.250  0.00  0.00    -0.123 NA
BRANCH  21  25
ATOM     25  C3  non d ame      -9.484  18.728  68.032  0.00  0.00    -0.029 C 
ATOM     26  H2  non d ame      -9.810  18.495  69.046  0.00  0.00     0.036 H 
ATOM     27  H3  non d ame      -8.396  18.779  68.002  0.00  0.00     0.036 H 
ATOM     28  H4  non d ame      -9.901  19.688  67.728  0.00  0.00     0.036 H 
ENDBRANCH  21  25
ENDBRANCH  16  19
ENDBRANCH  13  15
BRANCH  13  29
ATOM     29  C8  non d ame     -12.236  12.076  63.392  0.00  0.00    -0.049 C 
ATOM     30  H7  non d ame     -13.241  11.670  63.510  0.00  0.00     0.030 H 
ATOM     31  H8  non d ame     -12.295  13.067  62.942  0.00  0.00     0.030 H 
ATOM     32  H9  non d ame     -11.653  11.419  62.748  0.00  0.00     0.030 H 
ENDBRANCH  13  29
ENDBRANCH  10  13
ENDBRANCH   7   9
BRANCH   7  33
ATOM     33  C11 non d ame      -7.870  10.138  67.260  0.00  0.00    -0.033 C 
ATOM     34  H12 non d ame      -7.209   9.298  67.473  0.00  0.00     0.042 H 
BRANCH  33  35
ATOM     35  C12 non d ame      -6.999  11.273  66.635  0.00  0.00    -0.071 C 
ATOM     36  H13 non d ame      -6.277  11.624  67.372  0.00  0.00     0.028 H 
ATOM     37  H14 non d ame      -6.470  10.886  65.764  0.00  0.00     0.028 H 
ATOM     38  H15 non d ame      -7.642  12.099  66.333  0.00  0.00     0.028 H 
ENDBRANCH  33  35
BRANCH  33  39
ATOM     39  C13 non d ame      -8.517  10.597  68.606  0.00  0.00    -0.071 C 
ATOM     40  H16 non d ame      -9.229   9.845  68.942  0.00  0.00     0.028 H 
ATOM     41  H17 non d ame      -7.738  10.723  69.359  0.00  0.00     0.028 H 
ATOM     42  H18 non d ame      -9.033  11.545  68.456  0.00  0.00     0.028 H 
ENDBRANCH  33  39
ENDBRANCH   7  33
ENDBRANCH   4   7
ENDBRANCH   1   3
BRANCH   1  43
ATOM     43  C15 non d ame      -9.900   6.321  69.216  0.00  0.00     0.240 C 
ATOM     44  O5  non d ame     -11.007   5.929  69.393  0.00  0.00    -0.271 OA
ATOM     45  N6  non d ame      -9.193   7.063  70.299  0.00  0.00    -0.355 N 
ATOM     46  H46 non d ame      -8.250   7.397  70.161  0.00  0.00     0.162 HD
BRANCH  45  47
ATOM     47  C20 non d ame      -9.880   7.313  71.584  0.00  0.00     0.013 C 
ATOM     48  H30 non d ame     -10.814   6.750  71.581  0.00  0.00     0.072 H 
BRANCH  47  49
ATOM     49  C21 non d ame     -10.168   8.791  71.719  0.00  0.00    -0.038 C 
ATOM     50  H31 non d ame     -10.415   8.949  72.769  0.00  0.00     0.036 H 
ATOM     51  H32 non d ame      -9.310   9.299  71.278  0.00  0.00     0.036 H 
BRANCH  49  52
ATOM     52  C22 non d ame     -11.404   9.237  70.907  0.00  0.00     0.018 C 
ATOM     53  H33 non d ame     -11.110  10.158  70.404  0.00  0.00     0.048 H 
ATOM     54  H34 non d ame     -11.702   8.367  70.322  0.00  0.00     0.048 H 
BRANCH  52  55
ATOM     55  C23 non d ame     -12.632   9.602  71.787  0.00  0.00     0.259 C 
ATOM     56  O7  non d ame     -13.181   8.769  72.432  0.00  0.00    -0.265 OA
BRANCH  55  57
ATOM     57  O8  non d ame     -13.102  10.945  71.804  0.00  0.00    -0.317 OA
BRANCH  57  58
ATOM     58  C29 non d ame     -12.561  11.764  70.763  0.00  0.00     0.052 C 
ATOM     59  H47 non d ame     -11.508  11.492  70.690  0.00  0.00     0.082 H 
ATOM     60  H48 non d ame     -13.220  11.626  69.906  0.00  0.00     0.082 H 
BRANCH  58  61
ATOM     61  C35 non d ame     -12.655  13.244  71.221  0.00  0.00    -0.034 A 
ATOM     62  C30 non d ame     -13.428  13.583  72.327  0.00  0.00    -0.075 A 
ATOM     63  C31 non d ame     -13.512  14.912  72.739  0.00  0.00    -0.082 A 
ATOM     64  H49 non d ame     -13.966  12.808  72.872  0.00  0.00     0.084 H 
ATOM     65  C32 non d ame     -12.823  15.905  72.037  0.00  0.00    -0.083 A 
ATOM     66  H50 non d ame     -14.116  15.175  73.608  0.00  0.00     0.083 H 
ATOM     67  C33 non d ame     -12.057  15.563  70.932  0.00  0.00    -0.082 A 
ATOM     68  H51 non d ame     -12.884  16.947  72.352  0.00  0.00     0.083 H 
ATOM     69  C34 non d ame     -11.967  14.235  70.518  0.00  0.00    -0.075 A 
ATOM     70  H52 non d ame     -11.522  16.340  70.385  0.00  0.00     0.083 H 
ATOM     71  H53 non d ame     -11.362  13.974  69.650  0.00  0.00     0.084 H 
ENDBRANCH  58  61
ENDBRANCH  57  58
ENDBRANCH  55  57
ENDBRANCH  52  55
ENDBRANCH  49  52
ENDBRANCH  47  49
BRANCH  47  72
ATOM     72  C24 non d ame      -8.992   6.859  72.741  0.00  0.00    -0.039 C 
ATOM     73  H35 non d ame      -9.676   6.616  73.554  0.00  0.00     0.036 H 
ATOM     74  H36 non d ame      -8.346   6.086  72.325  0.00  0.00     0.036 H 
BRANCH  72  75
ATOM     75  C25 non d ame      -8.043   8.041  73.259  0.00  0.00    -0.001 C 
ATOM     76  C26 non d ame      -6.502   7.788  72.743  0.00  0.00    -0.035 C 
ATOM     77  C27 non d ame      -5.667   7.875  73.806  0.00  0.00     0.085 C 
ATOM     78  H38 non d ame      -6.384   6.758  72.410  0.00  0.00     0.036 H 
ATOM     79  H39 non d ame      -6.183   8.609  72.101  0.00  0.00     0.036 H 
ATOM     80  N5  non d ame      -6.526   7.838  75.047  0.00  0.00    -0.049 N 
ATOM     81  H40 non d ame      -5.055   6.973  73.771  0.00  0.00     0.075 H 
ATOM     82  H41 non d ame      -5.197   8.855  73.728  0.00  0.00     0.075 H 
ATOM     83  C28 non d ame      -8.038   8.106  74.548  0.00  0.00     0.193 C 
ATOM     84  H42 non d ame      -6.468   6.897  75.408  0.00  0.00     0.280 HD
ATOM     85  H43 non d ame      -6.234   8.617  75.620  0.00  0.00     0.280 HD
ATOM     86  H44 non d ame      -8.507   9.078  74.700  0.00  0.00     0.129 H 
ATOM     87  H37 non d ame      -8.472   9.026  73.074  0.00  0.00     0.046 H 
BRANCH  83  88
ATOM     88  O6  non d ame      -8.927   7.156  75.139  0.00  0.00    -0.369 OA
ATOM     89  H45 non d ame      -9.801   7.545  75.222  0.00  0.00     0.212 HD
ENDBRANCH  83  88
ENDBRANCH  72  75
ENDBRANCH  47  72
ENDBRANCH  45  47
ENDBRANCH   1  43
BRANCH   1  90
ATOM     90  C16 non d ame      -8.059   5.054  68.062  0.00  0.00    -0.035 C 
ATOM     91  H21 non d ame      -7.652   4.872  67.067  0.00  0.00     0.037 H 
ATOM     92  H22 non d ame      -7.429   5.490  68.837  0.00  0.00     0.037 H 
BRANCH  90  93
ATOM     93  C17 non d ame      -8.533   3.669  68.606  0.00  0.00    -0.059 C 
ATOM     94  H23 non d ame      -9.190   3.854  69.456  0.00  0.00     0.038 H 
BRANCH  93  95
ATOM     95  C18 non d ame      -9.347   2.865  67.541  0.00  0.00    -0.073 C 
ATOM     96  H24 non d ame     -10.030   3.538  67.023  0.00  0.00     0.028 H 
ATOM     97  H25 non d ame      -8.661   2.419  66.821  0.00  0.00     0.028 H 
ATOM     98  H26 non d ame      -9.916   2.079  68.037  0.00  0.00     0.028 H 
ENDBRANCH  93  95
BRANCH  93  99
ATOM     99  C19 non d ame      -7.347   2.848  69.118  0.00  0.00    -0.073 C 
ATOM    100  H27 non d ame      -7.333   1.878  68.618  0.00  0.00     0.028 H 
ATOM    101  H28 non d ame      -6.419   3.379  68.906  0.00  0.00     0.028 H 
ATOM    102  H29 non d ame      -7.444   2.701  70.193  0.00  0.00     0.028 H 
ENDBRANCH  93  99
ENDBRANCH  90  93
ENDBRANCH   1  90
TORSDOF 26
ENDMDL
MODEL 8
REMARK VINA RESULT:      -6.2      2.980      7.646
REMARK  26 active torsions:
REMARK  status: ('A' for Active; 'I' for Inactive)
REMARK    1  A    between atoms: C2_2  and  C3_3 
REMARK    2  A    between atoms: C4_6  and  C5_7 
REMARK       I    between atoms: C5_7  and  N2_9 
REMARK    3  A    between atoms: N2_9  and  C6_10 
REMARK    4  A    between atoms: C6_10  and  C7_11 
REMARK    5  A    between atoms: C6_10  and  C8_13 
REMARK       I    between atoms: C7_11  and  N3_14 
REMARK    6  A    between atoms: N3_14  and  C9_15 
REMARK    7  A    between atoms: C9_15  and  C10_16 
REMARK    8  A    between atoms: C9_15  and  C11_18 
REMARK       I    between atoms: C10_16  and  N4_21 
REMARK    9  A    between atoms: C11_18  and  C12_19 
REMARK   10  A    between atoms: C11_18  and  C13_20 
REMARK   11  A    between atoms: N4_21  and  C14_22 
REMARK   12  A    between atoms: C14_22  and  C15_23 
REMARK   13  A    between atoms: C14_22  and  C16_25 
REMARK       I    between atoms: C15_23  and  N6_40 
REMARK   14  A    between atoms: C16_25  and  C17_26 
REMARK   15  A    between atoms: C17_26  and  C18_27 
REMARK   16  A    between atoms: C17_26  and  C19_28 
REMARK   17  A    between atoms: C20_29  and  C21_30 
REMARK   18  A    between atoms: C20_29  and  C24_33 
REMARK   19  A    between atoms: C20_29  and  N6_40 
REMARK   20  A    between atoms: C21_30  and  C22_31 
REMARK   21  A    between atoms: C22_31  and  C23_32 
REMARK   22  A    between atoms: C23_32  and  O8_43 
REMARK   23  A    between atoms: C24_33  and  C25_34 
REMARK   24  A    between atoms: C28_38  and  O6_39 
REMARK   25  A    between atoms: C29_42  and  O8_43 
REMARK   26  A    between atoms: C29_42  and  C35_49 
ROOT
ATOM      1  C14 non d ame      -8.833   7.047  66.258  0.00  0.00     0.089 C 
ATOM      2  H20 non d ame      -9.129   6.447  65.397  0.00  0.00     0.087 H 
ENDROOT
BRANCH   1   3
ATOM      3  N4  non d ame      -8.438   8.358  65.763  0.00  0.00    -0.346 N 
ATOM      4  C10 non d ame      -8.192   8.574  64.291  0.00  0.00     0.241 C 
ATOM      5  O4  non d ame      -8.315   7.677  63.524  0.00  0.00    -0.271 OA
ATOM      6  H19 non d ame      -8.337   9.108  66.433  0.00  0.00     0.163 HD
BRANCH   4   7
ATOM      7  C9  non d ame      -7.789   9.939  63.797  0.00  0.00     0.092 C 
ATOM      8  H11 non d ame      -7.918   9.980  62.715  0.00  0.00     0.088 H 
BRANCH   7   9
ATOM      9  N3  non d ame      -8.676  10.951  64.378  0.00  0.00    -0.346 N 
ATOM     10  C7  non d ame      -9.883  11.334  63.687  0.00  0.00     0.240 C 
ATOM     11  O3  non d ame     -10.155  10.838  62.662  0.00  0.00    -0.271 OA
ATOM     12  H10 non d ame      -8.454  11.388  65.261  0.00  0.00     0.163 HD
BRANCH  10  13
ATOM     13  C6  non d ame     -10.821  12.414  64.309  0.00  0.00     0.086 C 
ATOM     14  H6  non d ame     -11.196  12.131  65.292  0.00  0.00     0.086 H 
BRANCH  13  15
ATOM     15  N2  non d ame     -10.069  13.644  64.490  0.00  0.00    -0.343 N 
ATOM     16  C5  non d ame     -10.399  14.535  65.605  0.00  0.00     0.273 C 
ATOM     17  O2  non d ame     -11.273  14.254  66.349  0.00  0.00    -0.266 OA
ATOM     18  H5  non d ame      -9.325  13.878  63.848  0.00  0.00     0.163 HD
BRANCH  16  19
ATOM     19  C4  non d ame      -9.610  15.838  65.809  0.00  0.00     0.154 A 
ATOM     20  C1  non d ame      -8.273  15.972  66.300  0.00  0.00    -0.017 A 
ATOM     21  C2  non d ame      -8.022  17.362  66.297  0.00  0.00     0.077 A 
ATOM     22  H1  non d ame      -7.590  15.181  66.611  0.00  0.00     0.091 H 
ATOM     23  O1  non d ame      -9.094  17.948  65.852  0.00  0.00    -0.218 OA
ATOM     24  N1  non d ame     -10.036  17.080  65.562  0.00  0.00    -0.123 NA
BRANCH  21  25
ATOM     25  C3  non d ame      -6.732  18.046  66.731  0.00  0.00    -0.029 C 
ATOM     26  H2  non d ame      -6.965  18.855  67.425  0.00  0.00     0.036 H 
ATOM     27  H3  non d ame      -6.084  17.321  67.223  0.00  0.00     0.036 H 
ATOM     28  H4  non d ame      -6.223  18.453  65.857  0.00  0.00     0.036 H 
ENDBRANCH  21  25
ENDBRANCH  16  19
ENDBRANCH  13  15
BRANCH  13  29
ATOM     29  C8  non d ame     -11.992  12.655  63.391  0.00  0.00    -0.049 C 
ATOM     30  H7  non d ame     -12.718  11.851  63.509  0.00  0.00     0.030 H 
ATOM     31  H8  non d ame     -12.461  13.607  63.642  0.00  0.00     0.030 H 
ATOM     32  H9  non d ame     -11.645  12.682  62.359  0.00  0.00     0.030 H 
ENDBRANCH  13  29
ENDBRANCH  10  13
ENDBRANCH   7   9
BRANCH   7  33
ATOM     33  C11 non d ame      -6.321  10.233  64.223  0.00  0.00    -0.033 C 
ATOM     34  H12 non d ame      -5.975  11.087  63.642  0.00  0.00     0.042 H 
BRANCH  33  35
ATOM     35  C12 non d ame      -6.235  10.624  65.731  0.00  0.00    -0.071 C 
ATOM     36  H13 non d ame      -5.690   9.854  66.276  0.00  0.00     0.028 H 
ATOM     37  H14 non d ame      -5.713  11.576  65.830  0.00  0.00     0.028 H 
ATOM     38  H15 non d ame      -7.240  10.717  66.140  0.00  0.00     0.028 H 
ENDBRANCH  33  35
BRANCH  33  39
ATOM     39  C13 non d ame      -5.391   9.020  63.899  0.00  0.00    -0.071 C 
ATOM     40  H16 non d ame      -4.403   9.195  64.324  0.00  0.00     0.028 H 
ATOM     41  H17 non d ame      -5.815   8.111  64.329  0.00  0.00     0.028 H 
ATOM     42  H18 non d ame      -5.307   8.905  62.818  0.00  0.00     0.028 H 
ENDBRANCH  33  39
ENDBRANCH   7  33
ENDBRANCH   4   7
ENDBRANCH   1   3
BRANCH   1  43
ATOM     43  C15 non d ame      -9.997   7.231  67.273  0.00  0.00     0.240 C 
ATOM     44  O5  non d ame     -11.055   6.735  67.056  0.00  0.00    -0.271 OA
ATOM     45  N6  non d ame      -9.790   8.019  68.522  0.00  0.00    -0.355 N 
ATOM     46  H46 non d ame      -8.894   8.440  68.720  0.00  0.00     0.162 HD
BRANCH  45  47
ATOM     47  C20 non d ame     -10.906   8.183  69.478  0.00  0.00     0.013 C 
ATOM     48  H30 non d ame     -11.827   7.892  68.973  0.00  0.00     0.072 H 
BRANCH  47  49
ATOM     49  C21 non d ame     -10.988   9.631  69.907  0.00  0.00    -0.038 C 
ATOM     50  H31 non d ame     -11.814   9.682  70.616  0.00  0.00     0.036 H 
ATOM     51  H32 non d ame      -9.980   9.901  70.224  0.00  0.00     0.036 H 
BRANCH  49  52
ATOM     52  C22 non d ame     -11.349  10.580  68.745  0.00  0.00     0.018 C 
ATOM     53  H33 non d ame     -11.856   9.961  68.004  0.00  0.00     0.048 H 
ATOM     54  H34 non d ame     -11.872  11.421  69.202  0.00  0.00     0.048 H 
BRANCH  52  55
ATOM     55  C23 non d ame     -10.114  11.187  68.024  0.00  0.00     0.259 C 
ATOM     56  O7  non d ame      -9.696  10.694  67.026  0.00  0.00    -0.265 OA
BRANCH  55  57
ATOM     57  O8  non d ame      -9.477  12.332  68.576  0.00  0.00    -0.317 OA
BRANCH  57  58
ATOM     58  C29 non d ame      -8.279  12.718  67.896  0.00  0.00     0.052 C 
ATOM     59  H47 non d ame      -8.066  11.912  67.194  0.00  0.00     0.082 H 
ATOM     60  H48 non d ame      -8.461  13.727  67.528  0.00  0.00     0.082 H 
BRANCH  58  61
ATOM     61  C35 non d ame      -7.132  12.775  68.940  0.00  0.00    -0.034 A 
ATOM     62  C30 non d ame      -6.633  11.600  69.491  0.00  0.00    -0.075 A 
ATOM     63  C31 non d ame      -5.603  11.651  70.430  0.00  0.00    -0.082 A 
ATOM     64  H49 non d ame      -7.047  10.638  69.188  0.00  0.00     0.084 H 
ATOM     65  C32 non d ame      -5.074  12.885  70.819  0.00  0.00    -0.083 A 
ATOM     66  H50 non d ame      -5.212  10.728  70.858  0.00  0.00     0.083 H 
ATOM     67  C33 non d ame      -5.578  14.055  70.269  0.00  0.00    -0.082 A 
ATOM     68  H51 non d ame      -4.268  12.934  71.551  0.00  0.00     0.083 H 
ATOM     69  C34 non d ame      -6.606  14.008  69.329  0.00  0.00    -0.075 A 
ATOM     70  H52 non d ame      -5.165  15.016  70.576  0.00  0.00     0.083 H 
ATOM     71  H53 non d ame      -6.996  14.932  68.901  0.00  0.00     0.084 H 
ENDBRANCH  58  61
ENDBRANCH  57  58
ENDBRANCH  55  57
ENDBRANCH  52  55
ENDBRANCH  49  52
ENDBRANCH  47  49
BRANCH  47  72
ATOM     72  C24 non d ame     -10.671   7.301  70.703  0.00  0.00    -0.039 C 
ATOM     73  H35 non d ame     -11.608   6.764  70.858  0.00  0.00     0.036 H 
ATOM     74  H36 non d ame      -9.756   6.748  70.491  0.00  0.00     0.036 H 
BRANCH  72  75
ATOM     75  C25 non d ame     -10.403   8.173  72.019  0.00  0.00    -0.001 C 
ATOM     76  C26 non d ame      -8.790   8.235  72.331  0.00  0.00    -0.035 C 
ATOM     77  C27 non d ame      -8.581   7.880  73.622  0.00  0.00     0.085 C 
ATOM     78  H38 non d ame      -8.270   7.461  71.767  0.00  0.00     0.036 H 
ATOM     79  H39 non d ame      -8.440   9.267  72.291  0.00  0.00     0.036 H 
ATOM     80  N5  non d ame      -9.866   7.268  74.125  0.00  0.00    -0.049 N 
ATOM     81  H40 non d ame      -7.809   7.110  73.592  0.00  0.00     0.075 H 
ATOM     82  H41 non d ame      -8.400   8.813  74.155  0.00  0.00     0.075 H 
ATOM     83  C28 non d ame     -11.000   7.665  73.046  0.00  0.00     0.193 C 
ATOM     84  H42 non d ame      -9.735   6.267  74.100  0.00  0.00     0.280 HD
ATOM     85  H43 non d ame     -10.079   7.727  74.999  0.00  0.00     0.280 HD
ATOM     86  H44 non d ame     -11.721   8.453  73.266  0.00  0.00     0.129 H 
ATOM     87  H37 non d ame     -10.942   9.121  72.004  0.00  0.00     0.046 H 
BRANCH  83  88
ATOM     88  O6  non d ame     -11.779   6.518  72.704  0.00  0.00    -0.369 OA
ATOM     89  H45 non d ame     -12.035   6.055  73.505  0.00  0.00     0.212 HD
ENDBRANCH  83  88
ENDBRANCH  72  75
ENDBRANCH  47  72
ENDBRANCH  45  47
ENDBRANCH   1  43
BRANCH   1  90
ATOM     90  C16 non d ame      -7.646   6.401  66.953  0.00  0.00    -0.035 C 
ATOM     91  H21 non d ame      -7.998   6.150  67.953  0.00  0.00     0.037 H 
ATOM     92  H22 non d ame      -7.312   5.611  66.279  0.00  0.00     0.037 H 
BRANCH  90  93
ATOM     93  C17 non d ame      -6.430   7.363  67.142  0.00  0.00    -0.059 C 
ATOM     94  H23 non d ame      -6.595   8.233  66.505  0.00  0.00     0.038 H 
BRANCH  93  95
ATOM     95  C18 non d ame      -6.302   7.868  68.615  0.00  0.00    -0.073 C 
ATOM     96  H24 non d ame      -7.267   7.781  69.114  0.00  0.00     0.028 H 
ATOM     97  H25 non d ame      -5.564   7.264  69.143  0.00  0.00     0.028 H 
ATOM     98  H26 non d ame      -5.985   8.911  68.615  0.00  0.00     0.028 H 
ENDBRANCH  93  95
BRANCH  93  99
ATOM     99  C19 non d ame      -5.131   6.700  66.678  0.00  0.00    -0.073 C 
ATOM    100  H27 non d ame      -5.358   5.740  66.214  0.00  0.00     0.028 H 
ATOM    101  H28 non d ame      -4.632   7.345  65.955  0.00  0.00     0.028 H 
ATOM    102  H29 non d ame      -4.477   6.543  67.536  0.00  0.00     0.028 H 
ENDBRANCH  93  99
ENDBRANCH  90  93
ENDBRANCH   1  90
TORSDOF 26
ENDMDL
MODEL 9
REMARK VINA RESULT:      -6.1      2.306      8.085
REMARK  26 active torsions:
REMARK  status: ('A' for Active; 'I' for Inactive)
REMARK    1  A    between atoms: C2_2  and  C3_3 
REMARK    2  A    between atoms: C4_6  and  C5_7 
REMARK       I    between atoms: C5_7  and  N2_9 
REMARK    3  A    between atoms: N2_9  and  C6_10 
REMARK    4  A    between atoms: C6_10  and  C7_11 
REMARK    5  A    between atoms: C6_10  and  C8_13 
REMARK       I    between atoms: C7_11  and  N3_14 
REMARK    6  A    between atoms: N3_14  and  C9_15 
REMARK    7  A    between atoms: C9_15  and  C10_16 
REMARK    8  A    between atoms: C9_15  and  C11_18 
REMARK       I    between atoms: C10_16  and  N4_21 
REMARK    9  A    between atoms: C11_18  and  C12_19 
REMARK   10  A    between atoms: C11_18  and  C13_20 
REMARK   11  A    between atoms: N4_21  and  C14_22 
REMARK   12  A    between atoms: C14_22  and  C15_23 
REMARK   13  A    between atoms: C14_22  and  C16_25 
REMARK       I    between atoms: C15_23  and  N6_40 
REMARK   14  A    between atoms: C16_25  and  C17_26 
REMARK   15  A    between atoms: C17_26  and  C18_27 
REMARK   16  A    between atoms: C17_26  and  C19_28 
REMARK   17  A    between atoms: C20_29  and  C21_30 
REMARK   18  A    between atoms: C20_29  and  C24_33 
REMARK   19  A    between atoms: C20_29  and  N6_40 
REMARK   20  A    between atoms: C21_30  and  C22_31 
REMARK   21  A    between atoms: C22_31  and  C23_32 
REMARK   22  A    between atoms: C23_32  and  O8_43 
REMARK   23  A    between atoms: C24_33  and  C25_34 
REMARK   24  A    between atoms: C28_38  and  O6_39 
REMARK   25  A    between atoms: C29_42  and  O8_43 
REMARK   26  A    between atoms: C29_42  and  C35_49 
ROOT
ATOM      1  C14 non d ame      -8.546   6.722  65.336  0.00  0.00     0.089 C 
ATOM      2  H20 non d ame      -9.185   6.604  64.461  0.00  0.00     0.087 H 
ENDROOT
BRANCH   1   3
ATOM      3  N4  non d ame      -8.109   8.110  65.375  0.00  0.00    -0.346 N 
ATOM      4  C10 non d ame      -9.099   9.213  65.654  0.00  0.00     0.241 C 
ATOM      5  O4  non d ame     -10.243   8.959  65.840  0.00  0.00    -0.271 OA
ATOM      6  H19 non d ame      -7.131   8.305  65.211  0.00  0.00     0.163 HD
BRANCH   4   7
ATOM      7  C9  non d ame      -8.628  10.643  65.696  0.00  0.00     0.092 C 
ATOM      8  H11 non d ame      -8.069  10.863  64.787  0.00  0.00     0.088 H 
BRANCH   7   9
ATOM      9  N3  non d ame      -9.788  11.539  65.719  0.00  0.00    -0.346 N 
ATOM     10  C7  non d ame     -10.323  12.057  64.484  0.00  0.00     0.240 C 
ATOM     11  O3  non d ame      -9.832  11.765  63.463  0.00  0.00    -0.271 OA
ATOM     12  H10 non d ame     -10.222  11.802  66.593  0.00  0.00     0.163 HD
BRANCH  10  13
ATOM     13  C6  non d ame     -11.556  13.013  64.515  0.00  0.00     0.086 C 
ATOM     14  H6  non d ame     -12.246  12.784  65.327  0.00  0.00     0.086 H 
BRANCH  13  15
ATOM     15  N2  non d ame     -11.092  14.373  64.735  0.00  0.00    -0.343 N 
ATOM     16  C5  non d ame     -10.924  14.866  66.104  0.00  0.00     0.273 C 
ATOM     17  O2  non d ame     -11.167  14.162  67.021  0.00  0.00    -0.266 OA
ATOM     18  H5  non d ame     -10.890  14.969  63.945  0.00  0.00     0.163 HD
BRANCH  16  19
ATOM     19  C4  non d ame     -10.433  16.301  66.350  0.00  0.00     0.154 A 
ATOM     20  C1  non d ame     -10.798  17.166  67.431  0.00  0.00    -0.017 A 
ATOM     21  C2  non d ame     -10.079  18.360  67.199  0.00  0.00     0.077 A 
ATOM     22  H1  non d ame     -11.479  16.959  68.256  0.00  0.00     0.091 H 
ATOM     23  O1  non d ame      -9.385  18.190  66.111  0.00  0.00    -0.218 OA
ATOM     24  N1  non d ame      -9.576  16.996  65.598  0.00  0.00    -0.123 NA
BRANCH  21  25
ATOM     25  C3  non d ame     -10.110  19.614  68.063  0.00  0.00    -0.029 C 
ATOM     26  H2  non d ame      -9.448  20.367  67.636  0.00  0.00     0.036 H 
ATOM     27  H3  non d ame     -11.128  20.004  68.100  0.00  0.00     0.036 H 
ATOM     28  H4  non d ame      -9.779  19.368  69.072  0.00  0.00     0.036 H 
ENDBRANCH  21  25
ENDBRANCH  16  19
ENDBRANCH  13  15
BRANCH  13  29
ATOM     29  C8  non d ame     -12.297  12.925  63.206  0.00  0.00    -0.049 C 
ATOM     30  H7  non d ame     -13.236  13.474  63.281  0.00  0.00     0.030 H 
ATOM     31  H8  non d ame     -11.686  13.356  62.413  0.00  0.00     0.030 H 
ATOM     32  H9  non d ame     -12.506  11.880  62.977  0.00  0.00     0.030 H 
ENDBRANCH  13  29
ENDBRANCH  10  13
ENDBRANCH   7   9
BRANCH   7  33
ATOM     33  C11 non d ame      -7.775  10.870  66.978  0.00  0.00    -0.033 C 
ATOM     34  H12 non d ame      -7.872   9.980  67.600  0.00  0.00     0.042 H 
BRANCH  33  35
ATOM     35  C12 non d ame      -6.263  11.038  66.632  0.00  0.00    -0.071 C 
ATOM     36  H13 non d ame      -6.098  10.775  65.587  0.00  0.00     0.028 H 
ATOM     37  H14 non d ame      -5.966  12.074  66.797  0.00  0.00     0.028 H 
ATOM     38  H15 non d ame      -5.669  10.384  67.270  0.00  0.00     0.028 H 
ENDBRANCH  33  35
BRANCH  33  39
ATOM     39  C13 non d ame      -8.308  12.090  67.796  0.00  0.00    -0.071 C 
ATOM     40  H16 non d ame      -9.328  11.890  68.125  0.00  0.00     0.028 H 
ATOM     41  H17 non d ame      -7.671  12.250  68.667  0.00  0.00     0.028 H 
ATOM     42  H18 non d ame      -8.297  12.981  67.168  0.00  0.00     0.028 H 
ENDBRANCH  33  39
ENDBRANCH   7  33
ENDBRANCH   4   7
ENDBRANCH   1   3
BRANCH   1  43
ATOM     43  C15 non d ame      -9.297   6.402  66.660  0.00  0.00     0.240 C 
ATOM     44  O5  non d ame     -10.262   5.709  66.639  0.00  0.00    -0.271 OA
ATOM     45  N6  non d ame      -8.808   6.952  67.956  0.00  0.00    -0.355 N 
ATOM     46  H46 non d ame      -7.986   7.538  67.987  0.00  0.00     0.162 HD
BRANCH  45  47
ATOM     47  C20 non d ame      -9.533   6.637  69.206  0.00  0.00     0.013 C 
ATOM     48  H30 non d ame     -10.540   6.319  68.939  0.00  0.00     0.072 H 
BRANCH  47  49
ATOM     49  C21 non d ame      -9.594   7.874  70.073  0.00  0.00    -0.038 C 
ATOM     50  H31 non d ame      -9.954   7.535  71.045  0.00  0.00     0.036 H 
ATOM     51  H32 non d ame      -8.614   8.343  69.987  0.00  0.00     0.036 H 
BRANCH  49  52
ATOM     52  C22 non d ame     -10.620   8.911  69.566  0.00  0.00     0.018 C 
ATOM     53  H33 non d ame     -10.033   9.714  69.119  0.00  0.00     0.048 H 
ATOM     54  H34 non d ame     -11.330   8.351  68.956  0.00  0.00     0.048 H 
BRANCH  52  55
ATOM     55  C23 non d ame     -11.456   9.570  70.698  0.00  0.00     0.259 C 
ATOM     56  O7  non d ame     -11.432   9.129  71.801  0.00  0.00    -0.265 OA
BRANCH  55  57
ATOM     57  O8  non d ame     -12.263  10.703  70.399  0.00  0.00    -0.317 OA
BRANCH  57  58
ATOM     58  C29 non d ame     -13.007  11.199  71.515  0.00  0.00     0.052 C 
ATOM     59  H47 non d ame     -14.019  10.815  71.389  0.00  0.00     0.082 H 
ATOM     60  H48 non d ame     -12.428  10.930  72.398  0.00  0.00     0.082 H 
BRANCH  58  61
ATOM     61  C35 non d ame     -13.052  12.747  71.411  0.00  0.00    -0.034 A 
ATOM     62  C30 non d ame     -13.811  13.485  72.314  0.00  0.00    -0.075 A 
ATOM     63  C31 non d ame     -13.852  14.875  72.220  0.00  0.00    -0.082 A 
ATOM     64  H49 non d ame     -14.374  12.973  73.095  0.00  0.00     0.084 H 
ATOM     65  C32 non d ame     -13.131  15.528  71.216  0.00  0.00    -0.083 A 
ATOM     66  H50 non d ame     -14.446  15.450  72.930  0.00  0.00     0.083 H 
ATOM     67  C33 non d ame     -12.378  14.788  70.315  0.00  0.00    -0.082 A 
ATOM     68  H51 non d ame     -13.157  16.615  71.136  0.00  0.00     0.083 H 
ATOM     69  C34 non d ame     -12.332  13.398  70.407  0.00  0.00    -0.075 A 
ATOM     70  H52 non d ame     -11.819  15.300  69.532  0.00  0.00     0.083 H 
ATOM     71  H53 non d ame     -11.737  12.824  69.696  0.00  0.00     0.084 H 
ENDBRANCH  58  61
ENDBRANCH  57  58
ENDBRANCH  55  57
ENDBRANCH  52  55
ENDBRANCH  49  52
ENDBRANCH  47  49
BRANCH  47  72
ATOM     72  C24 non d ame      -8.806   5.523  69.957  0.00  0.00    -0.039 C 
ATOM     73  H35 non d ame      -7.833   5.433  69.473  0.00  0.00     0.036 H 
ATOM     74  H36 non d ame      -8.867   5.797  71.011  0.00  0.00     0.036 H 
BRANCH  72  75
ATOM     75  C25 non d ame      -9.549   4.114  69.791  0.00  0.00    -0.001 C 
ATOM     76  C26 non d ame      -9.738   3.404  71.262  0.00  0.00    -0.035 C 
ATOM     77  C27 non d ame      -9.265   2.136  71.199  0.00  0.00     0.085 C 
ATOM     78  H38 non d ame      -9.089   3.882  71.995  0.00  0.00     0.036 H 
ATOM     79  H39 non d ame     -10.798   3.270  71.479  0.00  0.00     0.036 H 
ATOM     80  N5  non d ame      -8.474   2.024  69.918  0.00  0.00    -0.049 N 
ATOM     81  H40 non d ame      -8.586   2.036  72.047  0.00  0.00     0.075 H 
ATOM     82  H41 non d ame     -10.146   1.500  71.129  0.00  0.00     0.075 H 
ATOM     83  C28 non d ame      -8.873   3.315  69.035  0.00  0.00     0.193 C 
ATOM     84  H42 non d ame      -7.500   2.099  70.176  0.00  0.00     0.280 HD
ATOM     85  H43 non d ame      -8.809   1.196  69.446  0.00  0.00     0.280 HD
ATOM     86  H44 non d ame      -9.554   3.219  68.189  0.00  0.00     0.129 H 
ATOM     87  H37 non d ame     -10.433   4.186  69.158  0.00  0.00     0.046 H 
BRANCH  83  88
ATOM     88  O6  non d ame      -7.697   3.936  68.511  0.00  0.00    -0.369 OA
ATOM     89  H45 non d ame      -7.835   4.149  67.585  0.00  0.00     0.212 HD
ENDBRANCH  83  88
ENDBRANCH  72  75
ENDBRANCH  47  72
ENDBRANCH  45  47
ENDBRANCH   1  43
BRANCH   1  90
ATOM     90  C16 non d ame      -7.327   5.822  65.209  0.00  0.00    -0.035 C 
ATOM     91  H21 non d ame      -6.485   6.427  65.546  0.00  0.00     0.037 H 
ATOM     92  H22 non d ame      -7.588   4.907  65.740  0.00  0.00     0.037 H 
BRANCH  90  93
ATOM     93  C17 non d ame      -7.008   5.403  63.738  0.00  0.00    -0.059 C 
ATOM     94  H23 non d ame      -6.759   4.342  63.743  0.00  0.00     0.038 H 
BRANCH  93  95
ATOM     95  C18 non d ame      -8.235   5.600  62.790  0.00  0.00    -0.073 C 
ATOM     96  H24 non d ame      -8.723   4.640  62.624  0.00  0.00     0.028 H 
ATOM     97  H25 non d ame      -8.941   6.293  63.249  0.00  0.00     0.028 H 
ATOM     98  H26 non d ame      -7.895   6.005  61.837  0.00  0.00     0.028 H 
ENDBRANCH  93  95
BRANCH  93  99
ATOM     99  C19 non d ame      -5.785   6.156  63.209  0.00  0.00    -0.073 C 
ATOM    100  H27 non d ame      -5.881   6.294  62.131  0.00  0.00     0.028 H 
ATOM    101  H28 non d ame      -5.719   7.129  63.696  0.00  0.00     0.028 H 
ATOM    102  H29 non d ame      -4.884   5.581  63.423  0.00  0.00     0.028 H 
ENDBRANCH  93  99
ENDBRANCH  90  93
ENDBRANCH   1  90
TORSDOF 26
ENDMDL
MODEL 10
REMARK VINA RESULT:      -6.1      2.797      6.791
REMARK  26 active torsions:
REMARK  status: ('A' for Active; 'I' for Inactive)
REMARK    1  A    between atoms: C2_2  and  C3_3 
REMARK    2  A    between atoms: C4_6  and  C5_7 
REMARK       I    between atoms: C5_7  and  N2_9 
REMARK    3  A    between atoms: N2_9  and  C6_10 
REMARK    4  A    between atoms: C6_10  and  C7_11 
REMARK    5  A    between atoms: C6_10  and  C8_13 
REMARK       I    between atoms: C7_11  and  N3_14 
REMARK    6  A    between atoms: N3_14  and  C9_15 
REMARK    7  A    between atoms: C9_15  and  C10_16 
REMARK    8  A    between atoms: C9_15  and  C11_18 
REMARK       I    between atoms: C10_16  and  N4_21 
REMARK    9  A    between atoms: C11_18  and  C12_19 
REMARK   10  A    between atoms: C11_18  and  C13_20 
REMARK   11  A    between atoms: N4_21  and  C14_22 
REMARK   12  A    between atoms: C14_22  and  C15_23 
REMARK   13  A    between atoms: C14_22  and  C16_25 
REMARK       I    between atoms: C15_23  and  N6_40 
REMARK   14  A    between atoms: C16_25  and  C17_26 
REMARK   15  A    between atoms: C17_26  and  C18_27 
REMARK   16  A    between atoms: C17_26  and  C19_28 
REMARK   17  A    between atoms: C20_29  and  C21_30 
REMARK   18  A    between atoms: C20_29  and  C24_33 
REMARK   19  A    between atoms: C20_29  and  N6_40 
REMARK   20  A    between atoms: C21_30  and  C22_31 
REMARK   21  A    between atoms: C22_31  and  C23_32 
REMARK   22  A    between atoms: C23_32  and  O8_43 
REMARK   23  A    between atoms: C24_33  and  C25_34 
REMARK   24  A    between atoms: C28_38  and  O6_39 
REMARK   25  A    between atoms: C29_42  and  O8_43 
REMARK   26  A    between atoms: C29_42  and  C35_49 
ROOT
ATOM      1  C14 non d ame     -10.958   9.178  69.720  0.00  0.00     0.089 C 
ATOM      2  H20 non d ame     -11.478   8.343  69.250  0.00  0.00     0.087 H 
ENDROOT
BRANCH   1   3
ATOM      3  N4  non d ame      -9.650   9.290  69.090  0.00  0.00    -0.346 N 
ATOM      4  C10 non d ame      -9.397   8.658  67.744  0.00  0.00     0.241 C 
ATOM      5  O4  non d ame     -10.260   8.062  67.189  0.00  0.00    -0.271 OA
ATOM      6  H19 non d ame      -8.929   9.799  69.580  0.00  0.00     0.163 HD
BRANCH   4   7
ATOM      7  C9  non d ame      -8.040   8.788  67.104  0.00  0.00     0.092 C 
ATOM      8  H11 non d ame      -8.157   9.171  66.091  0.00  0.00     0.088 H 
BRANCH   7   9
ATOM      9  N3  non d ame      -7.241   9.767  67.848  0.00  0.00    -0.346 N 
ATOM     10  C7  non d ame      -7.064  11.100  67.324  0.00  0.00     0.240 C 
ATOM     11  O3  non d ame      -7.557  11.400  66.306  0.00  0.00    -0.271 OA
ATOM     12  H10 non d ame      -6.808   9.522  68.727  0.00  0.00     0.163 HD
BRANCH  10  13
ATOM     13  C6  non d ame      -6.210  12.136  68.118  0.00  0.00     0.086 C 
ATOM     14  H6  non d ame      -5.238  12.320  67.662  0.00  0.00     0.086 H 
BRANCH  13  15
ATOM     15  N2  non d ame      -6.909  13.411  68.133  0.00  0.00    -0.343 N 
ATOM     16  C5  non d ame      -6.207  14.623  67.707  0.00  0.00     0.273 C 
ATOM     17  O2  non d ame      -5.080  14.564  67.357  0.00  0.00    -0.266 OA
ATOM     18  H5  non d ame      -7.872  13.453  68.436  0.00  0.00     0.163 HD
BRANCH  16  19
ATOM     19  C4  non d ame      -6.935  15.977  67.715  0.00  0.00     0.154 A 
ATOM     20  C1  non d ame      -7.431  16.699  66.584  0.00  0.00    -0.017 A 
ATOM     21  C2  non d ame      -8.009  17.869  67.125  0.00  0.00     0.077 A 
ATOM     22  H1  non d ame      -7.380  16.418  65.532  0.00  0.00     0.091 H 
ATOM     23  O1  non d ame      -7.858  17.815  68.416  0.00  0.00    -0.218 OA
ATOM     24  N1  non d ame      -7.234  16.720  68.784  0.00  0.00    -0.123 NA
BRANCH  21  25
ATOM     25  C3  non d ame      -8.685  18.986  66.341  0.00  0.00    -0.029 C 
ATOM     26  H2  non d ame      -9.671  19.183  66.764  0.00  0.00     0.036 H 
ATOM     27  H3  non d ame      -8.078  19.890  66.399  0.00  0.00     0.036 H 
ATOM     28  H4  non d ame      -8.791  18.687  65.298  0.00  0.00     0.036 H 
ENDBRANCH  21  25
ENDBRANCH  16  19
ENDBRANCH  13  15
BRANCH  13  29
ATOM     29  C8  non d ame      -6.002  11.645  69.528  0.00  0.00    -0.049 C 
ATOM     30  H7  non d ame      -5.256  10.851  69.530  0.00  0.00     0.030 H 
ATOM     31  H8  non d ame      -5.657  12.470  70.153  0.00  0.00     0.030 H 
ATOM     32  H9  non d ame      -6.943  11.260  69.921  0.00  0.00     0.030 H 
ENDBRANCH  13  29
ENDBRANCH  10  13
ENDBRANCH   7   9
BRANCH   7  33
ATOM     33  C11 non d ame      -7.319   7.408  67.130  0.00  0.00    -0.033 C 
ATOM     34  H12 non d ame      -8.011   6.684  67.560  0.00  0.00     0.042 H 
BRANCH  33  35
ATOM     35  C12 non d ame      -6.968   6.924  65.689  0.00  0.00    -0.071 C 
ATOM     36  H13 non d ame      -5.889   6.796  65.602  0.00  0.00     0.028 H 
ATOM     37  H14 non d ame      -7.462   5.972  65.496  0.00  0.00     0.028 H 
ATOM     38  H15 non d ame      -7.306   7.664  64.965  0.00  0.00     0.028 H 
ENDBRANCH  33  35
BRANCH  33  39
ATOM     39  C13 non d ame      -6.048   7.458  68.037  0.00  0.00    -0.071 C 
ATOM     40  H16 non d ame      -5.372   8.231  67.673  0.00  0.00     0.028 H 
ATOM     41  H17 non d ame      -6.341   7.686  69.062  0.00  0.00     0.028 H 
ATOM     42  H18 non d ame      -5.544   6.492  68.009  0.00  0.00     0.028 H 
ENDBRANCH  33  39
ENDBRANCH   7  33
ENDBRANCH   4   7
ENDBRANCH   1   3
BRANCH   1  43
ATOM     43  C15 non d ame     -11.715  10.523  69.531  0.00  0.00     0.240 C 
ATOM     44  O5  non d ame     -12.303  10.734  68.520  0.00  0.00    -0.271 OA
ATOM     45  N6  non d ame     -11.716  11.546  70.616  0.00  0.00    -0.355 N 
ATOM     46  H46 non d ame     -11.225  11.376  71.481  0.00  0.00     0.162 HD
BRANCH  45  47
ATOM     47  C20 non d ame     -12.442  12.820  70.421  0.00  0.00     0.013 C 
ATOM     48  H30 non d ame     -13.279  12.629  69.750  0.00  0.00     0.072 H 
BRANCH  47  49
ATOM     49  C21 non d ame     -11.509  13.838  69.807  0.00  0.00    -0.038 C 
ATOM     50  H31 non d ame     -11.481  14.673  70.508  0.00  0.00     0.036 H 
ATOM     51  H32 non d ame     -10.595  13.294  69.570  0.00  0.00     0.036 H 
BRANCH  49  52
ATOM     52  C22 non d ame     -12.037  14.407  68.473  0.00  0.00     0.018 C 
ATOM     53  H33 non d ame     -12.085  13.560  67.788  0.00  0.00     0.048 H 
ATOM     54  H34 non d ame     -12.945  14.956  68.724  0.00  0.00     0.048 H 
BRANCH  52  55
ATOM     55  C23 non d ame     -11.083  15.440  67.811  0.00  0.00     0.259 C 
ATOM     56  O7  non d ame     -10.746  16.415  68.401  0.00  0.00    -0.265 OA
BRANCH  55  57
ATOM     57  O8  non d ame     -10.626  15.215  66.483  0.00  0.00    -0.317 OA
BRANCH  57  58
ATOM     58  C29 non d ame     -10.000  13.943  66.291  0.00  0.00     0.052 C 
ATOM     59  H47 non d ame      -9.003  14.160  65.907  0.00  0.00     0.082 H 
ATOM     60  H48 non d ame     -10.117  13.411  67.234  0.00  0.00     0.082 H 
BRANCH  58  61
ATOM     61  C35 non d ame     -10.792  13.180  65.196  0.00  0.00    -0.034 A 
ATOM     62  C30 non d ame     -12.183  13.162  65.226  0.00  0.00    -0.075 A 
ATOM     63  C31 non d ame     -12.894  12.476  64.243  0.00  0.00    -0.082 A 
ATOM     64  H49 non d ame     -12.715  13.686  66.020  0.00  0.00     0.084 H 
ATOM     65  C32 non d ame     -12.209  11.804  63.227  0.00  0.00    -0.083 A 
ATOM     66  H50 non d ame     -13.984  12.467  64.269  0.00  0.00     0.083 H 
ATOM     67  C33 non d ame     -10.822  11.821  63.203  0.00  0.00    -0.082 A 
ATOM     68  H51 non d ame     -12.758  11.266  62.454  0.00  0.00     0.083 H 
ATOM     69  C34 non d ame     -10.106  12.507  64.182  0.00  0.00    -0.075 A 
ATOM     70  H52 non d ame     -10.290  11.294  62.410  0.00  0.00     0.083 H 
ATOM     71  H53 non d ame      -9.016  12.517  64.155  0.00  0.00     0.084 H 
ENDBRANCH  58  61
ENDBRANCH  57  58
ENDBRANCH  55  57
ENDBRANCH  52  55
ENDBRANCH  49  52
ENDBRANCH  47  49
BRANCH  47  72
ATOM     72  C24 non d ame     -12.947  13.337  71.767  0.00  0.00    -0.039 C 
ATOM     73  H35 non d ame     -14.012  13.104  71.785  0.00  0.00     0.036 H 
ATOM     74  H36 non d ame     -12.282  12.902  72.513  0.00  0.00     0.036 H 
BRANCH  72  75
ATOM     75  C25 non d ame     -12.809  14.929  71.880  0.00  0.00    -0.001 C 
ATOM     76  C26 non d ame     -11.990  15.324  73.250  0.00  0.00    -0.035 C 
ATOM     77  C27 non d ame     -12.707  16.245  73.936  0.00  0.00     0.085 C 
ATOM     78  H38 non d ame     -11.958  14.470  73.926  0.00  0.00     0.036 H 
ATOM     79  H39 non d ame     -11.071  15.853  72.997  0.00  0.00     0.036 H 
ATOM     80  N5  non d ame     -14.088  16.272  73.328  0.00  0.00    -0.049 N 
ATOM     81  H40 non d ame     -12.774  15.862  74.955  0.00  0.00     0.075 H 
ATOM     82  H41 non d ame     -12.216  17.198  73.744  0.00  0.00     0.075 H 
ATOM     83  C28 non d ame     -13.968  15.497  71.918  0.00  0.00     0.193 C 
ATOM     84  H42 non d ame     -14.682  15.733  73.942  0.00  0.00     0.280 HD
ATOM     85  H43 non d ame     -14.301  17.242  73.145  0.00  0.00     0.280 HD
ATOM     86  H44 non d ame     -13.946  16.053  70.980  0.00  0.00     0.129 H 
ATOM     87  H37 non d ame     -12.466  15.380  70.949  0.00  0.00     0.046 H 
BRANCH  83  88
ATOM     88  O6  non d ame     -15.034  14.556  71.779  0.00  0.00    -0.369 OA
ATOM     89  H45 non d ame     -15.739  14.946  71.257  0.00  0.00     0.212 HD
ENDBRANCH  83  88
ENDBRANCH  72  75
ENDBRANCH  47  72
ENDBRANCH  45  47
ENDBRANCH   1  43
BRANCH   1  90
ATOM     90  C16 non d ame     -10.771   8.900  71.203  0.00  0.00    -0.035 C 
ATOM     91  H21 non d ame      -9.727   9.135  71.412  0.00  0.00     0.037 H 
ATOM     92  H22 non d ame     -11.565   9.455  71.703  0.00  0.00     0.037 H 
BRANCH  90  93
ATOM     93  C17 non d ame     -10.972   7.399  71.589  0.00  0.00    -0.059 C 
ATOM     94  H23 non d ame     -11.656   7.365  72.436  0.00  0.00     0.038 H 
BRANCH  93  95
ATOM     95  C18 non d ame     -11.609   6.572  70.427  0.00  0.00    -0.073 C 
ATOM     96  H24 non d ame     -11.879   7.241  69.611  0.00  0.00     0.028 H 
ATOM     97  H25 non d ame     -10.890   5.834  70.070  0.00  0.00     0.028 H 
ATOM     98  H26 non d ame     -12.501   6.063  70.791  0.00  0.00     0.028 H 
ENDBRANCH  93  95
BRANCH  93  99
ATOM     99  C19 non d ame      -9.652   6.771  72.045  0.00  0.00    -0.073 C 
ATOM    100  H27 non d ame      -8.909   6.872  71.253  0.00  0.00     0.028 H 
ATOM    101  H28 non d ame      -9.299   7.280  72.942  0.00  0.00     0.028 H 
ATOM    102  H29 non d ame      -9.809   5.716  72.264  0.00  0.00     0.028 H 
ENDBRANCH  93  99
ENDBRANCH  90  93
ENDBRANCH   1  90
TORSDOF 26
ENDMDL
MODEL 11
REMARK VINA RESULT:      -6.1      2.276      3.869
REMARK  26 active torsions:
REMARK  status: ('A' for Active; 'I' for Inactive)
REMARK    1  A    between atoms: C2_2  and  C3_3 
REMARK    2  A    between atoms: C4_6  and  C5_7 
REMARK       I    between atoms: C5_7  and  N2_9 
REMARK    3  A    between atoms: N2_9  and  C6_10 
REMARK    4  A    between atoms: C6_10  and  C7_11 
REMARK    5  A    between atoms: C6_10  and  C8_13 
REMARK       I    between atoms: C7_11  and  N3_14 
REMARK    6  A    between atoms: N3_14  and  C9_15 
REMARK    7  A    between atoms: C9_15  and  C10_16 
REMARK    8  A    between atoms: C9_15  and  C11_18 
REMARK       I    between atoms: C10_16  and  N4_21 
REMARK    9  A    between atoms: C11_18  and  C12_19 
REMARK   10  A    between atoms: C11_18  and  C13_20 
REMARK   11  A    between atoms: N4_21  and  C14_22 
REMARK   12  A    between atoms: C14_22  and  C15_23 
REMARK   13  A    between atoms: C14_22  and  C16_25 
REMARK       I    between atoms: C15_23  and  N6_40 
REMARK   14  A    between atoms: C16_25  and  C17_26 
REMARK   15  A    between atoms: C17_26  and  C18_27 
REMARK   16  A    between atoms: C17_26  and  C19_28 
REMARK   17  A    between atoms: C20_29  and  C21_30 
REMARK   18  A    between atoms: C20_29  and  C24_33 
REMARK   19  A    between atoms: C20_29  and  N6_40 
REMARK   20  A    between atoms: C21_30  and  C22_31 
REMARK   21  A    between atoms: C22_31  and  C23_32 
REMARK   22  A    between atoms: C23_32  and  O8_43 
REMARK   23  A    between atoms: C24_33  and  C25_34 
REMARK   24  A    between atoms: C28_38  and  O6_39 
REMARK   25  A    between atoms: C29_42  and  O8_43 
REMARK   26  A    between atoms: C29_42  and  C35_49 
ROOT
ATOM      1  C14 non d ame     -10.236   8.643  69.084  0.00  0.00     0.089 C 
ATOM      2  H20 non d ame     -11.301   8.466  68.934  0.00  0.00     0.087 H 
ENDROOT
BRANCH   1   3
ATOM      3  N4  non d ame      -9.597   7.348  69.265  0.00  0.00    -0.346 N 
ATOM      4  C10 non d ame     -10.426   6.090  69.311  0.00  0.00     0.241 C 
ATOM      5  O4  non d ame     -11.607   6.145  69.205  0.00  0.00    -0.271 OA
ATOM      6  H19 non d ame      -8.591   7.323  69.356  0.00  0.00     0.163 HD
BRANCH   4   7
ATOM      7  C9  non d ame      -9.748   4.757  69.493  0.00  0.00     0.092 C 
ATOM      8  H11 non d ame     -10.167   4.042  68.786  0.00  0.00     0.088 H 
BRANCH   7   9
ATOM      9  N3  non d ame      -8.321   4.889  69.182  0.00  0.00    -0.346 N 
ATOM     10  C7  non d ame      -7.744   4.119  68.108  0.00  0.00     0.240 C 
ATOM     11  O3  non d ame      -8.413   3.389  67.484  0.00  0.00    -0.271 OA
ATOM     12  H10 non d ame      -7.731   5.513  69.713  0.00  0.00     0.163 HD
BRANCH  10  13
ATOM     13  C6  non d ame      -6.225   4.261  67.784  0.00  0.00     0.086 C 
ATOM     14  H6  non d ame      -5.780   3.330  67.430  0.00  0.00     0.086 H 
BRANCH  13  15
ATOM     15  N2  non d ame      -6.059   5.233  66.716  0.00  0.00    -0.343 N 
ATOM     16  C5  non d ame      -5.136   4.946  65.616  0.00  0.00     0.273 C 
ATOM     17  O2  non d ame      -4.529   3.931  65.601  0.00  0.00    -0.266 OA
ATOM     18  H5  non d ame      -6.579   6.098  66.738  0.00  0.00     0.163 HD
BRANCH  16  19
ATOM     19  C4  non d ame      -4.952   5.964  64.480  0.00  0.00     0.154 A 
ATOM     20  C1  non d ame      -4.450   7.299  64.588  0.00  0.00    -0.017 A 
ATOM     21  C2  non d ame      -4.480   7.807  63.270  0.00  0.00     0.077 A 
ATOM     22  H1  non d ame      -4.115   7.820  65.485  0.00  0.00     0.091 H 
ATOM     23  O1  non d ame      -4.945   6.865  62.502  0.00  0.00    -0.218 OA
ATOM     24  N1  non d ame      -5.227   5.780  63.185  0.00  0.00    -0.123 NA
BRANCH  21  25
ATOM     25  C3  non d ame      -4.047   9.199  62.830  0.00  0.00    -0.029 C 
ATOM     26  H2  non d ame      -2.963   9.223  62.712  0.00  0.00     0.036 H 
ATOM     27  H3  non d ame      -4.521   9.444  61.880  0.00  0.00     0.036 H 
ATOM     28  H4  non d ame      -4.346   9.929  63.584  0.00  0.00     0.036 H 
ENDBRANCH  21  25
ENDBRANCH  16  19
ENDBRANCH  13  15
BRANCH  13  29
ATOM     29  C8  non d ame      -5.486   4.716  69.016  0.00  0.00    -0.049 C 
ATOM     30  H7  non d ame      -5.245   5.775  68.925  0.00  0.00     0.030 H 
ATOM     31  H8  non d ame      -6.112   4.560  69.894  0.00  0.00     0.030 H 
ATOM     32  H9  non d ame      -4.565   4.143  69.119  0.00  0.00     0.030 H 
ENDBRANCH  13  29
ENDBRANCH  10  13
ENDBRANCH   7   9
BRANCH   7  33
ATOM     33  C11 non d ame      -9.914   4.288  70.968  0.00  0.00    -0.033 C 
ATOM     34  H12 non d ame     -10.940   4.501  71.268  0.00  0.00     0.042 H 
BRANCH  33  35
ATOM     35  C12 non d ame      -9.695   2.749  71.103  0.00  0.00    -0.071 C 
ATOM     36  H13 non d ame      -9.842   2.275  70.132  0.00  0.00     0.028 H 
ATOM     37  H14 non d ame      -8.681   2.555  71.451  0.00  0.00     0.028 H 
ATOM     38  H15 non d ame     -10.410   2.342  71.818  0.00  0.00     0.028 H 
ENDBRANCH  33  35
BRANCH  33  39
ATOM     39  C13 non d ame      -8.959   5.080  71.918  0.00  0.00    -0.071 C 
ATOM     40  H16 non d ame      -9.305   6.110  72.005  0.00  0.00     0.028 H 
ATOM     41  H17 non d ame      -8.957   4.614  72.903  0.00  0.00     0.028 H 
ATOM     42  H18 non d ame      -7.949   5.070  71.509  0.00  0.00     0.028 H 
ENDBRANCH  33  39
ENDBRANCH   7  33
ENDBRANCH   4   7
ENDBRANCH   1   3
BRANCH   1  43
ATOM     43  C15 non d ame      -9.581   9.353  67.865  0.00  0.00     0.240 C 
ATOM     44  O5  non d ame      -8.416   9.230  67.665  0.00  0.00    -0.271 OA
ATOM     45  N6  non d ame     -10.409  10.180  66.941  0.00  0.00    -0.355 N 
ATOM     46  H46 non d ame     -11.401  10.287  67.097  0.00  0.00     0.162 HD
BRANCH  45  47
ATOM     47  C20 non d ame      -9.772  10.847  65.785  0.00  0.00     0.013 C 
ATOM     48  H30 non d ame      -8.752  11.105  66.067  0.00  0.00     0.072 H 
BRANCH  47  49
ATOM     49  C21 non d ame     -10.546  12.100  65.442  0.00  0.00    -0.038 C 
ATOM     50  H31 non d ame     -10.089  12.489  64.532  0.00  0.00     0.036 H 
ATOM     51  H32 non d ame     -11.596  11.806  65.442  0.00  0.00     0.036 H 
BRANCH  49  52
ATOM     52  C22 non d ame     -10.401  13.205  66.510  0.00  0.00     0.018 C 
ATOM     53  H33 non d ame     -10.334  12.685  67.466  0.00  0.00     0.048 H 
ATOM     54  H34 non d ame      -9.578  13.835  66.174  0.00  0.00     0.048 H 
BRANCH  52  55
ATOM     55  C23 non d ame     -11.639  14.139  66.617  0.00  0.00     0.259 C 
ATOM     56  O7  non d ame     -12.701  13.779  66.225  0.00  0.00    -0.265 OA
BRANCH  55  57
ATOM     57  O8  non d ame     -11.486  15.437  67.178  0.00  0.00    -0.317 OA
BRANCH  57  58
ATOM     58  C29 non d ame     -10.126  15.866  67.290  0.00  0.00     0.052 C 
ATOM     59  H47 non d ame      -9.781  15.501  68.258  0.00  0.00     0.082 H 
ATOM     60  H48 non d ame      -9.635  15.533  66.376  0.00  0.00     0.082 H 
BRANCH  58  61
ATOM     61  C35 non d ame     -10.114  17.418  67.317  0.00  0.00    -0.034 A 
ATOM     62  C30 non d ame      -9.743  18.091  68.476  0.00  0.00    -0.075 A 
ATOM     63  C31 non d ame      -9.732  19.485  68.501  0.00  0.00    -0.082 A 
ATOM     64  H49 non d ame      -9.460  17.528  69.365  0.00  0.00     0.084 H 
ATOM     65  C32 non d ame     -10.097  20.206  67.361  0.00  0.00    -0.083 A 
ATOM     66  H50 non d ame      -9.438  20.010  69.410  0.00  0.00     0.083 H 
ATOM     67  C33 non d ame     -10.470  19.529  66.207  0.00  0.00    -0.082 A 
ATOM     68  H51 non d ame     -10.091  21.296  67.371  0.00  0.00     0.083 H 
ATOM     69  C34 non d ame     -10.480  18.136  66.178  0.00  0.00    -0.075 A 
ATOM     70  H52 non d ame     -10.757  20.094  65.320  0.00  0.00     0.083 H 
ATOM     71  H53 non d ame     -10.773  17.612  65.268  0.00  0.00     0.084 H 
ENDBRANCH  58  61
ENDBRANCH  57  58
ENDBRANCH  55  57
ENDBRANCH  52  55
ENDBRANCH  49  52
ENDBRANCH  47  49
BRANCH  47  72
ATOM     72  C24 non d ame      -9.767   9.905  64.582  0.00  0.00    -0.039 C 
ATOM     73  H35 non d ame     -10.127   8.948  64.962  0.00  0.00     0.036 H 
ATOM     74  H36 non d ame     -10.324  10.426  63.804  0.00  0.00     0.036 H 
BRANCH  72  75
ATOM     75  C25 non d ame      -8.285   9.664  64.024  0.00  0.00    -0.001 C 
ATOM     76  C26 non d ame      -8.191  10.155  62.457  0.00  0.00    -0.035 C 
ATOM     77  C27 non d ame      -7.657   9.153  61.718  0.00  0.00     0.085 C 
ATOM     78  H38 non d ame      -9.192  10.273  62.042  0.00  0.00     0.036 H 
ATOM     79  H39 non d ame      -7.462  10.959  62.360  0.00  0.00     0.036 H 
ATOM     80  N5  non d ame      -7.682   7.910  62.574  0.00  0.00    -0.049 N 
ATOM     81  H40 non d ame      -8.337   9.018  60.876  0.00  0.00     0.075 H 
ATOM     82  H41 non d ame      -6.622   9.442  61.541  0.00  0.00     0.075 H 
ATOM     83  C28 non d ame      -7.961   8.416  64.082  0.00  0.00     0.193 C 
ATOM     84  H42 non d ame      -8.475   7.366  62.266  0.00  0.00     0.280 HD
ATOM     85  H43 non d ame      -6.753   7.516  62.534  0.00  0.00     0.280 HD
ATOM     86  H44 non d ame      -7.151   8.455  64.811  0.00  0.00     0.129 H 
ATOM     87  H37 non d ame      -7.521  10.036  64.706  0.00  0.00     0.046 H 
BRANCH  83  88
ATOM     88  O6  non d ame      -8.982   7.621  64.688  0.00  0.00    -0.369 OA
ATOM     89  H45 non d ame      -8.590   6.831  65.066  0.00  0.00     0.212 HD
ENDBRANCH  83  88
ENDBRANCH  72  75
ENDBRANCH  47  72
ENDBRANCH  45  47
ENDBRANCH   1  43
BRANCH   1  90
ATOM     90  C16 non d ame     -10.025   9.479  70.336  0.00  0.00    -0.035 C 
ATOM     91  H21 non d ame      -9.528   8.817  71.045  0.00  0.00     0.037 H 
ATOM     92  H22 non d ame      -9.526  10.387  69.997  0.00  0.00     0.037 H 
BRANCH  90  93
ATOM     93  C17 non d ame     -11.355   9.936  71.017  0.00  0.00    -0.059 C 
ATOM     94  H23 non d ame     -11.093  10.460  71.936  0.00  0.00     0.038 H 
BRANCH  93  95
ATOM     95  C18 non d ame     -12.167  10.924  70.120  0.00  0.00    -0.073 C 
ATOM     96  H24 non d ame     -12.666  11.660  70.750  0.00  0.00     0.028 H 
ATOM     97  H25 non d ame     -11.489  11.432  69.434  0.00  0.00     0.028 H 
ATOM     98  H26 non d ame     -12.912  10.368  69.550  0.00  0.00     0.028 H 
ENDBRANCH  93  95
BRANCH  93  99
ATOM     99  C19 non d ame     -12.210   8.728  71.410  0.00  0.00    -0.073 C 
ATOM    100  H27 non d ame     -12.526   8.198  70.511  0.00  0.00     0.028 H 
ATOM    101  H28 non d ame     -11.624   8.058  72.040  0.00  0.00     0.028 H 
ATOM    102  H29 non d ame     -13.088   9.068  71.959  0.00  0.00     0.028 H 
ENDBRANCH  93  99
ENDBRANCH  90  93
ENDBRANCH   1  90
TORSDOF 26
ENDMDL
MODEL 12
REMARK VINA RESULT:      -6.0      3.948      8.174
REMARK  26 active torsions:
REMARK  status: ('A' for Active; 'I' for Inactive)
REMARK    1  A    between atoms: C2_2  and  C3_3 
REMARK    2  A    between atoms: C4_6  and  C5_7 
REMARK       I    between atoms: C5_7  and  N2_9 
REMARK    3  A    between atoms: N2_9  and  C6_10 
REMARK    4  A    between atoms: C6_10  and  C7_11 
REMARK    5  A    between atoms: C6_10  and  C8_13 
REMARK       I    between atoms: C7_11  and  N3_14 
REMARK    6  A    between atoms: N3_14  and  C9_15 
REMARK    7  A    between atoms: C9_15  and  C10_16 
REMARK    8  A    between atoms: C9_15  and  C11_18 
REMARK       I    between atoms: C10_16  and  N4_21 
REMARK    9  A    between atoms: C11_18  and  C12_19 
REMARK   10  A    between atoms: C11_18  and  C13_20 
REMARK   11  A    between atoms: N4_21  and  C14_22 
REMARK   12  A    between atoms: C14_22  and  C15_23 
REMARK   13  A    between atoms: C14_22  and  C16_25 
REMARK       I    between atoms: C15_23  and  N6_40 
REMARK   14  A    between atoms: C16_25  and  C17_26 
REMARK   15  A    between atoms: C17_26  and  C18_27 
REMARK   16  A    between atoms: C17_26  and  C19_28 
REMARK   17  A    between atoms: C20_29  and  C21_30 
REMARK   18  A    between atoms: C20_29  and  C24_33 
REMARK   19  A    between atoms: C20_29  and  N6_40 
REMARK   20  A    between atoms: C21_30  and  C22_31 
REMARK   21  A    between atoms: C22_31  and  C23_32 
REMARK   22  A    between atoms: C23_32  and  O8_43 
REMARK   23  A    between atoms: C24_33  and  C25_34 
REMARK   24  A    between atoms: C28_38  and  O6_39 
REMARK   25  A    between atoms: C29_42  and  O8_43 
REMARK   26  A    between atoms: C29_42  and  C35_49 
ROOT
ATOM      1  C14 non d ame      -9.564  11.459  67.949  0.00  0.00     0.089 C 
ATOM      2  H20 non d ame      -9.178  11.621  66.942  0.00  0.00     0.087 H 
ENDROOT
BRANCH   1   3
ATOM      3  N4  non d ame      -8.420  11.300  68.836  0.00  0.00    -0.346 N 
ATOM      4  C10 non d ame      -7.029  11.618  68.349  0.00  0.00     0.241 C 
ATOM      5  O4  non d ame      -6.854  11.997  67.238  0.00  0.00    -0.271 OA
ATOM      6  H19 non d ame      -8.591  10.974  69.777  0.00  0.00     0.163 HD
BRANCH   4   7
ATOM      7  C9  non d ame      -5.858  11.453  69.282  0.00  0.00     0.092 C 
ATOM      8  H11 non d ame      -4.944  11.356  68.696  0.00  0.00     0.088 H 
BRANCH   7   9
ATOM      9  N3  non d ame      -5.718  12.657  70.107  0.00  0.00    -0.346 N 
ATOM     10  C7  non d ame      -4.739  13.658  69.760  0.00  0.00     0.240 C 
ATOM     11  O3  non d ame      -4.056  13.511  68.821  0.00  0.00    -0.271 OA
ATOM     12  H10 non d ame      -6.299  12.797  70.921  0.00  0.00     0.163 HD
BRANCH  10  13
ATOM     13  C6  non d ame      -4.592  14.936  70.644  0.00  0.00     0.086 C 
ATOM     14  H6  non d ame      -3.556  15.252  70.758  0.00  0.00     0.086 H 
BRANCH  13  15
ATOM     15  N2  non d ame      -5.295  16.035  70.003  0.00  0.00    -0.343 N 
ATOM     16  C5  non d ame      -4.680  17.364  69.975  0.00  0.00     0.273 C 
ATOM     17  O2  non d ame      -3.622  17.539  70.472  0.00  0.00    -0.266 OA
ATOM     18  H5  non d ame      -6.200  15.878  69.584  0.00  0.00     0.163 HD
BRANCH  16  19
ATOM     19  C4  non d ame      -5.411  18.536  69.300  0.00  0.00     0.154 A 
ATOM     20  C1  non d ame      -4.925  19.360  68.235  0.00  0.00    -0.017 A 
ATOM     21  C2  non d ame      -5.968  20.279  67.982  0.00  0.00     0.077 A 
ATOM     22  H1  non d ame      -3.964  19.300  67.725  0.00  0.00     0.091 H 
ATOM     23  O1  non d ame      -6.935  20.005  68.809  0.00  0.00    -0.218 OA
ATOM     24  N1  non d ame      -6.633  18.992  69.588  0.00  0.00    -0.123 NA
BRANCH  21  25
ATOM     25  C3  non d ame      -5.961  21.384  66.935  0.00  0.00    -0.029 C 
ATOM     26  H2  non d ame      -6.260  20.973  65.970  0.00  0.00     0.036 H 
ATOM     27  H3  non d ame      -6.660  22.167  67.229  0.00  0.00     0.036 H 
ATOM     28  H4  non d ame      -4.958  21.804  66.855  0.00  0.00     0.036 H 
ENDBRANCH  21  25
ENDBRANCH  16  19
ENDBRANCH  13  15
BRANCH  13  29
ATOM     29  C8  non d ame      -5.176  14.675  72.009  0.00  0.00    -0.049 C 
ATOM     30  H7  non d ame      -4.370  14.594  72.739  0.00  0.00     0.030 H 
ATOM     31  H8  non d ame      -5.835  15.498  72.286  0.00  0.00     0.030 H 
ATOM     32  H9  non d ame      -5.743  13.745  71.990  0.00  0.00     0.030 H 
ENDBRANCH  13  29
ENDBRANCH  10  13
ENDBRANCH   7   9
BRANCH   7  33
ATOM     33  C11 non d ame      -6.098  10.221  70.203  0.00  0.00    -0.033 C 
ATOM     34  H12 non d ame      -7.109  10.301  70.602  0.00  0.00     0.042 H 
BRANCH  33  35
ATOM     35  C12 non d ame      -6.014   8.886  69.400  0.00  0.00    -0.071 C 
ATOM     36  H13 non d ame      -5.144   8.318  69.729  0.00  0.00     0.028 H 
ATOM     37  H14 non d ame      -6.917   8.301  69.574  0.00  0.00     0.028 H 
ATOM     38  H15 non d ame      -5.923   9.107  68.337  0.00  0.00     0.028 H 
ENDBRANCH  33  35
BRANCH  33  39
ATOM     39  C13 non d ame      -5.103  10.221  71.407  0.00  0.00    -0.071 C 
ATOM     40  H16 non d ame      -4.618  11.194  71.478  0.00  0.00     0.028 H 
ATOM     41  H17 non d ame      -5.648  10.019  72.330  0.00  0.00     0.028 H 
ATOM     42  H18 non d ame      -4.349   9.449  71.255  0.00  0.00     0.028 H 
ENDBRANCH  33  39
ENDBRANCH   7  33
ENDBRANCH   4   7
ENDBRANCH   1   3
BRANCH   1  43
ATOM     43  C15 non d ame     -10.417  12.658  68.451  0.00  0.00     0.240 C 
ATOM     44  O5  non d ame     -11.593  12.537  68.573  0.00  0.00    -0.271 OA
ATOM     45  N6  non d ame      -9.767  13.957  68.788  0.00  0.00    -0.355 N 
ATOM     46  H46 non d ame      -8.768  14.070  68.694  0.00  0.00     0.162 HD
BRANCH  45  47
ATOM     47  C20 non d ame     -10.593  15.087  69.266  0.00  0.00     0.013 C 
ATOM     48  H30 non d ame     -11.522  15.088  68.697  0.00  0.00     0.072 H 
BRANCH  47  49
ATOM     49  C21 non d ame      -9.846  16.382  69.038  0.00  0.00    -0.038 C 
ATOM     50  H31 non d ame      -9.842  16.894  70.000  0.00  0.00     0.036 H 
ATOM     51  H32 non d ame      -8.905  16.100  68.566  0.00  0.00     0.036 H 
BRANCH  49  52
ATOM     52  C22 non d ame     -10.567  17.322  68.047  0.00  0.00     0.018 C 
ATOM     53  H33 non d ame     -11.463  16.787  67.730  0.00  0.00     0.048 H 
ATOM     54  H34 non d ame     -10.657  18.280  68.561  0.00  0.00     0.048 H 
BRANCH  52  55
ATOM     55  C23 non d ame      -9.757  17.606  66.751  0.00  0.00     0.259 C 
ATOM     56  O7  non d ame      -8.939  18.467  66.728  0.00  0.00    -0.265 OA
BRANCH  55  57
ATOM     57  O8  non d ame     -10.014  16.832  65.586  0.00  0.00    -0.317 OA
BRANCH  57  58
ATOM     58  C29 non d ame      -9.373  15.554  65.582  0.00  0.00     0.052 C 
ATOM     59  H47 non d ame      -8.682  15.573  64.739  0.00  0.00     0.082 H 
ATOM     60  H48 non d ame      -8.994  15.411  66.594  0.00  0.00     0.082 H 
BRANCH  58  61
ATOM     61  C35 non d ame     -10.454  14.476  65.307  0.00  0.00    -0.034 A 
ATOM     62  C30 non d ame     -11.770  14.692  65.702  0.00  0.00    -0.075 A 
ATOM     63  C31 non d ame     -12.742  13.724  65.455  0.00  0.00    -0.082 A 
ATOM     64  H49 non d ame     -12.041  15.621  66.205  0.00  0.00     0.084 H 
ATOM     65  C32 non d ame     -12.393  12.533  64.812  0.00  0.00    -0.083 A 
ATOM     66  H50 non d ame     -13.773  13.898  65.763  0.00  0.00     0.083 H 
ATOM     67  C33 non d ame     -11.078  12.320  64.422  0.00  0.00    -0.082 A 
ATOM     68  H51 non d ame     -13.147  11.771  64.614  0.00  0.00     0.083 H 
ATOM     69  C34 non d ame     -10.104  13.286  64.665  0.00  0.00    -0.075 A 
ATOM     70  H52 non d ame     -10.808  11.389  63.923  0.00  0.00     0.083 H 
ATOM     71  H53 non d ame      -9.073  13.112  64.355  0.00  0.00     0.084 H 
ENDBRANCH  58  61
ENDBRANCH  57  58
ENDBRANCH  55  57
ENDBRANCH  52  55
ENDBRANCH  49  52
ENDBRANCH  47  49
BRANCH  47  72
ATOM     72  C24 non d ame     -10.883  14.922  70.756  0.00  0.00    -0.039 C 
ATOM     73  H35 non d ame     -11.095  13.861  70.895  0.00  0.00     0.036 H 
ATOM     74  H36 non d ame     -10.037  15.379  71.269  0.00  0.00     0.036 H 
BRANCH  72  75
ATOM     75  C25 non d ame     -12.195  15.727  71.198  0.00  0.00    -0.001 C 
ATOM     76  C26 non d ame     -12.022  16.280  72.737  0.00  0.00    -0.035 C 
ATOM     77  C27 non d ame     -13.107  15.911  73.458  0.00  0.00     0.085 C 
ATOM     78  H38 non d ame     -11.200  15.762  73.230  0.00  0.00     0.036 H 
ATOM     79  H39 non d ame     -12.065  17.369  72.750  0.00  0.00     0.036 H 
ATOM     80  N5  non d ame     -13.849  14.880  72.642  0.00  0.00    -0.049 N 
ATOM     81  H40 non d ame     -12.712  15.436  74.357  0.00  0.00     0.075 H 
ATOM     82  H41 non d ame     -13.721  16.807  73.540  0.00  0.00     0.075 H 
ATOM     83  C28 non d ame     -13.244  14.975  71.149  0.00  0.00     0.193 C 
ATOM     84  H42 non d ame     -13.607  13.979  73.030  0.00  0.00     0.280 HD
ATOM     85  H43 non d ame     -14.815  15.176  72.617  0.00  0.00     0.280 HD
ATOM     86  H44 non d ame     -13.804  15.469  70.354  0.00  0.00     0.129 H 
ATOM     87  H37 non d ame     -12.509  16.449  70.444  0.00  0.00     0.046 H 
BRANCH  83  88
ATOM     88  O6  non d ame     -12.947  13.669  70.652  0.00  0.00    -0.369 OA
ATOM     89  H45 non d ame     -13.636  13.394  70.043  0.00  0.00     0.212 HD
ENDBRANCH  83  88
ENDBRANCH  72  75
ENDBRANCH  47  72
ENDBRANCH  45  47
ENDBRANCH   1  43
BRANCH   1  90
ATOM     90  C16 non d ame     -10.398  10.188  67.983  0.00  0.00    -0.035 C 
ATOM     91  H21 non d ame      -9.935   9.559  68.743  0.00  0.00     0.037 H 
ATOM     92  H22 non d ame     -11.428  10.522  68.106  0.00  0.00     0.037 H 
BRANCH  90  93
ATOM     93  C17 non d ame     -10.354   9.374  66.650  0.00  0.00    -0.059 C 
ATOM     94  H23 non d ame     -11.213   9.674  66.051  0.00  0.00     0.038 H 
BRANCH  93  95
ATOM     95  C18 non d ame      -9.065   9.674  65.819  0.00  0.00    -0.073 C 
ATOM     96  H24 non d ame      -8.363  10.240  66.430  0.00  0.00     0.028 H 
ATOM     97  H25 non d ame      -8.604   8.734  65.512  0.00  0.00     0.028 H 
ATOM     98  H26 non d ame      -9.330  10.254  64.935  0.00  0.00     0.028 H 
ENDBRANCH  93  95
BRANCH  93  99
ATOM     99  C19 non d ame     -10.491   7.874  66.921  0.00  0.00    -0.073 C 
ATOM    100  H27 non d ame     -11.466   7.672  67.366  0.00  0.00     0.028 H 
ATOM    101  H28 non d ame     -10.398   7.325  65.983  0.00  0.00     0.028 H 
ATOM    102  H29 non d ame      -9.705   7.555  67.607  0.00  0.00     0.028 H 
ENDBRANCH  93  99
ENDBRANCH  90  93
ENDBRANCH   1  90
TORSDOF 26
ENDMDL
MODEL 13
REMARK VINA RESULT:      -6.0      2.284      6.997
REMARK  26 active torsions:
REMARK  status: ('A' for Active; 'I' for Inactive)
REMARK    1  A    between atoms: C2_2  and  C3_3 
REMARK    2  A    between atoms: C4_6  and  C5_7 
REMARK       I    between atoms: C5_7  and  N2_9 
REMARK    3  A    between atoms: N2_9  and  C6_10 
REMARK    4  A    between atoms: C6_10  and  C7_11 
REMARK    5  A    between atoms: C6_10  and  C8_13 
REMARK       I    between atoms: C7_11  and  N3_14 
REMARK    6  A    between atoms: N3_14  and  C9_15 
REMARK    7  A    between atoms: C9_15  and  C10_16 
REMARK    8  A    between atoms: C9_15  and  C11_18 
REMARK       I    between atoms: C10_16  and  N4_21 
REMARK    9  A    between atoms: C11_18  and  C12_19 
REMARK   10  A    between atoms: C11_18  and  C13_20 
REMARK   11  A    between atoms: N4_21  and  C14_22 
REMARK   12  A    between atoms: C14_22  and  C15_23 
REMARK   13  A    between atoms: C14_22  and  C16_25 
REMARK       I    between atoms: C15_23  and  N6_40 
REMARK   14  A    between atoms: C16_25  and  C17_26 
REMARK   15  A    between atoms: C17_26  and  C18_27 
REMARK   16  A    between atoms: C17_26  and  C19_28 
REMARK   17  A    between atoms: C20_29  and  C21_30 
REMARK   18  A    between atoms: C20_29  and  C24_33 
REMARK   19  A    between atoms: C20_29  and  N6_40 
REMARK   20  A    between atoms: C21_30  and  C22_31 
REMARK   21  A    between atoms: C22_31  and  C23_32 
REMARK   22  A    between atoms: C23_32  and  O8_43 
REMARK   23  A    between atoms: C24_33  and  C25_34 
REMARK   24  A    between atoms: C28_38  and  O6_39 
REMARK   25  A    between atoms: C29_42  and  O8_43 
REMARK   26  A    between atoms: C29_42  and  C35_49 
ROOT
ATOM      1  C14 non d ame      -9.431   6.962  67.109  0.00  0.00     0.089 C 
ATOM      2  H20 non d ame      -9.915   6.427  66.291  0.00  0.00     0.087 H 
ENDROOT
BRANCH   1   3
ATOM      3  N4  non d ame      -8.767   8.125  66.540  0.00  0.00    -0.346 N 
ATOM      4  C10 non d ame      -8.165   8.059  65.159  0.00  0.00     0.241 C 
ATOM      5  O4  non d ame      -8.226   7.057  64.525  0.00  0.00    -0.271 OA
ATOM      6  H19 non d ame      -8.724   8.968  67.097  0.00  0.00     0.163 HD
BRANCH   4   7
ATOM      7  C9  non d ame      -7.486   9.274  64.583  0.00  0.00     0.092 C 
ATOM      8  H11 non d ame      -8.141   9.734  63.843  0.00  0.00     0.088 H 
BRANCH   7   9
ATOM      9  N3  non d ame      -7.271  10.263  65.645  0.00  0.00    -0.346 N 
ATOM     10  C7  non d ame      -8.208  11.345  65.822  0.00  0.00     0.240 C 
ATOM     11  O3  non d ame      -9.139  11.436  65.120  0.00  0.00    -0.271 OA
ATOM     12  H10 non d ame      -6.471  10.198  66.257  0.00  0.00     0.163 HD
BRANCH  10  13
ATOM     13  C6  non d ame      -7.971  12.396  66.951  0.00  0.00     0.086 C 
ATOM     14  H6  non d ame      -6.940  12.747  66.991  0.00  0.00     0.086 H 
BRANCH  13  15
ATOM     15  N2  non d ame      -8.799  13.562  66.691  0.00  0.00    -0.343 N 
ATOM     16  C5  non d ame      -8.201  14.897  66.747  0.00  0.00     0.273 C 
ATOM     17  O2  non d ame      -7.054  15.023  67.004  0.00  0.00    -0.266 OA
ATOM     18  H5  non d ame      -9.779  13.445  66.474  0.00  0.00     0.163 HD
BRANCH  16  19
ATOM     19  C4  non d ame      -9.064  16.139  66.472  0.00  0.00     0.154 A 
ATOM     20  C1  non d ame      -9.123  17.340  67.248  0.00  0.00    -0.017 A 
ATOM     21  C2  non d ame     -10.057  18.161  66.578  0.00  0.00     0.077 A 
ATOM     22  H1  non d ame      -8.572  17.579  68.158  0.00  0.00     0.091 H 
ATOM     23  O1  non d ame     -10.478  17.500  65.539  0.00  0.00    -0.218 OA
ATOM     24  N1  non d ame      -9.913  16.317  65.457  0.00  0.00    -0.123 NA
BRANCH  21  25
ATOM     25  C3  non d ame     -10.489  19.560  66.994  0.00  0.00    -0.029 C 
ATOM     26  H2  non d ame     -11.175  19.966  66.249  0.00  0.00     0.036 H 
ATOM     27  H3  non d ame     -10.989  19.513  67.961  0.00  0.00     0.036 H 
ATOM     28  H4  non d ame      -9.613  20.205  67.069  0.00  0.00     0.036 H 
ENDBRANCH  21  25
ENDBRANCH  16  19
ENDBRANCH  13  15
BRANCH  13  29
ATOM     29  C8  non d ame      -8.332  11.793  68.285  0.00  0.00    -0.049 C 
ATOM     30  H7  non d ame      -7.964  10.768  68.333  0.00  0.00     0.030 H 
ATOM     31  H8  non d ame      -7.877  12.380  69.084  0.00  0.00     0.030 H 
ATOM     32  H9  non d ame      -9.415  11.796  68.404  0.00  0.00     0.030 H 
ENDBRANCH  13  29
ENDBRANCH  10  13
ENDBRANCH   7   9
BRANCH   7  33
ATOM     33  C11 non d ame      -6.114   8.862  63.975  0.00  0.00    -0.033 C 
ATOM     34  H12 non d ame      -6.295   8.043  63.280  0.00  0.00     0.042 H 
BRANCH  33  35
ATOM     35  C12 non d ame      -5.477  10.034  63.165  0.00  0.00    -0.071 C 
ATOM     36  H13 non d ame      -4.846   9.627  62.373  0.00  0.00     0.028 H 
ATOM     37  H14 non d ame      -6.266  10.641  62.723  0.00  0.00     0.028 H 
ATOM     38  H15 non d ame      -4.873  10.649  63.830  0.00  0.00     0.028 H 
ENDBRANCH  33  35
BRANCH  33  39
ATOM     39  C13 non d ame      -5.142   8.348  65.086  0.00  0.00    -0.071 C 
ATOM     40  H16 non d ame      -5.228   8.983  65.967  0.00  0.00     0.028 H 
ATOM     41  H17 non d ame      -5.403   7.322  65.350  0.00  0.00     0.028 H 
ATOM     42  H18 non d ame      -4.118   8.377  64.714  0.00  0.00     0.028 H 
ENDBRANCH  33  39
ENDBRANCH   7  33
ENDBRANCH   4   7
ENDBRANCH   1   3
BRANCH   1  43
ATOM     43  C15 non d ame     -10.452   7.448  68.178  0.00  0.00     0.240 C 
ATOM     44  O5  non d ame     -11.255   6.690  68.616  0.00  0.00    -0.271 OA
ATOM     45  N6  non d ame     -10.423   8.858  68.661  0.00  0.00    -0.355 N 
ATOM     46  H46 non d ame      -9.743   9.511  68.299  0.00  0.00     0.162 HD
BRANCH  45  47
ATOM     47  C20 non d ame     -11.400   9.305  69.678  0.00  0.00     0.013 C 
ATOM     48  H30 non d ame     -12.199   8.565  69.723  0.00  0.00     0.072 H 
BRANCH  47  49
ATOM     49  C21 non d ame     -11.962  10.649  69.275  0.00  0.00    -0.038 C 
ATOM     50  H31 non d ame     -13.023  10.481  69.088  0.00  0.00     0.036 H 
ATOM     51  H32 non d ame     -11.648  11.344  70.054  0.00  0.00     0.036 H 
BRANCH  49  52
ATOM     52  C22 non d ame     -11.364  11.177  67.953  0.00  0.00     0.018 C 
ATOM     53  H33 non d ame     -10.294  11.285  68.135  0.00  0.00     0.048 H 
ATOM     54  H34 non d ame     -11.718  10.498  67.177  0.00  0.00     0.048 H 
BRANCH  52  55
ATOM     55  C23 non d ame     -11.876  12.588  67.553  0.00  0.00     0.259 C 
ATOM     56  O7  non d ame     -11.859  12.937  66.417  0.00  0.00    -0.265 OA
BRANCH  55  57
ATOM     57  O8  non d ame     -12.355  13.468  68.564  0.00  0.00    -0.317 OA
BRANCH  57  58
ATOM     58  C29 non d ame     -11.325  14.040  69.374  0.00  0.00     0.052 C 
ATOM     59  H47 non d ame     -10.613  13.235  69.558  0.00  0.00     0.082 H 
ATOM     60  H48 non d ame     -11.005  14.941  68.852  0.00  0.00     0.082 H 
BRANCH  58  61
ATOM     61  C35 non d ame     -11.957  14.456  70.729  0.00  0.00    -0.034 A 
ATOM     62  C30 non d ame     -11.598  15.661  71.324  0.00  0.00    -0.075 A 
ATOM     63  C31 non d ame     -12.165  16.035  72.542  0.00  0.00    -0.082 A 
ATOM     64  H49 non d ame     -10.873  16.313  70.837  0.00  0.00     0.084 H 
ATOM     65  C32 non d ame     -13.094  15.197  73.165  0.00  0.00    -0.083 A 
ATOM     66  H50 non d ame     -11.884  16.981  73.004  0.00  0.00     0.083 H 
ATOM     67  C33 non d ame     -13.447  13.994  72.569  0.00  0.00    -0.082 A 
ATOM     68  H51 non d ame     -13.543  15.482  74.117  0.00  0.00     0.083 H 
ATOM     69  C34 non d ame     -12.884  13.618  71.351  0.00  0.00    -0.075 A 
ATOM     70  H52 non d ame     -14.169  13.342  73.059  0.00  0.00     0.083 H 
ATOM     71  H53 non d ame     -13.166  12.672  70.889  0.00  0.00     0.084 H 
ENDBRANCH  58  61
ENDBRANCH  57  58
ENDBRANCH  55  57
ENDBRANCH  52  55
ENDBRANCH  49  52
ENDBRANCH  47  49
BRANCH  47  72
ATOM     72  C24 non d ame     -10.712   9.426  71.036  0.00  0.00    -0.039 C 
ATOM     73  H35 non d ame      -9.833  10.047  70.862  0.00  0.00     0.036 H 
ATOM     74  H36 non d ame     -11.487   9.761  71.725  0.00  0.00     0.036 H 
BRANCH  72  75
ATOM     75  C25 non d ame     -10.190   8.006  71.565  0.00  0.00    -0.001 C 
ATOM     76  C26 non d ame     -10.967   7.608  72.959  0.00  0.00    -0.035 C 
ATOM     77  C27 non d ame     -10.044   7.277  73.893  0.00  0.00     0.085 C 
ATOM     78  H38 non d ame     -11.452   8.488  73.380  0.00  0.00     0.036 H 
ATOM     79  H39 non d ame     -11.533   6.687  72.822  0.00  0.00     0.036 H 
ATOM     80  N5  non d ame      -8.702   7.727  73.367  0.00  0.00    -0.049 N 
ATOM     81  H40 non d ame     -10.296   7.868  74.775  0.00  0.00     0.075 H 
ATOM     82  H41 non d ame     -10.059   6.189  73.945  0.00  0.00     0.075 H 
ATOM     83  C28 non d ame      -8.920   8.031  71.797  0.00  0.00     0.193 C 
ATOM     84  H42 non d ame      -8.487   8.595  73.836  0.00  0.00     0.280 HD
ATOM     85  H43 non d ame      -8.080   6.936  73.457  0.00  0.00     0.280 HD
ATOM     86  H44 non d ame      -8.567   7.329  71.042  0.00  0.00     0.129 H 
ATOM     87  H37 non d ame     -10.170   7.254  70.776  0.00  0.00     0.046 H 
BRANCH  83  88
ATOM     88  O6  non d ame      -8.334   9.288  71.453  0.00  0.00    -0.369 OA
ATOM     89  H45 non d ame      -7.803   9.187  70.660  0.00  0.00     0.212 HD
ENDBRANCH  83  88
ENDBRANCH  72  75
ENDBRANCH  47  72
ENDBRANCH  45  47
ENDBRANCH   1  43
BRANCH   1  90
ATOM     90  C16 non d ame      -8.391   6.069  67.765  0.00  0.00    -0.035 C 
ATOM     91  H21 non d ame      -7.430   6.416  67.384  0.00  0.00     0.037 H 
ATOM     92  H22 non d ame      -8.602   6.116  68.834  0.00  0.00     0.037 H 
BRANCH  90  93
ATOM     93  C17 non d ame      -8.510   4.565  67.358  0.00  0.00    -0.059 C 
ATOM     94  H23 non d ame      -8.791   4.003  68.249  0.00  0.00     0.038 H 
BRANCH  93  95
ATOM     95  C18 non d ame      -9.616   4.333  66.280  0.00  0.00    -0.073 C 
ATOM     96  H24 non d ame      -9.519   3.327  65.871  0.00  0.00     0.028 H 
ATOM     97  H25 non d ame     -10.599   4.446  66.737  0.00  0.00     0.028 H 
ATOM     98  H26 non d ame      -9.502   5.064  65.479  0.00  0.00     0.028 H 
ENDBRANCH  93  95
BRANCH  93  99
ATOM     99  C19 non d ame      -7.162   4.019  66.882  0.00  0.00    -0.073 C 
ATOM    100  H27 non d ame      -6.575   4.829  66.448  0.00  0.00     0.028 H 
ATOM    101  H28 non d ame      -6.623   3.593  67.729  0.00  0.00     0.028 H 
ATOM    102  H29 non d ame      -7.327   3.247  66.132  0.00  0.00     0.028 H 
ENDBRANCH  93  99
ENDBRANCH  90  93
ENDBRANCH   1  90
TORSDOF 26
ENDMDL
MODEL 14
REMARK VINA RESULT:      -6.0      2.560      8.389
REMARK  26 active torsions:
REMARK  status: ('A' for Active; 'I' for Inactive)
REMARK    1  A    between atoms: C2_2  and  C3_3 
REMARK    2  A    between atoms: C4_6  and  C5_7 
REMARK       I    between atoms: C5_7  and  N2_9 
REMARK    3  A    between atoms: N2_9  and  C6_10 
REMARK    4  A    between atoms: C6_10  and  C7_11 
REMARK    5  A    between atoms: C6_10  and  C8_13 
REMARK       I    between atoms: C7_11  and  N3_14 
REMARK    6  A    between atoms: N3_14  and  C9_15 
REMARK    7  A    between atoms: C9_15  and  C10_16 
REMARK    8  A    between atoms: C9_15  and  C11_18 
REMARK       I    between atoms: C10_16  and  N4_21 
REMARK    9  A    between atoms: C11_18  and  C12_19 
REMARK   10  A    between atoms: C11_18  and  C13_20 
REMARK   11  A    between atoms: N4_21  and  C14_22 
REMARK   12  A    between atoms: C14_22  and  C15_23 
REMARK   13  A    between atoms: C14_22  and  C16_25 
REMARK       I    between atoms: C15_23  and  N6_40 
REMARK   14  A    between atoms: C16_25  and  C17_26 
REMARK   15  A    between atoms: C17_26  and  C18_27 
REMARK   16  A    between atoms: C17_26  and  C19_28 
REMARK   17  A    between atoms: C20_29  and  C21_30 
REMARK   18  A    between atoms: C20_29  and  C24_33 
REMARK   19  A    between atoms: C20_29  and  N6_40 
REMARK   20  A    between atoms: C21_30  and  C22_31 
REMARK   21  A    between atoms: C22_31  and  C23_32 
REMARK   22  A    between atoms: C23_32  and  O8_43 
REMARK   23  A    between atoms: C24_33  and  C25_34 
REMARK   24  A    between atoms: C28_38  and  O6_39 
REMARK   25  A    between atoms: C29_42  and  O8_43 
REMARK   26  A    between atoms: C29_42  and  C35_49 
ROOT
ATOM      1  C14 non d ame      -8.606   6.311  64.915  0.00  0.00     0.089 C 
ATOM      2  H20 non d ame      -9.384   6.249  64.154  0.00  0.00     0.087 H 
ENDROOT
BRANCH   1   3
ATOM      3  N4  non d ame      -8.112   7.680  64.926  0.00  0.00    -0.346 N 
ATOM      4  C10 non d ame      -8.165   8.519  63.675  0.00  0.00     0.241 C 
ATOM      5  O4  non d ame      -8.606   8.070  62.669  0.00  0.00    -0.271 OA
ATOM      6  H19 non d ame      -7.738   8.043  65.792  0.00  0.00     0.163 HD
BRANCH   4   7
ATOM      7  C9  non d ame      -7.655   9.936  63.706  0.00  0.00     0.092 C 
ATOM      8  H11 non d ame      -7.540  10.298  62.685  0.00  0.00     0.088 H 
BRANCH   7   9
ATOM      9  N3  non d ame      -8.643  10.797  64.363  0.00  0.00    -0.346 N 
ATOM     10  C7  non d ame      -9.731  11.358  63.599  0.00  0.00     0.240 C 
ATOM     11  O3  non d ame      -9.825  11.127  62.455  0.00  0.00    -0.271 OA
ATOM     12  H10 non d ame      -8.574  11.006  65.348  0.00  0.00     0.163 HD
BRANCH  10  13
ATOM     13  C6  non d ame     -10.778  12.276  64.302  0.00  0.00     0.086 C 
ATOM     14  H6  non d ame     -11.030  11.935  65.306  0.00  0.00     0.086 H 
BRANCH  13  15
ATOM     15  N2  non d ame     -10.216  13.609  64.444  0.00  0.00    -0.343 N 
ATOM     16  C5  non d ame     -10.087  14.199  65.778  0.00  0.00     0.273 C 
ATOM     17  O2  non d ame     -10.440  13.595  66.730  0.00  0.00    -0.266 OA
ATOM     18  H5  non d ame      -9.919  14.119  63.624  0.00  0.00     0.163 HD
BRANCH  16  19
ATOM     19  C4  non d ame      -9.493  15.607  65.943  0.00  0.00     0.154 A 
ATOM     20  C1  non d ame      -8.261  15.956  66.580  0.00  0.00    -0.017 A 
ATOM     21  C2  non d ame      -8.177  17.362  66.464  0.00  0.00     0.077 A 
ATOM     22  H1  non d ame      -7.538  15.292  67.055  0.00  0.00     0.091 H 
ATOM     23  O1  non d ame      -9.241  17.762  65.831  0.00  0.00    -0.218 OA
ATOM     24  N1  non d ame     -10.024  16.756  65.517  0.00  0.00    -0.123 NA
BRANCH  21  25
ATOM     25  C3  non d ame      -7.050  18.244  66.983  0.00  0.00    -0.029 C 
ATOM     26  H2  non d ame      -7.438  19.239  67.203  0.00  0.00     0.036 H 
ATOM     27  H3  non d ame      -6.635  17.807  67.892  0.00  0.00     0.036 H 
ATOM     28  H4  non d ame      -6.268  18.318  66.227  0.00  0.00     0.036 H 
ENDBRANCH  21  25
ENDBRANCH  16  19
ENDBRANCH  13  15
BRANCH  13  29
ATOM     29  C8  non d ame     -12.038  12.331  63.476  0.00  0.00    -0.049 C 
ATOM     30  H7  non d ame     -12.559  11.376  63.544  0.00  0.00     0.030 H 
ATOM     31  H8  non d ame     -12.683  13.126  63.850  0.00  0.00     0.030 H 
ATOM     32  H9  non d ame     -11.781  12.531  62.436  0.00  0.00     0.030 H 
ENDBRANCH  13  29
ENDBRANCH  10  13
ENDBRANCH   7   9
BRANCH   7  33
ATOM     33  C11 non d ame      -6.317   9.988  64.501  0.00  0.00    -0.033 C 
ATOM     34  H12 non d ame      -6.015   8.961  64.703  0.00  0.00     0.042 H 
BRANCH  33  35
ATOM     35  C12 non d ame      -5.182  10.653  63.660  0.00  0.00    -0.071 C 
ATOM     36  H13 non d ame      -5.614  11.125  62.777  0.00  0.00     0.028 H 
ATOM     37  H14 non d ame      -4.678  11.408  64.264  0.00  0.00     0.028 H 
ATOM     38  H15 non d ame      -4.465   9.893  63.353  0.00  0.00     0.028 H 
ENDBRANCH  33  35
BRANCH  33  39
ATOM     39  C13 non d ame      -6.507  10.715  65.871  0.00  0.00    -0.071 C 
ATOM     40  H16 non d ame      -7.327  10.249  66.418  0.00  0.00     0.028 H 
ATOM     41  H17 non d ame      -5.590  10.637  66.454  0.00  0.00     0.028 H 
ATOM     42  H18 non d ame      -6.738  11.765  65.695  0.00  0.00     0.028 H 
ENDBRANCH  33  39
ENDBRANCH   7  33
ENDBRANCH   4   7
ENDBRANCH   1   3
BRANCH   1  43
ATOM     43  C15 non d ame      -9.143   5.966  66.333  0.00  0.00     0.240 C 
ATOM     44  O5  non d ame     -10.309   5.803  66.501  0.00  0.00    -0.271 OA
ATOM     45  N6  non d ame      -8.203   5.830  67.483  0.00  0.00    -0.355 N 
ATOM     46  H46 non d ame      -7.211   5.961  67.352  0.00  0.00     0.162 HD
BRANCH  45  47
ATOM     47  C20 non d ame      -8.730   5.501  68.825  0.00  0.00     0.013 C 
ATOM     48  H30 non d ame      -9.815   5.425  68.750  0.00  0.00     0.072 H 
BRANCH  47  49
ATOM     49  C21 non d ame      -8.353   6.599  69.793  0.00  0.00    -0.038 C 
ATOM     50  H31 non d ame      -9.292   7.074  70.080  0.00  0.00     0.036 H 
ATOM     51  H32 non d ame      -7.729   6.123  70.549  0.00  0.00     0.036 H 
BRANCH  49  52
ATOM     52  C22 non d ame      -7.488   7.701  69.143  0.00  0.00     0.018 C 
ATOM     53  H33 non d ame      -6.630   7.831  69.803  0.00  0.00     0.048 H 
ATOM     54  H34 non d ame      -7.338   7.387  68.109  0.00  0.00     0.048 H 
BRANCH  52  55
ATOM     55  C23 non d ame      -8.188   9.086  69.071  0.00  0.00     0.259 C 
ATOM     56  O7  non d ame      -7.579  10.082  69.291  0.00  0.00    -0.265 OA
BRANCH  55  57
ATOM     57  O8  non d ame      -9.573   9.152  68.752  0.00  0.00    -0.317 OA
BRANCH  57  58
ATOM     58  C29 non d ame     -10.210  10.363  69.170  0.00  0.00     0.052 C 
ATOM     59  H47 non d ame      -9.427  10.963  69.634  0.00  0.00     0.082 H 
ATOM     60  H48 non d ame     -10.735  10.737  68.292  0.00  0.00     0.082 H 
BRANCH  58  61
ATOM     61  C35 non d ame     -11.261  10.002  70.253  0.00  0.00    -0.034 A 
ATOM     62  C30 non d ame     -12.163  10.964  70.696  0.00  0.00    -0.075 A 
ATOM     63  C31 non d ame     -13.107  10.641  71.670  0.00  0.00    -0.082 A 
ATOM     64  H49 non d ame     -12.131  11.971  70.280  0.00  0.00     0.084 H 
ATOM     65  C32 non d ame     -13.145   9.350  72.203  0.00  0.00    -0.083 A 
ATOM     66  H50 non d ame     -13.814  11.396  72.013  0.00  0.00     0.083 H 
ATOM     67  C33 non d ame     -12.240   8.394  71.761  0.00  0.00    -0.082 A 
ATOM     68  H51 non d ame     -13.880   9.088  72.964  0.00  0.00     0.083 H 
ATOM     69  C34 non d ame     -11.296   8.712  70.786  0.00  0.00    -0.075 A 
ATOM     70  H52 non d ame     -12.270   7.388  72.181  0.00  0.00     0.083 H 
ATOM     71  H53 non d ame     -10.590   7.956  70.443  0.00  0.00     0.084 H 
ENDBRANCH  58  61
ENDBRANCH  57  58
ENDBRANCH  55  57
ENDBRANCH  52  55
ENDBRANCH  49  52
ENDBRANCH  47  49
BRANCH  47  72
ATOM     72  C24 non d ame      -8.137   4.176  69.301  0.00  0.00    -0.039 C 
ATOM     73  H35 non d ame      -7.669   4.396  70.261  0.00  0.00     0.036 H 
ATOM     74  H36 non d ame      -8.954   3.456  69.246  0.00  0.00     0.036 H 
BRANCH  72  75
ATOM     75  C25 non d ame      -6.983   3.656  68.320  0.00  0.00    -0.001 C 
ATOM     76  C26 non d ame      -7.455   2.261  67.588  0.00  0.00    -0.035 C 
ATOM     77  C27 non d ame      -6.483   1.332  67.751  0.00  0.00     0.085 C 
ATOM     78  H38 non d ame      -8.307   1.833  68.115  0.00  0.00     0.036 H 
ATOM     79  H39 non d ame      -7.496   2.401  66.508  0.00  0.00     0.036 H 
ATOM     80  N5  non d ame      -5.538   1.861  68.803  0.00  0.00    -0.049 N 
ATOM     81  H40 non d ame      -6.988   0.447  68.140  0.00  0.00     0.075 H 
ATOM     82  H41 non d ame      -5.961   1.287  66.796  0.00  0.00     0.075 H 
ATOM     83  C28 non d ame      -5.888   3.429  68.965  0.00  0.00     0.193 C 
ATOM     84  H42 non d ame      -5.775   1.389  69.664  0.00  0.00     0.280 HD
ATOM     85  H43 non d ame      -4.607   1.778  68.420  0.00  0.00     0.280 HD
ATOM     86  H44 non d ame      -5.239   4.189  68.529  0.00  0.00     0.129 H 
ATOM     87  H37 non d ame      -6.600   4.449  67.676  0.00  0.00     0.046 H 
BRANCH  83  88
ATOM     88  O6  non d ame      -5.997   3.769  70.349  0.00  0.00    -0.369 OA
ATOM     89  H45 non d ame      -5.680   3.038  70.884  0.00  0.00     0.212 HD
ENDBRANCH  83  88
ENDBRANCH  72  75
ENDBRANCH  47  72
ENDBRANCH  45  47
ENDBRANCH   1  43
BRANCH   1  90
ATOM     90  C16 non d ame      -7.462   5.374  64.560  0.00  0.00    -0.035 C 
ATOM     91  H21 non d ame      -7.460   4.612  65.340  0.00  0.00     0.037 H 
ATOM     92  H22 non d ame      -7.633   5.090  63.521  0.00  0.00     0.037 H 
BRANCH  90  93
ATOM     93  C17 non d ame      -6.057   6.055  64.605  0.00  0.00    -0.059 C 
ATOM     94  H23 non d ame      -6.197   7.079  64.953  0.00  0.00     0.038 H 
BRANCH  93  95
ATOM     95  C18 non d ame      -5.088   5.342  65.601  0.00  0.00    -0.073 C 
ATOM     96  H24 non d ame      -4.432   6.080  66.062  0.00  0.00     0.028 H 
ATOM     97  H25 non d ame      -5.669   4.838  66.375  0.00  0.00     0.028 H 
ATOM     98  H26 non d ame      -4.488   4.608  65.062  0.00  0.00     0.028 H 
ENDBRANCH  93  95
BRANCH  93  99
ATOM     99  C19 non d ame      -5.441   6.131  63.206  0.00  0.00    -0.073 C 
ATOM    100  H27 non d ame      -4.743   6.968  63.161  0.00  0.00     0.028 H 
ATOM    101  H28 non d ame      -4.910   5.203  62.992  0.00  0.00     0.028 H 
ATOM    102  H29 non d ame      -6.230   6.275  62.469  0.00  0.00     0.028 H 
ENDBRANCH  93  99
ENDBRANCH  90  93
ENDBRANCH   1  90
TORSDOF 26
ENDMDL
MODEL 15
REMARK VINA RESULT:      -6.0      2.402      4.722
REMARK  26 active torsions:
REMARK  status: ('A' for Active; 'I' for Inactive)
REMARK    1  A    between atoms: C2_2  and  C3_3 
REMARK    2  A    between atoms: C4_6  and  C5_7 
REMARK       I    between atoms: C5_7  and  N2_9 
REMARK    3  A    between atoms: N2_9  and  C6_10 
REMARK    4  A    between atoms: C6_10  and  C7_11 
REMARK    5  A    between atoms: C6_10  and  C8_13 
REMARK       I    between atoms: C7_11  and  N3_14 
REMARK    6  A    between atoms: N3_14  and  C9_15 
REMARK    7  A    between atoms: C9_15  and  C10_16 
REMARK    8  A    between atoms: C9_15  and  C11_18 
REMARK       I    between atoms: C10_16  and  N4_21 
REMARK    9  A    between atoms: C11_18  and  C12_19 
REMARK   10  A    between atoms: C11_18  and  C13_20 
REMARK   11  A    between atoms: N4_21  and  C14_22 
REMARK   12  A    between atoms: C14_22  and  C15_23 
REMARK   13  A    between atoms: C14_22  and  C16_25 
REMARK       I    between atoms: C15_23  and  N6_40 
REMARK   14  A    between atoms: C16_25  and  C17_26 
REMARK   15  A    between atoms: C17_26  and  C18_27 
REMARK   16  A    between atoms: C17_26  and  C19_28 
REMARK   17  A    between atoms: C20_29  and  C21_30 
REMARK   18  A    between atoms: C20_29  and  C24_33 
REMARK   19  A    between atoms: C20_29  and  N6_40 
REMARK   20  A    between atoms: C21_30  and  C22_31 
REMARK   21  A    between atoms: C22_31  and  C23_32 
REMARK   22  A    between atoms: C23_32  and  O8_43 
REMARK   23  A    between atoms: C24_33  and  C25_34 
REMARK   24  A    between atoms: C28_38  and  O6_39 
REMARK   25  A    between atoms: C29_42  and  O8_43 
REMARK   26  A    between atoms: C29_42  and  C35_49 
ROOT
ATOM      1  C14 non d ame     -10.051  10.216  68.818  0.00  0.00     0.089 C 
ATOM      2  H20 non d ame      -9.416  10.361  69.693  0.00  0.00     0.087 H 
ENDROOT
BRANCH   1   3
ATOM      3  N4  non d ame     -10.620   8.880  68.906  0.00  0.00    -0.346 N 
ATOM      4  C10 non d ame     -10.624   8.139  70.219  0.00  0.00     0.241 C 
ATOM      5  O4  non d ame     -10.160   8.637  71.191  0.00  0.00    -0.271 OA
ATOM      6  H19 non d ame     -11.008   8.472  68.067  0.00  0.00     0.163 HD
BRANCH   4   7
ATOM      7  C9  non d ame     -11.223   6.758  70.294  0.00  0.00     0.092 C 
ATOM      8  H11 non d ame     -12.166   6.747  69.748  0.00  0.00     0.088 H 
BRANCH   7   9
ATOM      9  N3  non d ame     -10.329   5.801  69.635  0.00  0.00    -0.346 N 
ATOM     10  C7  non d ame     -10.429   5.583  68.213  0.00  0.00     0.240 C 
ATOM     11  O3  non d ame     -11.224   6.167  67.584  0.00  0.00    -0.271 OA
ATOM     12  H10 non d ame      -9.638   5.289  70.165  0.00  0.00     0.163 HD
BRANCH  10  13
ATOM     13  C6  non d ame      -9.477   4.560  67.518  0.00  0.00     0.086 C 
ATOM     14  H6  non d ame      -9.989   3.937  66.786  0.00  0.00     0.086 H 
BRANCH  13  15
ATOM     15  N2  non d ame      -8.449   5.290  66.795  0.00  0.00    -0.343 N 
ATOM     16  C5  non d ame      -8.486   5.330  65.332  0.00  0.00     0.273 C 
ATOM     17  O2  non d ame      -9.346   4.770  64.746  0.00  0.00    -0.266 OA
ATOM     18  H5  non d ame      -7.716   5.764  67.304  0.00  0.00     0.163 HD
BRANCH  16  19
ATOM     19  C4  non d ame      -7.407   6.099  64.555  0.00  0.00     0.154 A 
ATOM     20  C1  non d ame      -7.564   7.334  63.848  0.00  0.00    -0.017 A 
ATOM     21  C2  non d ame      -6.286   7.612  63.314  0.00  0.00     0.077 A 
ATOM     22  H1  non d ame      -8.467   7.935  63.740  0.00  0.00     0.091 H 
ATOM     23  O1  non d ame      -5.495   6.645  63.677  0.00  0.00    -0.218 OA
ATOM     24  N1  non d ame      -6.126   5.750  64.402  0.00  0.00    -0.123 NA
BRANCH  21  25
ATOM     25  C3  non d ame      -5.906   8.821  62.469  0.00  0.00    -0.029 C 
ATOM     26  H2  non d ame      -6.104   8.607  61.418  0.00  0.00     0.036 H 
ATOM     27  H3  non d ame      -6.495   9.682  62.782  0.00  0.00     0.036 H 
ATOM     28  H4  non d ame      -4.846   9.038  62.601  0.00  0.00     0.036 H 
ENDBRANCH  21  25
ENDBRANCH  16  19
ENDBRANCH  13  15
BRANCH  13  29
ATOM     29  C8  non d ame      -8.844   3.671  68.559  0.00  0.00    -0.049 C 
ATOM     30  H7  non d ame      -9.218   3.944  69.546  0.00  0.00     0.030 H 
ATOM     31  H8  non d ame      -9.096   2.631  68.349  0.00  0.00     0.030 H 
ATOM     32  H9  non d ame      -7.762   3.796  68.533  0.00  0.00     0.030 H 
ENDBRANCH  13  29
ENDBRANCH  10  13
ENDBRANCH   7   9
BRANCH   7  33
ATOM     33  C11 non d ame     -11.405   6.352  71.786  0.00  0.00    -0.033 C 
ATOM     34  H12 non d ame     -10.855   7.072  72.392  0.00  0.00     0.042 H 
BRANCH  33  35
ATOM     35  C12 non d ame     -12.903   6.425  72.216  0.00  0.00    -0.071 C 
ATOM     36  H13 non d ame     -13.037   5.892  73.158  0.00  0.00     0.028 H 
ATOM     37  H14 non d ame     -13.194   7.467  72.344  0.00  0.00     0.028 H 
ATOM     38  H15 non d ame     -13.524   5.965  71.447  0.00  0.00     0.028 H 
ENDBRANCH  33  35
BRANCH  33  39
ATOM     39  C13 non d ame     -10.806   4.935  72.056  0.00  0.00    -0.071 C 
ATOM     40  H16 non d ame     -11.312   4.483  72.909  0.00  0.00     0.028 H 
ATOM     41  H17 non d ame     -10.946   4.306  71.176  0.00  0.00     0.028 H 
ATOM     42  H18 non d ame      -9.741   5.026  72.272  0.00  0.00     0.028 H 
ENDBRANCH  33  39
ENDBRANCH   7  33
ENDBRANCH   4   7
ENDBRANCH   1   3
BRANCH   1  43
ATOM     43  C15 non d ame     -11.214  11.247  68.758  0.00  0.00     0.240 C 
ATOM     44  O5  non d ame     -12.338  10.876  68.861  0.00  0.00    -0.271 OA
ATOM     45  N6  non d ame     -10.925  12.699  68.582  0.00  0.00    -0.355 N 
ATOM     46  H46 non d ame      -9.974  13.027  68.499  0.00  0.00     0.162 HD
BRANCH  45  47
ATOM     47  C20 non d ame     -12.042  13.667  68.529  0.00  0.00     0.013 C 
ATOM     48  H30 non d ame     -12.914  13.199  68.986  0.00  0.00     0.072 H 
BRANCH  47  49
ATOM     49  C21 non d ame     -12.338  14.010  67.086  0.00  0.00    -0.038 C 
ATOM     50  H31 non d ame     -12.988  13.215  66.722  0.00  0.00     0.036 H 
ATOM     51  H32 non d ame     -12.689  15.042  67.096  0.00  0.00     0.036 H 
BRANCH  49  52
ATOM     52  C22 non d ame     -11.077  13.987  66.194  0.00  0.00     0.018 C 
ATOM     53  H33 non d ame     -10.245  14.241  66.852  0.00  0.00     0.048 H 
ATOM     54  H34 non d ame     -11.094  13.023  65.685  0.00  0.00     0.048 H 
BRANCH  52  55
ATOM     55  C23 non d ame     -11.082  15.064  65.074  0.00  0.00     0.259 C 
ATOM     56  O7  non d ame     -11.922  15.056  64.234  0.00  0.00    -0.265 OA
BRANCH  55  57
ATOM     57  O8  non d ame     -10.062  16.055  65.056  0.00  0.00    -0.317 OA
BRANCH  57  58
ATOM     58  C29 non d ame      -9.313  16.142  66.272  0.00  0.00     0.052 C 
ATOM     59  H47 non d ame      -9.724  15.373  66.927  0.00  0.00     0.082 H 
ATOM     60  H48 non d ame      -8.265  16.103  65.976  0.00  0.00     0.082 H 
BRANCH  58  61
ATOM     61  C35 non d ame      -9.592  17.530  66.908  0.00  0.00    -0.034 A 
ATOM     62  C30 non d ame      -9.184  17.793  68.212  0.00  0.00    -0.075 A 
ATOM     63  C31 non d ame      -9.435  19.039  68.784  0.00  0.00    -0.082 A 
ATOM     64  H49 non d ame      -8.669  17.023  68.785  0.00  0.00     0.084 H 
ATOM     65  C32 non d ame     -10.098  20.024  68.047  0.00  0.00    -0.083 A 
ATOM     66  H50 non d ame      -9.112  19.243  69.805  0.00  0.00     0.083 H 
ATOM     67  C33 non d ame     -10.506  19.756  66.747  0.00  0.00    -0.082 A 
ATOM     68  H51 non d ame     -10.297  21.002  68.486  0.00  0.00     0.083 H 
ATOM     69  C34 non d ame     -10.256  18.512  66.171  0.00  0.00    -0.075 A 
ATOM     70  H52 non d ame     -11.025  20.526  66.176  0.00  0.00     0.083 H 
ATOM     71  H53 non d ame     -10.578  18.310  65.149  0.00  0.00     0.084 H 
ENDBRANCH  58  61
ENDBRANCH  57  58
ENDBRANCH  55  57
ENDBRANCH  52  55
ENDBRANCH  49  52
ENDBRANCH  47  49
BRANCH  47  72
ATOM     72  C24 non d ame     -11.662  14.937  69.288  0.00  0.00    -0.039 C 
ATOM     73  H35 non d ame     -10.643  15.167  68.976  0.00  0.00     0.036 H 
ATOM     74  H36 non d ame     -12.466  15.645  69.088  0.00  0.00     0.036 H 
BRANCH  72  75
ATOM     75  C25 non d ame     -11.628  14.693  70.871  0.00  0.00    -0.001 C 
ATOM     76  C26 non d ame     -12.958  13.846  71.336  0.00  0.00    -0.035 C 
ATOM     77  C27 non d ame     -13.554  14.499  72.362  0.00  0.00     0.085 C 
ATOM     78  H38 non d ame     -13.710  13.869  70.548  0.00  0.00     0.036 H 
ATOM     79  H39 non d ame     -12.660  12.895  71.778  0.00  0.00     0.036 H 
ATOM     80  N5  non d ame     -12.942  15.877  72.424  0.00  0.00    -0.049 N 
ATOM     81  H40 non d ame     -14.604  14.589  72.080  0.00  0.00     0.075 H 
ATOM     82  H41 non d ame     -13.277  13.946  73.259  0.00  0.00     0.075 H 
ATOM     83  C28 non d ame     -11.609  15.812  71.515  0.00  0.00     0.193 C 
ATOM     84  H42 non d ame     -13.601  16.503  71.984  0.00  0.00     0.280 HD
ATOM     85  H43 non d ame     -12.668  16.026  73.385  0.00  0.00     0.280 HD
ATOM     86  H44 non d ame     -10.624  15.756  71.980  0.00  0.00     0.129 H 
ATOM     87  H37 non d ame     -10.660  14.323  71.211  0.00  0.00     0.046 H 
BRANCH  83  88
ATOM     88  O6  non d ame     -11.555  16.939  70.638  0.00  0.00    -0.369 OA
ATOM     89  H45 non d ame     -12.249  17.559  70.871  0.00  0.00     0.212 HD
ENDBRANCH  83  88
ENDBRANCH  72  75
ENDBRANCH  47  72
ENDBRANCH  45  47
ENDBRANCH   1  43
BRANCH   1  90
ATOM     90  C16 non d ame      -9.214  10.316  67.553  0.00  0.00    -0.035 C 
ATOM     91  H21 non d ame      -9.443   9.415  66.982  0.00  0.00     0.037 H 
ATOM     92  H22 non d ame      -9.439  11.297  67.134  0.00  0.00     0.037 H 
BRANCH  90  93
ATOM     93  C17 non d ame      -7.674  10.291  67.816  0.00  0.00    -0.059 C 
ATOM     94  H23 non d ame      -7.241  11.163  67.327  0.00  0.00     0.038 H 
BRANCH  93  95
ATOM     95  C18 non d ame      -7.335  10.381  69.339  0.00  0.00    -0.073 C 
ATOM     96  H24 non d ame      -7.142   9.381  69.727  0.00  0.00     0.028 H 
ATOM     97  H25 non d ame      -6.451  11.002  69.478  0.00  0.00     0.028 H 
ATOM     98  H26 non d ame      -8.177  10.822  69.872  0.00  0.00     0.028 H 
ENDBRANCH  93  95
BRANCH  93  99
ATOM     99  C19 non d ame      -7.032   9.051  67.188  0.00  0.00    -0.073 C 
ATOM    100  H27 non d ame      -6.611   8.422  67.973  0.00  0.00     0.028 H 
ATOM    101  H28 non d ame      -7.788   8.490  66.638  0.00  0.00     0.028 H 
ATOM    102  H29 non d ame      -6.241   9.359  66.505  0.00  0.00     0.028 H 
ENDBRANCH  93  99
ENDBRANCH  90  93
ENDBRANCH   1  90
TORSDOF 26
ENDMDL
MODEL 16
REMARK VINA RESULT:      -5.9      1.836      2.749
REMARK  26 active torsions:
REMARK  status: ('A' for Active; 'I' for Inactive)
REMARK    1  A    between atoms: C2_2  and  C3_3 
REMARK    2  A    between atoms: C4_6  and  C5_7 
REMARK       I    between atoms: C5_7  and  N2_9 
REMARK    3  A    between atoms: N2_9  and  C6_10 
REMARK    4  A    between atoms: C6_10  and  C7_11 
REMARK    5  A    between atoms: C6_10  and  C8_13 
REMARK       I    between atoms: C7_11  and  N3_14 
REMARK    6  A    between atoms: N3_14  and  C9_15 
REMARK    7  A    between atoms: C9_15  and  C10_16 
REMARK    8  A    between atoms: C9_15  and  C11_18 
REMARK       I    between atoms: C10_16  and  N4_21 
REMARK    9  A    between atoms: C11_18  and  C12_19 
REMARK   10  A    between atoms: C11_18  and  C13_20 
REMARK   11  A    between atoms: N4_21  and  C14_22 
REMARK   12  A    between atoms: C14_22  and  C15_23 
REMARK   13  A    between atoms: C14_22  and  C16_25 
REMARK       I    between atoms: C15_23  and  N6_40 
REMARK   14  A    between atoms: C16_25  and  C17_26 
REMARK   15  A    between atoms: C17_26  and  C18_27 
REMARK   16  A    between atoms: C17_26  and  C19_28 
REMARK   17  A    between atoms: C20_29  and  C21_30 
REMARK   18  A    between atoms: C20_29  and  C24_33 
REMARK   19  A    between atoms: C20_29  and  N6_40 
REMARK   20  A    between atoms: C21_30  and  C22_31 
REMARK   21  A    between atoms: C22_31  and  C23_32 
REMARK   22  A    between atoms: C23_32  and  O8_43 
REMARK   23  A    between atoms: C24_33  and  C25_34 
REMARK   24  A    between atoms: C28_38  and  O6_39 
REMARK   25  A    between atoms: C29_42  and  O8_43 
REMARK   26  A    between atoms: C29_42  and  C35_49 
ROOT
ATOM      1  C14 non d ame     -10.372   8.726  69.387  0.00  0.00     0.089 C 
ATOM      2  H20 non d ame     -11.433   8.531  69.234  0.00  0.00     0.087 H 
ENDROOT
BRANCH   1   3
ATOM      3  N4  non d ame      -9.672   7.455  69.275  0.00  0.00    -0.346 N 
ATOM      4  C10 non d ame     -10.437   6.157  69.329  0.00  0.00     0.241 C 
ATOM      5  O4  non d ame     -11.616   6.160  69.467  0.00  0.00    -0.271 OA
ATOM      6  H19 non d ame      -8.668   7.474  69.161  0.00  0.00     0.163 HD
BRANCH   4   7
ATOM      7  C9  non d ame      -9.697   4.851  69.206  0.00  0.00     0.092 C 
ATOM      8  H11 non d ame     -10.369   4.095  68.798  0.00  0.00     0.088 H 
BRANCH   7   9
ATOM      9  N3  non d ame      -8.590   5.004  68.257  0.00  0.00    -0.346 N 
ATOM     10  C7  non d ame      -8.728   4.520  66.905  0.00  0.00     0.240 C 
ATOM     11  O3  non d ame      -9.723   4.005  66.564  0.00  0.00    -0.271 OA
ATOM     12  H10 non d ame      -7.726   5.445  68.536  0.00  0.00     0.163 HD
BRANCH  10  13
ATOM     13  C6  non d ame      -7.546   4.683  65.900  0.00  0.00     0.086 C 
ATOM     14  H6  non d ame      -7.678   4.092  64.994  0.00  0.00     0.086 H 
BRANCH  13  15
ATOM     15  N2  non d ame      -7.470   6.073  65.482  0.00  0.00    -0.343 N 
ATOM     16  C5  non d ame      -7.662   6.413  64.071  0.00  0.00     0.273 C 
ATOM     17  O2  non d ame      -7.874   5.562  63.279  0.00  0.00    -0.266 OA
ATOM     18  H5  non d ame      -7.286   6.794  66.165  0.00  0.00     0.163 HD
BRANCH  16  19
ATOM     19  C4  non d ame      -7.586   7.879  63.615  0.00  0.00     0.154 A 
ATOM     20  C1  non d ame      -7.915   8.401  62.324  0.00  0.00    -0.017 A 
ATOM     21  C2  non d ame      -7.677   9.790  62.422  0.00  0.00     0.077 A 
ATOM     22  H1  non d ame      -8.272   7.856  61.450  0.00  0.00     0.091 H 
ATOM     23  O1  non d ame      -7.262  10.027  63.632  0.00  0.00    -0.218 OA
ATOM     24  N1  non d ame      -7.200   8.928  64.347  0.00  0.00    -0.123 NA
BRANCH  21  25
ATOM     25  C3  non d ame      -7.871  10.819  61.316  0.00  0.00    -0.029 C 
ATOM     26  H2  non d ame      -8.169  10.313  60.397  0.00  0.00     0.036 H 
ATOM     27  H3  non d ame      -8.647  11.526  61.610  0.00  0.00     0.036 H 
ATOM     28  H4  non d ame      -6.936  11.355  61.149  0.00  0.00     0.036 H 
ENDBRANCH  21  25
ENDBRANCH  16  19
ENDBRANCH  13  15
BRANCH  13  29
ATOM     29  C8  non d ame      -6.257   4.273  66.566  0.00  0.00    -0.049 C 
ATOM     30  H7  non d ame      -5.478   4.158  65.811  0.00  0.00     0.030 H 
ATOM     31  H8  non d ame      -5.959   5.038  67.283  0.00  0.00     0.030 H 
ATOM     32  H9  non d ame      -6.402   3.325  67.084  0.00  0.00     0.030 H 
ENDBRANCH  13  29
ENDBRANCH  10  13
ENDBRANCH   7   9
BRANCH   7  33
ATOM     33  C11 non d ame      -9.130   4.442  70.597  0.00  0.00    -0.033 C 
ATOM     34  H12 non d ame      -9.066   3.354  70.619  0.00  0.00     0.042 H 
BRANCH  33  35
ATOM     35  C12 non d ame      -7.690   5.002  70.811  0.00  0.00    -0.071 C 
ATOM     36  H13 non d ame      -7.601   5.401  71.822  0.00  0.00     0.028 H 
ATOM     37  H14 non d ame      -6.964   4.200  70.673  0.00  0.00     0.028 H 
ATOM     38  H15 non d ame      -7.497   5.795  70.089  0.00  0.00     0.028 H 
ENDBRANCH  33  35
BRANCH  33  39
ATOM     39  C13 non d ame     -10.089   4.893  71.746  0.00  0.00    -0.071 C 
ATOM     40  H16 non d ame     -11.108   4.955  71.365  0.00  0.00     0.028 H 
ATOM     41  H17 non d ame     -10.049   4.167  72.559  0.00  0.00     0.028 H 
ATOM     42  H18 non d ame      -9.779   5.870  72.115  0.00  0.00     0.028 H 
ENDBRANCH  33  39
ENDBRANCH   7  33
ENDBRANCH   4   7
ENDBRANCH   1   3
BRANCH   1  43
ATOM     43  C15 non d ame      -9.795   9.705  68.325  0.00  0.00     0.240 C 
ATOM     44  O5  non d ame      -9.688   9.354  67.194  0.00  0.00    -0.271 OA
ATOM     45  N6  non d ame      -9.383  11.083  68.715  0.00  0.00    -0.355 N 
ATOM     46  H46 non d ame      -9.473  11.394  69.671  0.00  0.00     0.162 HD
BRANCH  45  47
ATOM     47  C20 non d ame      -8.838  12.002  67.693  0.00  0.00     0.013 C 
ATOM     48  H30 non d ame      -8.488  11.401  66.854  0.00  0.00     0.072 H 
BRANCH  47  49
ATOM     49  C21 non d ame      -7.685  12.782  68.285  0.00  0.00    -0.038 C 
ATOM     50  H31 non d ame      -7.843  12.766  69.364  0.00  0.00     0.036 H 
ATOM     51  H32 non d ame      -6.783  12.343  67.859  0.00  0.00     0.036 H 
BRANCH  49  52
ATOM     52  C22 non d ame      -7.689  14.268  67.866  0.00  0.00     0.018 C 
ATOM     53  H33 non d ame      -6.744  14.430  67.346  0.00  0.00     0.048 H 
ATOM     54  H34 non d ame      -8.632  14.425  67.343  0.00  0.00     0.048 H 
BRANCH  52  55
ATOM     55  C23 non d ame      -7.693  15.257  69.064  0.00  0.00     0.259 C 
ATOM     56  O7  non d ame      -6.737  15.365  69.761  0.00  0.00    -0.265 OA
BRANCH  55  57
ATOM     57  O8  non d ame      -8.861  16.026  69.329  0.00  0.00    -0.317 OA
BRANCH  57  58
ATOM     58  C29 non d ame      -9.825  16.003  68.272  0.00  0.00     0.052 C 
ATOM     59  H47 non d ame      -9.394  15.373  67.493  0.00  0.00     0.082 H 
ATOM     60  H48 non d ame     -10.769  15.724  68.739  0.00  0.00     0.082 H 
BRANCH  58  61
ATOM     61  C35 non d ame      -9.960  17.446  67.717  0.00  0.00    -0.034 A 
ATOM     62  C30 non d ame      -9.693  18.537  68.538  0.00  0.00    -0.075 A 
ATOM     63  C31 non d ame      -9.815  19.833  68.040  0.00  0.00    -0.082 A 
ATOM     64  H49 non d ame      -9.388  18.376  69.572  0.00  0.00     0.084 H 
ATOM     65  C32 non d ame     -10.208  20.037  66.714  0.00  0.00    -0.083 A 
ATOM     66  H50 non d ame      -9.603  20.685  68.685  0.00  0.00     0.083 H 
ATOM     67  C33 non d ame     -10.477  18.946  65.899  0.00  0.00    -0.082 A 
ATOM     68  H51 non d ame     -10.305  21.047  66.316  0.00  0.00     0.083 H 
ATOM     69  C34 non d ame     -10.354  17.648  66.393  0.00  0.00    -0.075 A 
ATOM     70  H52 non d ame     -10.785  19.108  64.866  0.00  0.00     0.083 H 
ATOM     71  H53 non d ame     -10.566  16.796  65.746  0.00  0.00     0.084 H 
ENDBRANCH  58  61
ENDBRANCH  57  58
ENDBRANCH  55  57
ENDBRANCH  52  55
ENDBRANCH  49  52
ENDBRANCH  47  49
BRANCH  47  72
ATOM     72  C24 non d ame      -9.926  12.970  67.235  0.00  0.00    -0.039 C 
ATOM     73  H35 non d ame     -10.765  12.805  67.912  0.00  0.00     0.036 H 
ATOM     74  H36 non d ame      -9.446  13.948  67.191  0.00  0.00     0.036 H 
BRANCH  72  75
ATOM     75  C25 non d ame     -10.439  12.629  65.756  0.00  0.00    -0.001 C 
ATOM     76  C26 non d ame     -10.663  14.019  64.906  0.00  0.00    -0.035 C 
ATOM     77  C27 non d ame     -11.903  14.004  64.363  0.00  0.00     0.085 C 
ATOM     78  H38 non d ame     -10.692  14.871  65.585  0.00  0.00     0.036 H 
ATOM     79  H39 non d ame     -10.004  14.036  64.038  0.00  0.00     0.036 H 
ATOM     80  N5  non d ame     -12.664  12.884  65.031  0.00  0.00    -0.049 N 
ATOM     81  H40 non d ame     -12.355  14.956  64.640  0.00  0.00     0.075 H 
ATOM     82  H41 non d ame     -11.757  13.755  63.312  0.00  0.00     0.075 H 
ATOM     83  C28 non d ame     -11.557  11.984  65.786  0.00  0.00     0.193 C 
ATOM     84  H42 non d ame     -13.256  13.316  65.726  0.00  0.00     0.280 HD
ATOM     85  H43 non d ame     -13.074  12.334  64.290  0.00  0.00     0.280 HD
ATOM     86  H44 non d ame     -11.245  11.026  65.370  0.00  0.00     0.129 H 
ATOM     87  H37 non d ame      -9.844  11.848  65.282  0.00  0.00     0.046 H 
BRANCH  83  88
ATOM     88  O6  non d ame     -11.980  11.700  67.121  0.00  0.00    -0.369 OA
ATOM     89  H45 non d ame     -11.966  10.752  67.266  0.00  0.00     0.212 HD
ENDBRANCH  83  88
ENDBRANCH  72  75
ENDBRANCH  47  72
ENDBRANCH  45  47
ENDBRANCH   1  43
BRANCH   1  90
ATOM     90  C16 non d ame     -10.149   9.294  70.780  0.00  0.00    -0.035 C 
ATOM     91  H21 non d ame      -9.599   8.524  71.321  0.00  0.00     0.037 H 
ATOM     92  H22 non d ame      -9.700  10.275  70.623  0.00  0.00     0.037 H 
BRANCH  90  93
ATOM     93  C17 non d ame     -11.470   9.536  71.577  0.00  0.00    -0.059 C 
ATOM     94  H23 non d ame     -11.242  10.218  72.396  0.00  0.00     0.038 H 
BRANCH  93  95
ATOM     95  C18 non d ame     -12.576  10.200  70.696  0.00  0.00    -0.073 C 
ATOM     96  H24 non d ame     -12.129  10.582  69.779  0.00  0.00     0.028 H 
ATOM     97  H25 non d ame     -13.337   9.460  70.449  0.00  0.00     0.028 H 
ATOM     98  H26 non d ame     -13.034  11.022  71.248  0.00  0.00     0.028 H 
ENDBRANCH  93  95
BRANCH  93  99
ATOM     99  C19 non d ame     -11.979   8.233  72.199  0.00  0.00    -0.073 C 
ATOM    100  H27 non d ame     -11.337   7.955  73.036  0.00  0.00     0.028 H 
ATOM    101  H28 non d ame     -13.000   8.375  72.555  0.00  0.00     0.028 H 
ATOM    102  H29 non d ame     -11.963   7.442  71.450  0.00  0.00     0.028 H 
ENDBRANCH  93  99
ENDBRANCH  90  93
ENDBRANCH   1  90
TORSDOF 26
ENDMDL
MODEL 17
REMARK VINA RESULT:      -5.9      2.051      5.916
REMARK  26 active torsions:
REMARK  status: ('A' for Active; 'I' for Inactive)
REMARK    1  A    between atoms: C2_2  and  C3_3 
REMARK    2  A    between atoms: C4_6  and  C5_7 
REMARK       I    between atoms: C5_7  and  N2_9 
REMARK    3  A    between atoms: N2_9  and  C6_10 
REMARK    4  A    between atoms: C6_10  and  C7_11 
REMARK    5  A    between atoms: C6_10  and  C8_13 
REMARK       I    between atoms: C7_11  and  N3_14 
REMARK    6  A    between atoms: N3_14  and  C9_15 
REMARK    7  A    between atoms: C9_15  and  C10_16 
REMARK    8  A    between atoms: C9_15  and  C11_18 
REMARK       I    between atoms: C10_16  and  N4_21 
REMARK    9  A    between atoms: C11_18  and  C12_19 
REMARK   10  A    between atoms: C11_18  and  C13_20 
REMARK   11  A    between atoms: N4_21  and  C14_22 
REMARK   12  A    between atoms: C14_22  and  C15_23 
REMARK   13  A    between atoms: C14_22  and  C16_25 
REMARK       I    between atoms: C15_23  and  N6_40 
REMARK   14  A    between atoms: C16_25  and  C17_26 
REMARK   15  A    between atoms: C17_26  and  C18_27 
REMARK   16  A    between atoms: C17_26  and  C19_28 
REMARK   17  A    between atoms: C20_29  and  C21_30 
REMARK   18  A    between atoms: C20_29  and  C24_33 
REMARK   19  A    between atoms: C20_29  and  N6_40 
REMARK   20  A    between atoms: C21_30  and  C22_31 
REMARK   21  A    between atoms: C22_31  and  C23_32 
REMARK   22  A    between atoms: C23_32  and  O8_43 
REMARK   23  A    between atoms: C24_33  and  C25_34 
REMARK   24  A    between atoms: C28_38  and  O6_39 
REMARK   25  A    between atoms: C29_42  and  O8_43 
REMARK   26  A    between atoms: C29_42  and  C35_49 
ROOT
ATOM      1  C14 non d ame      -6.852   9.201  65.374  0.00  0.00     0.089 C 
ATOM      2  H20 non d ame      -5.834   8.965  65.685  0.00  0.00     0.087 H 
ENDROOT
BRANCH   1   3
ATOM      3  N4  non d ame      -7.583   7.946  65.276  0.00  0.00    -0.346 N 
ATOM      4  C10 non d ame      -6.840   6.637  65.186  0.00  0.00     0.241 C 
ATOM      5  O4  non d ame      -5.653   6.619  65.193  0.00  0.00    -0.271 OA
ATOM      6  H19 non d ame      -8.592   7.984  65.270  0.00  0.00     0.163 HD
BRANCH   4   7
ATOM      7  C9  non d ame      -7.612   5.348  65.091  0.00  0.00     0.092 C 
ATOM      8  H11 non d ame      -6.916   4.523  64.943  0.00  0.00     0.088 H 
BRANCH   7   9
ATOM      9  N3  non d ame      -8.313   5.102  66.355  0.00  0.00    -0.346 N 
ATOM     10  C7  non d ame      -7.813   4.109  67.274  0.00  0.00     0.240 C 
ATOM     11  O3  non d ame      -6.850   3.498  67.012  0.00  0.00    -0.271 OA
ATOM     12  H10 non d ame      -9.146   5.620  66.594  0.00  0.00     0.163 HD
BRANCH  10  13
ATOM     13  C6  non d ame      -8.565   3.850  68.617  0.00  0.00     0.086 C 
ATOM     14  H6  non d ame      -7.893   3.799  69.473  0.00  0.00     0.086 H 
BRANCH  13  15
ATOM     15  N2  non d ame      -9.476   4.955  68.868  0.00  0.00    -0.343 N 
ATOM     16  C5  non d ame      -9.710   5.397  70.244  0.00  0.00     0.273 C 
ATOM     17  O2  non d ame      -9.164   4.856  71.142  0.00  0.00    -0.266 OA
ATOM     18  H5  non d ame      -9.940   5.409  68.095  0.00  0.00     0.163 HD
BRANCH  16  19
ATOM     19  C4  non d ame     -10.669   6.565  70.524  0.00  0.00     0.154 A 
ATOM     20  C1  non d ame     -10.396   7.962  70.380  0.00  0.00    -0.017 A 
ATOM     21  C2  non d ame     -11.594   8.608  70.760  0.00  0.00     0.077 A 
ATOM     22  H1  non d ame      -9.471   8.435  70.050  0.00  0.00     0.091 H 
ATOM     23  O1  non d ame     -12.449   7.681  71.081  0.00  0.00    -0.218 OA
ATOM     24  N1  non d ame     -11.932   6.481  70.952  0.00  0.00    -0.123 NA
BRANCH  21  25
ATOM     25  C3  non d ame     -11.838  10.111  70.786  0.00  0.00    -0.029 C 
ATOM     26  H2  non d ame     -12.880  10.305  71.042  0.00  0.00     0.036 H 
ATOM     27  H3  non d ame     -11.189  10.571  71.531  0.00  0.00     0.036 H 
ATOM     28  H4  non d ame     -11.621  10.532  69.804  0.00  0.00     0.036 H 
ENDBRANCH  21  25
ENDBRANCH  16  19
ENDBRANCH  13  15
BRANCH  13  29
ATOM     29  C8  non d ame      -9.334   2.557  68.524  0.00  0.00    -0.049 C 
ATOM     30  H7  non d ame      -9.264   2.023  69.471  0.00  0.00     0.030 H 
ATOM     31  H8  non d ame     -10.380   2.772  68.305  0.00  0.00     0.030 H 
ATOM     32  H9  non d ame      -8.915   1.941  67.728  0.00  0.00     0.030 H 
ENDBRANCH  13  29
ENDBRANCH  10  13
ENDBRANCH   7   9
BRANCH   7  33
ATOM     33  C11 non d ame      -8.652   5.450  63.936  0.00  0.00    -0.033 C 
ATOM     34  H12 non d ame      -9.182   6.395  64.055  0.00  0.00     0.042 H 
BRANCH  33  35
ATOM     35  C12 non d ame      -7.952   5.477  62.542  0.00  0.00    -0.071 C 
ATOM     36  H13 non d ame      -7.370   4.564  62.410  0.00  0.00     0.028 H 
ATOM     37  H14 non d ame      -8.707   5.541  61.758  0.00  0.00     0.028 H 
ATOM     38  H15 non d ame      -7.292   6.341  62.483  0.00  0.00     0.028 H 
ENDBRANCH  33  35
BRANCH  33  39
ATOM     39  C13 non d ame      -9.700   4.294  64.023  0.00  0.00    -0.071 C 
ATOM     40  H16 non d ame      -9.856   4.023  65.066  0.00  0.00     0.028 H 
ATOM     41  H17 non d ame     -10.643   4.626  63.589  0.00  0.00     0.028 H 
ATOM     42  H18 non d ame      -9.331   3.429  63.473  0.00  0.00     0.028 H 
ENDBRANCH  33  39
ENDBRANCH   7  33
ENDBRANCH   4   7
ENDBRANCH   1   3
BRANCH   1  43
ATOM     43  C15 non d ame      -7.580  10.119  66.397  0.00  0.00     0.240 C 
ATOM     44  O5  non d ame      -8.150   9.638  67.323  0.00  0.00    -0.271 OA
ATOM     45  N6  non d ame      -7.560  11.600  66.228  0.00  0.00    -0.355 N 
ATOM     46  H46 non d ame      -7.075  12.021  65.449  0.00  0.00     0.162 HD
BRANCH  45  47
ATOM     47  C20 non d ame      -8.256  12.460  67.210  0.00  0.00     0.013 C 
ATOM     48  H30 non d ame      -8.625  11.821  68.013  0.00  0.00     0.072 H 
BRANCH  47  49
ATOM     49  C21 non d ame      -9.413  13.158  66.532  0.00  0.00    -0.038 C 
ATOM     50  H31 non d ame      -9.371  14.194  66.869  0.00  0.00     0.036 H 
ATOM     51  H32 non d ame      -9.316  12.925  65.471  0.00  0.00     0.036 H 
BRANCH  49  52
ATOM     52  C22 non d ame     -10.786  12.610  66.976  0.00  0.00     0.018 C 
ATOM     53  H33 non d ame     -11.125  11.968  66.162  0.00  0.00     0.048 H 
ATOM     54  H34 non d ame     -10.630  12.192  67.971  0.00  0.00     0.048 H 
BRANCH  52  55
ATOM     55  C23 non d ame     -11.875  13.706  67.138  0.00  0.00     0.259 C 
ATOM     56  O7  non d ame     -12.560  14.017  66.217  0.00  0.00    -0.265 OA
BRANCH  55  57
ATOM     57  O8  non d ame     -12.039  14.346  68.398  0.00  0.00    -0.317 OA
BRANCH  57  58
ATOM     58  C29 non d ame     -12.032  13.448  69.511  0.00  0.00     0.052 C 
ATOM     59  H47 non d ame     -12.874  12.774  69.352  0.00  0.00     0.082 H 
ATOM     60  H48 non d ame     -11.019  13.050  69.564  0.00  0.00     0.082 H 
BRANCH  58  61
ATOM     61  C35 non d ame     -12.301  14.276  70.796  0.00  0.00    -0.034 A 
ATOM     62  C30 non d ame     -13.110  13.758  71.802  0.00  0.00    -0.075 A 
ATOM     63  C31 non d ame     -13.352  14.502  72.956  0.00  0.00    -0.082 A 
ATOM     64  H49 non d ame     -13.553  12.768  71.687  0.00  0.00     0.084 H 
ATOM     65  C32 non d ame     -12.784  15.770  73.100  0.00  0.00    -0.083 A 
ATOM     66  H50 non d ame     -13.984  14.092  73.744  0.00  0.00     0.083 H 
ATOM     67  C33 non d ame     -11.981  16.285  72.092  0.00  0.00    -0.082 A 
ATOM     68  H51 non d ame     -12.968  16.359  73.999  0.00  0.00     0.083 H 
ATOM     69  C34 non d ame     -11.735  15.544  70.938  0.00  0.00    -0.075 A 
ATOM     70  H52 non d ame     -11.541  17.276  72.206  0.00  0.00     0.083 H 
ATOM     71  H53 non d ame     -11.102  15.955  70.151  0.00  0.00     0.084 H 
ENDBRANCH  58  61
ENDBRANCH  57  58
ENDBRANCH  55  57
ENDBRANCH  52  55
ENDBRANCH  49  52
ENDBRANCH  47  49
BRANCH  47  72
ATOM     72  C24 non d ame      -7.286  13.501  67.764  0.00  0.00    -0.039 C 
ATOM     73  H35 non d ame      -6.972  13.118  68.736  0.00  0.00     0.036 H 
ATOM     74  H36 non d ame      -6.548  13.658  66.977  0.00  0.00     0.036 H 
BRANCH  72  75
ATOM     75  C25 non d ame      -8.009  14.907  68.022  0.00  0.00    -0.001 C 
ATOM     76  C26 non d ame      -7.384  16.051  67.019  0.00  0.00    -0.035 C 
ATOM     77  C27 non d ame      -7.025  17.128  67.757  0.00  0.00     0.085 C 
ATOM     78  H38 non d ame      -6.441  15.704  66.598  0.00  0.00     0.036 H 
ATOM     79  H39 non d ame      -8.164  16.439  66.363  0.00  0.00     0.036 H 
ATOM     80  N5  non d ame      -7.043  16.699  69.204  0.00  0.00    -0.049 N 
ATOM     81  H40 non d ame      -5.998  17.352  67.465  0.00  0.00     0.075 H 
ATOM     82  H41 non d ame      -7.810  17.866  67.595  0.00  0.00     0.075 H 
ATOM     83  C28 non d ame      -7.847  15.299  69.242  0.00  0.00     0.193 C 
ATOM     84  H42 non d ame      -6.083  16.526  69.463  0.00  0.00     0.280 HD
ATOM     85  H43 non d ame      -7.584  17.393  69.701  0.00  0.00     0.280 HD
ATOM     86  H44 non d ame      -8.875  15.261  69.601  0.00  0.00     0.129 H 
ATOM     87  H37 non d ame      -9.095  14.813  68.052  0.00  0.00     0.046 H 
BRANCH  83  88
ATOM     88  O6  non d ame      -7.132  14.342  70.025  0.00  0.00    -0.369 OA
ATOM     89  H45 non d ame      -7.626  14.152  70.826  0.00  0.00     0.212 HD
ENDBRANCH  83  88
ENDBRANCH  72  75
ENDBRANCH  47  72
ENDBRANCH  45  47
ENDBRANCH   1  43
BRANCH   1  90
ATOM     90  C16 non d ame      -6.831   9.871  64.010  0.00  0.00    -0.035 C 
ATOM     91  H21 non d ame      -6.913  10.940  64.212  0.00  0.00     0.037 H 
ATOM     92  H22 non d ame      -5.947   9.478  63.509  0.00  0.00     0.037 H 
BRANCH  90  93
ATOM     93  C17 non d ame      -8.052   9.498  63.110  0.00  0.00    -0.059 C 
ATOM     94  H23 non d ame      -8.460   8.557  63.479  0.00  0.00     0.038 H 
BRANCH  93  95
ATOM     95  C18 non d ame      -9.187  10.570  63.182  0.00  0.00    -0.073 C 
ATOM     96  H24 non d ame      -9.648  10.676  62.200  0.00  0.00     0.028 H 
ATOM     97  H25 non d ame      -9.939  10.254  63.905  0.00  0.00     0.028 H 
ATOM     98  H26 non d ame      -8.764  11.526  63.490  0.00  0.00     0.028 H 
ENDBRANCH  93  95
BRANCH  93  99
ATOM     99  C19 non d ame      -7.612   9.266  61.662  0.00  0.00    -0.073 C 
ATOM    100  H27 non d ame      -7.149   8.283  61.575  0.00  0.00     0.028 H 
ATOM    101  H28 non d ame      -8.482   9.317  61.006  0.00  0.00     0.028 H 
ATOM    102  H29 non d ame      -6.894  10.034  61.373  0.00  0.00     0.028 H 
ENDBRANCH  93  99
ENDBRANCH  90  93
ENDBRANCH   1  90
TORSDOF 26
ENDMDL
MODEL 18
REMARK VINA RESULT:      -5.8      2.838      6.690
REMARK  26 active torsions:
REMARK  status: ('A' for Active; 'I' for Inactive)
REMARK    1  A    between atoms: C2_2  and  C3_3 
REMARK    2  A    between atoms: C4_6  and  C5_7 
REMARK       I    between atoms: C5_7  and  N2_9 
REMARK    3  A    between atoms: N2_9  and  C6_10 
REMARK    4  A    between atoms: C6_10  and  C7_11 
REMARK    5  A    between atoms: C6_10  and  C8_13 
REMARK       I    between atoms: C7_11  and  N3_14 
REMARK    6  A    between atoms: N3_14  and  C9_15 
REMARK    7  A    between atoms: C9_15  and  C10_16 
REMARK    8  A    between atoms: C9_15  and  C11_18 
REMARK       I    between atoms: C10_16  and  N4_21 
REMARK    9  A    between atoms: C11_18  and  C12_19 
REMARK   10  A    between atoms: C11_18  and  C13_20 
REMARK   11  A    between atoms: N4_21  and  C14_22 
REMARK   12  A    between atoms: C14_22  and  C15_23 
REMARK   13  A    between atoms: C14_22  and  C16_25 
REMARK       I    between atoms: C15_23  and  N6_40 
REMARK   14  A    between atoms: C16_25  and  C17_26 
REMARK   15  A    between atoms: C17_26  and  C18_27 
REMARK   16  A    between atoms: C17_26  and  C19_28 
REMARK   17  A    between atoms: C20_29  and  C21_30 
REMARK   18  A    between atoms: C20_29  and  C24_33 
REMARK   19  A    between atoms: C20_29  and  N6_40 
REMARK   20  A    between atoms: C21_30  and  C22_31 
REMARK   21  A    between atoms: C22_31  and  C23_32 
REMARK   22  A    between atoms: C23_32  and  O8_43 
REMARK   23  A    between atoms: C24_33  and  C25_34 
REMARK   24  A    between atoms: C28_38  and  O6_39 
REMARK   25  A    between atoms: C29_42  and  O8_43 
REMARK   26  A    between atoms: C29_42  and  C35_49 
ROOT
ATOM      1  C14 non d ame      -7.817   8.990  64.242  0.00  0.00     0.089 C 
ATOM      2  H20 non d ame      -7.496   9.283  63.242  0.00  0.00     0.087 H 
ENDROOT
BRANCH   1   3
ATOM      3  N4  non d ame      -6.686   9.180  65.138  0.00  0.00    -0.346 N 
ATOM      4  C10 non d ame      -5.342   9.590  64.591  0.00  0.00     0.241 C 
ATOM      5  O4  non d ame      -5.194   9.760  63.426  0.00  0.00    -0.271 OA
ATOM      6  H19 non d ame      -6.832   9.028  66.126  0.00  0.00     0.163 HD
BRANCH   4   7
ATOM      7  C9  non d ame      -4.183   9.787  65.534  0.00  0.00     0.092 C 
ATOM      8  H11 non d ame      -3.443  10.434  65.062  0.00  0.00     0.088 H 
BRANCH   7   9
ATOM      9  N3  non d ame      -4.648  10.471  66.744  0.00  0.00    -0.346 N 
ATOM     10  C7  non d ame      -4.291  11.850  66.975  0.00  0.00     0.240 C 
ATOM     11  O3  non d ame      -3.629  12.423  66.198  0.00  0.00    -0.271 OA
ATOM     12  H10 non d ame      -5.219   9.989  67.424  0.00  0.00     0.163 HD
BRANCH  10  13
ATOM     13  C6  non d ame      -4.787  12.571  68.267  0.00  0.00     0.086 C 
ATOM     14  H6  non d ame      -4.021  13.203  68.716  0.00  0.00     0.086 H 
BRANCH  13  15
ATOM     15  N2  non d ame      -5.897  13.444  67.923  0.00  0.00    -0.343 N 
ATOM     16  C5  non d ame      -5.828  14.867  68.261  0.00  0.00     0.273 C 
ATOM     17  O2  non d ame      -4.876  15.299  68.813  0.00  0.00    -0.266 OA
ATOM     18  H5  non d ame      -6.708  13.065  67.454  0.00  0.00     0.163 HD
BRANCH  16  19
ATOM     19  C4  non d ame      -6.993  15.801  67.902  0.00  0.00     0.154 A 
ATOM     20  C1  non d ame      -7.851  16.502  68.809  0.00  0.00    -0.017 A 
ATOM     21  C2  non d ame      -8.748  17.215  67.983  0.00  0.00     0.077 A 
ATOM     22  H1  non d ame      -7.827  16.493  69.899  0.00  0.00     0.091 H 
ATOM     23  O1  non d ame      -8.433  16.950  66.749  0.00  0.00    -0.218 OA
ATOM     24  N1  non d ame      -7.412  16.127  66.676  0.00  0.00    -0.123 NA
BRANCH  21  25
ATOM     25  C3  non d ame      -9.875  18.127  68.451  0.00  0.00    -0.029 C 
ATOM     26  H2  non d ame     -10.756  17.964  67.831  0.00  0.00     0.036 H 
ATOM     27  H3  non d ame     -10.115  17.902  69.491  0.00  0.00     0.036 H 
ATOM     28  H4  non d ame      -9.559  19.167  68.369  0.00  0.00     0.036 H 
ENDBRANCH  21  25
ENDBRANCH  16  19
ENDBRANCH  13  15
BRANCH  13  29
ATOM     29  C8  non d ame      -5.230  11.546  69.280  0.00  0.00    -0.049 C 
ATOM     30  H7  non d ame      -5.285  10.567  68.805  0.00  0.00     0.030 H 
ATOM     31  H8  non d ame      -4.513  11.513  70.100  0.00  0.00     0.030 H 
ATOM     32  H9  non d ame      -6.212  11.818  69.665  0.00  0.00     0.030 H 
ENDBRANCH  13  29
ENDBRANCH  10  13
ENDBRANCH   7   9
BRANCH   7  33
ATOM     33  C11 non d ame      -3.588   8.402  65.920  0.00  0.00    -0.033 C 
ATOM     34  H12 non d ame      -2.504   8.473  65.829  0.00  0.00     0.042 H 
BRANCH  33  35
ATOM     35  C12 non d ame      -3.911   8.038  67.403  0.00  0.00    -0.071 C 
ATOM     36  H13 non d ame      -4.188   6.986  67.467  0.00  0.00     0.028 H 
ATOM     37  H14 non d ame      -3.032   8.220  68.021  0.00  0.00     0.028 H 
ATOM     38  H15 non d ame      -4.738   8.654  67.756  0.00  0.00     0.028 H 
ENDBRANCH  33  35
BRANCH  33  39
ATOM     39  C13 non d ame      -4.084   7.288  64.943  0.00  0.00    -0.071 C 
ATOM     40  H16 non d ame      -3.253   6.954  64.322  0.00  0.00     0.028 H 
ATOM     41  H17 non d ame      -4.469   6.445  65.518  0.00  0.00     0.028 H 
ATOM     42  H18 non d ame      -4.875   7.687  64.309  0.00  0.00     0.028 H 
ENDBRANCH  33  39
ENDBRANCH   7  33
ENDBRANCH   4   7
ENDBRANCH   1   3
BRANCH   1  43
ATOM     43  C15 non d ame      -9.004   9.855  64.754  0.00  0.00     0.240 C 
ATOM     44  O5  non d ame      -9.943  10.045  64.051  0.00  0.00    -0.271 OA
ATOM     45  N6  non d ame      -8.975  10.438  66.125  0.00  0.00    -0.355 N 
ATOM     46  H46 non d ame      -8.185  10.279  66.734  0.00  0.00     0.162 HD
BRANCH  45  47
ATOM     47  C20 non d ame     -10.113  11.257  66.598  0.00  0.00     0.013 C 
ATOM     48  H30 non d ame     -10.724  11.513  65.733  0.00  0.00     0.072 H 
BRANCH  47  49
ATOM     49  C21 non d ame      -9.586  12.515  67.250  0.00  0.00    -0.038 C 
ATOM     50  H31 non d ame      -9.892  12.456  68.295  0.00  0.00     0.036 H 
ATOM     51  H32 non d ame      -8.527  12.558  66.994  0.00  0.00     0.036 H 
BRANCH  49  52
ATOM     52  C22 non d ame     -10.226  13.799  66.679  0.00  0.00     0.018 C 
ATOM     53  H33 non d ame      -9.652  14.626  67.097  0.00  0.00     0.048 H 
ATOM     54  H34 non d ame     -10.266  13.654  65.599  0.00  0.00     0.048 H 
BRANCH  52  55
ATOM     55  C23 non d ame     -11.695  14.023  67.135  0.00  0.00     0.259 C 
ATOM     56  O7  non d ame     -12.553  14.210  66.334  0.00  0.00    -0.265 OA
BRANCH  55  57
ATOM     57  O8  non d ame     -12.002  14.014  68.523  0.00  0.00    -0.317 OA
BRANCH  57  58
ATOM     58  C29 non d ame     -11.956  15.304  69.138  0.00  0.00     0.052 C 
ATOM     59  H47 non d ame     -10.916  15.625  69.072  0.00  0.00     0.082 H 
ATOM     60  H48 non d ame     -12.738  15.890  68.656  0.00  0.00     0.082 H 
BRANCH  58  61
ATOM     61  C35 non d ame     -12.322  15.135  70.637  0.00  0.00    -0.034 A 
ATOM     62  C30 non d ame     -13.118  14.069  71.043  0.00  0.00    -0.075 A 
ATOM     63  C31 non d ame     -13.448  13.916  72.389  0.00  0.00    -0.082 A 
ATOM     64  H49 non d ame     -13.484  13.353  70.307  0.00  0.00     0.084 H 
ATOM     65  C32 non d ame     -12.980  14.837  73.330  0.00  0.00    -0.083 A 
ATOM     66  H50 non d ame     -14.070  13.079  72.704  0.00  0.00     0.083 H 
ATOM     67  C33 non d ame     -12.188  15.901  72.920  0.00  0.00    -0.082 A 
ATOM     68  H51 non d ame     -13.232  14.724  74.385  0.00  0.00     0.083 H 
ATOM     69  C34 non d ame     -11.854  16.056  71.576  0.00  0.00    -0.075 A 
ATOM     70  H52 non d ame     -11.826  16.618  73.657  0.00  0.00     0.083 H 
ATOM     71  H53 non d ame     -11.231  16.893  71.262  0.00  0.00     0.084 H 
ENDBRANCH  58  61
ENDBRANCH  57  58
ENDBRANCH  55  57
ENDBRANCH  52  55
ENDBRANCH  49  52
ENDBRANCH  47  49
BRANCH  47  72
ATOM     72  C24 non d ame     -10.934  10.463  67.612  0.00  0.00    -0.039 C 
ATOM     73  H35 non d ame     -11.958  10.819  67.498  0.00  0.00     0.036 H 
ATOM     74  H36 non d ame     -10.698   9.416  67.420  0.00  0.00     0.036 H 
BRANCH  72  75
ATOM     75  C25 non d ame     -10.487  10.781  69.117  0.00  0.00    -0.001 C 
ATOM     76  C26 non d ame      -9.464   9.611  69.656  0.00  0.00    -0.035 C 
ATOM     77  C27 non d ame      -9.916   9.152  70.848  0.00  0.00     0.085 C 
ATOM     78  H38 non d ame      -9.522   8.737  69.008  0.00  0.00     0.036 H 
ATOM     79  H39 non d ame      -8.495  10.046  69.901  0.00  0.00     0.036 H 
ATOM     80  N5  non d ame     -11.326   9.668  71.014  0.00  0.00    -0.049 N 
ATOM     81  H40 non d ame      -9.944   8.066  70.750  0.00  0.00     0.075 H 
ATOM     82  H41 non d ame      -9.278   9.616  71.599  0.00  0.00     0.075 H 
ATOM     83  C28 non d ame     -11.507  10.829  69.907  0.00  0.00     0.193 C 
ATOM     84  H42 non d ame     -11.940   8.901  70.779  0.00  0.00     0.280 HD
ATOM     85  H43 non d ame     -11.370  10.088  71.931  0.00  0.00     0.280 HD
ATOM     86  H44 non d ame     -11.482  11.880  70.198  0.00  0.00     0.129 H 
ATOM     87  H37 non d ame     -10.167  11.815  69.242  0.00  0.00     0.046 H 
BRANCH  83  88
ATOM     88  O6  non d ame     -12.740  10.655  69.207  0.00  0.00    -0.369 OA
ATOM     89  H45 non d ame     -12.822   9.741  68.926  0.00  0.00     0.212 HD
ENDBRANCH  83  88
ENDBRANCH  72  75
ENDBRANCH  47  72
ENDBRANCH  45  47
ENDBRANCH   1  43
BRANCH   1  90
ATOM     90  C16 non d ame      -8.213   7.523  64.247  0.00  0.00    -0.035 C 
ATOM     91  H21 non d ame      -9.303   7.518  64.225  0.00  0.00     0.037 H 
ATOM     92  H22 non d ame      -7.650   7.069  63.431  0.00  0.00     0.037 H 
BRANCH  90  93
ATOM     93  C17 non d ame      -7.795   6.765  65.547  0.00  0.00    -0.059 C 
ATOM     94  H23 non d ame      -7.017   7.351  66.035  0.00  0.00     0.038 H 
BRANCH  93  95
ATOM     95  C18 non d ame      -8.983   6.619  66.552  0.00  0.00    -0.073 C 
ATOM     96  H24 non d ame      -8.679   6.994  67.529  0.00  0.00     0.028 H 
ATOM     97  H25 non d ame      -9.836   7.193  66.191  0.00  0.00     0.028 H 
ATOM     98  H26 non d ame      -9.260   5.568  66.635  0.00  0.00     0.028 H 
ENDBRANCH  93  95
BRANCH  93  99
ATOM     99  C19 non d ame      -7.193   5.398  65.213  0.00  0.00    -0.073 C 
ATOM    100  H27 non d ame      -7.994   4.692  64.989  0.00  0.00     0.028 H 
ATOM    101  H28 non d ame      -6.538   5.491  64.346  0.00  0.00     0.028 H 
ATOM    102  H29 non d ame      -6.617   5.036  66.065  0.00  0.00     0.028 H 
ENDBRANCH  93  99
ENDBRANCH  90  93
ENDBRANCH   1  90
TORSDOF 26
ENDMDL
MODEL 19
REMARK VINA RESULT:      -5.8      2.577      9.848
REMARK  26 active torsions:
REMARK  status: ('A' for Active; 'I' for Inactive)
REMARK    1  A    between atoms: C2_2  and  C3_3 
REMARK    2  A    between atoms: C4_6  and  C5_7 
REMARK       I    between atoms: C5_7  and  N2_9 
REMARK    3  A    between atoms: N2_9  and  C6_10 
REMARK    4  A    between atoms: C6_10  and  C7_11 
REMARK    5  A    between atoms: C6_10  and  C8_13 
REMARK       I    between atoms: C7_11  and  N3_14 
REMARK    6  A    between atoms: N3_14  and  C9_15 
REMARK    7  A    between atoms: C9_15  and  C10_16 
REMARK    8  A    between atoms: C9_15  and  C11_18 
REMARK       I    between atoms: C10_16  and  N4_21 
REMARK    9  A    between atoms: C11_18  and  C12_19 
REMARK   10  A    between atoms: C11_18  and  C13_20 
REMARK   11  A    between atoms: N4_21  and  C14_22 
REMARK   12  A    between atoms: C14_22  and  C15_23 
REMARK   13  A    between atoms: C14_22  and  C16_25 
REMARK       I    between atoms: C15_23  and  N6_40 
REMARK   14  A    between atoms: C16_25  and  C17_26 
REMARK   15  A    between atoms: C17_26  and  C18_27 
REMARK   16  A    between atoms: C17_26  and  C19_28 
REMARK   17  A    between atoms: C20_29  and  C21_30 
REMARK   18  A    between atoms: C20_29  and  C24_33 
REMARK   19  A    between atoms: C20_29  and  N6_40 
REMARK   20  A    between atoms: C21_30  and  C22_31 
REMARK   21  A    between atoms: C22_31  and  C23_32 
REMARK   22  A    between atoms: C23_32  and  O8_43 
REMARK   23  A    between atoms: C24_33  and  C25_34 
REMARK   24  A    between atoms: C28_38  and  O6_39 
REMARK   25  A    between atoms: C29_42  and  O8_43 
REMARK   26  A    between atoms: C29_42  and  C35_49 
ROOT
ATOM      1  C14 non d ame      -8.035   9.714  66.983  0.00  0.00     0.089 C 
ATOM      2  H20 non d ame      -8.033   9.198  66.022  0.00  0.00     0.087 H 
ENDROOT
BRANCH   1   3
ATOM      3  N4  non d ame      -9.217  10.563  67.021  0.00  0.00    -0.346 N 
ATOM      4  C10 non d ame      -9.802  11.111  65.745  0.00  0.00     0.241 C 
ATOM      5  O4  non d ame      -9.303  10.859  64.698  0.00  0.00    -0.271 OA
ATOM      6  H19 non d ame      -9.625  10.768  67.922  0.00  0.00     0.163 HD
BRANCH   4   7
ATOM      7  C9  non d ame     -11.029  11.983  65.803  0.00  0.00     0.092 C 
ATOM      8  H11 non d ame     -11.898  11.365  66.030  0.00  0.00     0.088 H 
BRANCH   7   9
ATOM      9  N3  non d ame     -10.889  12.952  66.894  0.00  0.00    -0.346 N 
ATOM     10  C7  non d ame     -11.437  12.656  68.195  0.00  0.00     0.240 C 
ATOM     11  O3  non d ame     -11.994  11.644  68.381  0.00  0.00    -0.271 OA
ATOM     12  H10 non d ame     -10.412  13.831  66.748  0.00  0.00     0.163 HD
BRANCH  10  13
ATOM     13  C6  non d ame     -11.287  13.693  69.351  0.00  0.00     0.086 C 
ATOM     14  H6  non d ame     -10.385  13.538  69.942  0.00  0.00     0.086 H 
BRANCH  13  15
ATOM     15  N2  non d ame     -11.187  15.025  68.780  0.00  0.00    -0.343 N 
ATOM     16  C5  non d ame      -9.962  15.804  68.976  0.00  0.00     0.273 C 
ATOM     17  O2  non d ame      -9.064  15.350  69.596  0.00  0.00    -0.266 OA
ATOM     18  H5  non d ame     -11.961  15.406  68.253  0.00  0.00     0.163 HD
BRANCH  16  19
ATOM     19  C4  non d ame      -9.842  17.214  68.376  0.00  0.00     0.154 A 
ATOM     20  C1  non d ame      -8.638  17.931  68.089  0.00  0.00    -0.017 A 
ATOM     21  C2  non d ame      -9.069  19.166  67.554  0.00  0.00     0.077 A 
ATOM     22  H1  non d ame      -7.609  17.606  68.244  0.00  0.00     0.091 H 
ATOM     23  O1  non d ame     -10.370  19.148  67.539  0.00  0.00    -0.218 OA
ATOM     24  N1  non d ame     -10.844  18.020  68.014  0.00  0.00    -0.123 NA
BRANCH  21  25
ATOM     25  C3  non d ame      -8.176  20.305  67.082  0.00  0.00    -0.029 C 
ATOM     26  H2  non d ame      -8.705  20.897  66.334  0.00  0.00     0.036 H 
ATOM     27  H3  non d ame      -7.917  20.939  67.930  0.00  0.00     0.036 H 
ATOM     28  H4  non d ame      -7.265  19.896  66.644  0.00  0.00     0.036 H 
ENDBRANCH  21  25
ENDBRANCH  16  19
ENDBRANCH  13  15
BRANCH  13  29
ATOM     29  C8  non d ame     -12.486  13.610  70.262  0.00  0.00    -0.049 C 
ATOM     30  H7  non d ame     -12.630  14.568  70.762  0.00  0.00     0.030 H 
ATOM     31  H8  non d ame     -13.372  13.369  69.675  0.00  0.00     0.030 H 
ATOM     32  H9  non d ame     -12.321  12.833  71.008  0.00  0.00     0.030 H 
ENDBRANCH  13  29
ENDBRANCH  10  13
ENDBRANCH   7   9
BRANCH   7  33
ATOM     33  C11 non d ame     -11.188  12.745  64.454  0.00  0.00    -0.033 C 
ATOM     34  H12 non d ame     -10.267  12.608  63.888  0.00  0.00     0.042 H 
BRANCH  33  35
ATOM     35  C12 non d ame     -12.354  12.153  63.601  0.00  0.00    -0.071 C 
ATOM     36  H13 non d ame     -12.824  11.334  64.147  0.00  0.00     0.028 H 
ATOM     37  H14 non d ame     -13.092  12.930  63.407  0.00  0.00     0.028 H 
ATOM     38  H15 non d ame     -11.960  11.781  62.656  0.00  0.00     0.028 H 
ENDBRANCH  33  35
BRANCH  33  39
ATOM     39  C13 non d ame     -11.384  14.276  64.696  0.00  0.00    -0.071 C 
ATOM     40  H16 non d ame     -11.268  14.494  65.757  0.00  0.00     0.028 H 
ATOM     41  H17 non d ame     -10.638  14.832  64.127  0.00  0.00     0.028 H 
ATOM     42  H18 non d ame     -12.382  14.570  64.371  0.00  0.00     0.028 H 
ENDBRANCH  33  39
ENDBRANCH   7  33
ENDBRANCH   4   7
ENDBRANCH   1   3
BRANCH   1  43
ATOM     43  C15 non d ame      -8.096   8.725  68.182  0.00  0.00     0.240 C 
ATOM     44  O5  non d ame      -7.091   8.275  68.628  0.00  0.00    -0.271 OA
ATOM     45  N6  non d ame      -9.408   8.346  68.779  0.00  0.00    -0.355 N 
ATOM     46  H46 non d ame     -10.268   8.725  68.411  0.00  0.00     0.162 HD
BRANCH  45  47
ATOM     47  C20 non d ame      -9.450   7.405  69.919  0.00  0.00     0.013 C 
ATOM     48  H30 non d ame      -8.647   7.674  70.605  0.00  0.00     0.072 H 
BRANCH  47  49
ATOM     49  C21 non d ame      -9.245   5.995  69.412  0.00  0.00    -0.038 C 
ATOM     50  H31 non d ame      -8.491   6.071  68.628  0.00  0.00     0.036 H 
ATOM     51  H32 non d ame      -9.053   5.389  70.298  0.00  0.00     0.036 H 
BRANCH  49  52
ATOM     52  C22 non d ame     -10.509   5.409  68.747  0.00  0.00     0.018 C 
ATOM     53  H33 non d ame     -10.529   4.355  69.028  0.00  0.00     0.048 H 
ATOM     54  H34 non d ame     -11.329   6.066  69.039  0.00  0.00     0.048 H 
BRANCH  52  55
ATOM     55  C23 non d ame     -10.470   5.437  67.194  0.00  0.00     0.259 C 
ATOM     56  O7  non d ame     -10.973   6.330  66.594  0.00  0.00    -0.265 OA
BRANCH  55  57
ATOM     57  O8  non d ame      -9.836   4.373  66.493  0.00  0.00    -0.317 OA
BRANCH  57  58
ATOM     58  C29 non d ame      -9.847   4.524  65.071  0.00  0.00     0.052 C 
ATOM     59  H47 non d ame      -9.984   3.520  64.669  0.00  0.00     0.082 H 
ATOM     60  H48 non d ame     -10.584   5.299  64.862  0.00  0.00     0.082 H 
BRANCH  58  61
ATOM     61  C35 non d ame      -8.452   5.043  64.633  0.00  0.00    -0.034 A 
ATOM     62  C30 non d ame      -8.259   5.515  63.339  0.00  0.00    -0.075 A 
ATOM     63  C31 non d ame      -7.005   5.981  62.945  0.00  0.00    -0.082 A 
ATOM     64  H49 non d ame      -9.089   5.520  62.633  0.00  0.00     0.084 H 
ATOM     65  C32 non d ame      -5.941   5.971  63.851  0.00  0.00    -0.083 A 
ATOM     66  H50 non d ame      -6.858   6.352  61.931  0.00  0.00     0.083 H 
ATOM     67  C33 non d ame      -6.138   5.497  65.140  0.00  0.00    -0.082 A 
ATOM     68  H51 non d ame      -4.958   6.335  63.551  0.00  0.00     0.083 H 
ATOM     69  C34 non d ame      -7.389   5.032  65.539  0.00  0.00    -0.075 A 
ATOM     70  H52 non d ame      -5.305   5.489  65.844  0.00  0.00     0.083 H 
ATOM     71  H53 non d ame      -7.536   4.662  66.554  0.00  0.00     0.084 H 
ENDBRANCH  58  61
ENDBRANCH  57  58
ENDBRANCH  55  57
ENDBRANCH  52  55
ENDBRANCH  49  52
ENDBRANCH  47  49
BRANCH  47  72
ATOM     72  C24 non d ame     -10.802   7.503  70.621  0.00  0.00    -0.039 C 
ATOM     73  H35 non d ame     -11.414   8.141  69.983  0.00  0.00     0.036 H 
ATOM     74  H36 non d ame     -11.105   6.474  70.813  0.00  0.00     0.036 H 
BRANCH  72  75
ATOM     75  C25 non d ame     -10.681   8.232  72.042  0.00  0.00    -0.001 C 
ATOM     76  C26 non d ame      -9.098   8.401  72.452  0.00  0.00    -0.035 C 
ATOM     77  C27 non d ame      -8.916   7.915  73.703  0.00  0.00     0.085 C 
ATOM     78  H38 non d ame      -8.480   7.750  71.833  0.00  0.00     0.036 H 
ATOM     79  H39 non d ame      -8.847   9.458  72.551  0.00  0.00     0.036 H 
ATOM     80  N5  non d ame     -10.158   7.134  74.057  0.00  0.00    -0.049 N 
ATOM     81  H40 non d ame      -8.073   7.227  73.629  0.00  0.00     0.075 H 
ATOM     82  H41 non d ame      -8.851   8.790  74.349  0.00  0.00     0.075 H 
ATOM     83  C28 non d ame     -11.273   7.554  72.968  0.00  0.00     0.193 C 
ATOM     84  H42 non d ame      -9.931   6.159  73.925  0.00  0.00     0.280 HD
ATOM     85  H43 non d ame     -10.455   7.464  74.965  0.00  0.00     0.280 HD
ATOM     86  H44 non d ame     -12.076   8.241  73.235  0.00  0.00     0.129 H 
ATOM     87  H37 non d ame     -11.307   9.123  72.104  0.00  0.00     0.046 H 
BRANCH  83  88
ATOM     88  O6  non d ame     -11.922   6.390  72.452  0.00  0.00    -0.369 OA
ATOM     89  H45 non d ame     -11.383   6.005  71.758  0.00  0.00     0.212 HD
ENDBRANCH  83  88
ENDBRANCH  72  75
ENDBRANCH  47  72
ENDBRANCH  45  47
ENDBRANCH   1  43
BRANCH   1  90
ATOM     90  C16 non d ame      -6.795  10.585  67.102  0.00  0.00    -0.035 C 
ATOM     91  H21 non d ame      -6.041   9.952  67.570  0.00  0.00     0.037 H 
ATOM     92  H22 non d ame      -6.625  10.984  66.101  0.00  0.00     0.037 H 
BRANCH  90  93
ATOM     93  C17 non d ame      -6.982  11.818  68.042  0.00  0.00    -0.059 C 
ATOM     94  H23 non d ame      -8.049  11.922  68.242  0.00  0.00     0.038 H 
BRANCH  93  95
ATOM     95  C18 non d ame      -6.257  11.629  69.413  0.00  0.00    -0.073 C 
ATOM     96  H24 non d ame      -5.366  12.257  69.442  0.00  0.00     0.028 H 
ATOM     97  H25 non d ame      -6.929  11.915  70.222  0.00  0.00     0.028 H 
ATOM     98  H26 non d ame      -5.970  10.584  69.531  0.00  0.00     0.028 H 
ENDBRANCH  93  95
BRANCH  93  99
ATOM     99  C19 non d ame      -6.521  13.106  67.355  0.00  0.00    -0.073 C 
ATOM    100  H27 non d ame      -6.887  13.120  66.328  0.00  0.00     0.028 H 
ATOM    101  H28 non d ame      -6.917  13.967  67.894  0.00  0.00     0.028 H 
ATOM    102  H29 non d ame      -5.432  13.147  67.354  0.00  0.00     0.028 H 
ENDBRANCH  93  99
ENDBRANCH  90  93
ENDBRANCH   1  90
TORSDOF 26
ENDMDL
MODEL 20
REMARK VINA RESULT:      -5.8      2.262      6.237
REMARK  26 active torsions:
REMARK  status: ('A' for Active; 'I' for Inactive)
REMARK    1  A    between atoms: C2_2  and  C3_3 
REMARK    2  A    between atoms: C4_6  and  C5_7 
REMARK       I    between atoms: C5_7  and  N2_9 
REMARK    3  A    between atoms: N2_9  and  C6_10 
REMARK    4  A    between atoms: C6_10  and  C7_11 
REMARK    5  A    between atoms: C6_10  and  C8_13 
REMARK       I    between atoms: C7_11  and  N3_14 
REMARK    6  A    between atoms: N3_14  and  C9_15 
REMARK    7  A    between atoms: C9_15  and  C10_16 
REMARK    8  A    between atoms: C9_15  and  C11_18 
REMARK       I    between atoms: C10_16  and  N4_21 
REMARK    9  A    between atoms: C11_18  and  C12_19 
REMARK   10  A    between atoms: C11_18  and  C13_20 
REMARK   11  A    between atoms: N4_21  and  C14_22 
REMARK   12  A    between atoms: C14_22  and  C15_23 
REMARK   13  A    between atoms: C14_22  and  C16_25 
REMARK       I    between atoms: C15_23  and  N6_40 
REMARK   14  A    between atoms: C16_25  and  C17_26 
REMARK   15  A    between atoms: C17_26  and  C18_27 
REMARK   16  A    between atoms: C17_26  and  C19_28 
REMARK   17  A    between atoms: C20_29  and  C21_30 
REMARK   18  A    between atoms: C20_29  and  C24_33 
REMARK   19  A    between atoms: C20_29  and  N6_40 
REMARK   20  A    between atoms: C21_30  and  C22_31 
REMARK   21  A    between atoms: C22_31  and  C23_32 
REMARK   22  A    between atoms: C23_32  and  O8_43 
REMARK   23  A    between atoms: C24_33  and  C25_34 
REMARK   24  A    between atoms: C28_38  and  O6_39 
REMARK   25  A    between atoms: C29_42  and  O8_43 
REMARK   26  A    between atoms: C29_42  and  C35_49 
ROOT
ATOM      1  C14 non d ame      -7.652  12.025  67.377  0.00  0.00     0.089 C 
ATOM      2  H20 non d ame      -7.077  11.447  68.101  0.00  0.00     0.087 H 
ENDROOT
BRANCH   1   3
ATOM      3  N4  non d ame      -7.469  11.403  66.074  0.00  0.00    -0.346 N 
ATOM      4  C10 non d ame      -7.327   9.907  65.958  0.00  0.00     0.241 C 
ATOM      5  O4  non d ame      -7.360   9.223  66.928  0.00  0.00    -0.271 OA
ATOM      6  H19 non d ame      -7.442  12.003  65.261  0.00  0.00     0.163 HD
BRANCH   4   7
ATOM      7  C9  non d ame      -7.144   9.279  64.601  0.00  0.00     0.092 C 
ATOM      8  H11 non d ame      -6.081   9.128  64.416  0.00  0.00     0.088 H 
BRANCH   7   9
ATOM      9  N3  non d ame      -7.779   7.958  64.583  0.00  0.00    -0.346 N 
ATOM     10  C7  non d ame      -7.057   6.819  64.071  0.00  0.00     0.240 C 
ATOM     11  O3  non d ame      -5.966   6.948  63.668  0.00  0.00    -0.271 OA
ATOM     12  H10 non d ame      -8.721   7.832  64.926  0.00  0.00     0.163 HD
BRANCH  10  13
ATOM     13  C6  non d ame      -7.739   5.416  64.052  0.00  0.00     0.086 C 
ATOM     14  H6  non d ame      -7.020   4.597  64.052  0.00  0.00     0.086 H 
BRANCH  13  15
ATOM     15  N2  non d ame      -8.540   5.264  65.256  0.00  0.00    -0.343 N 
ATOM     16  C5  non d ame      -7.902   4.817  66.495  0.00  0.00     0.273 C 
ATOM     17  O2  non d ame      -6.744   4.579  66.514  0.00  0.00    -0.266 OA
ATOM     18  H5  non d ame      -9.530   5.468  65.230  0.00  0.00     0.163 HD
BRANCH  16  19
ATOM     19  C4  non d ame      -8.736   4.654  67.776  0.00  0.00     0.154 A 
ATOM     20  C1  non d ame      -9.359   5.692  68.540  0.00  0.00    -0.017 A 
ATOM     21  C2  non d ame      -9.997   5.024  69.608  0.00  0.00     0.077 A 
ATOM     22  H1  non d ame      -9.349   6.765  68.348  0.00  0.00     0.091 H 
ATOM     23  O1  non d ame      -9.764   3.752  69.464  0.00  0.00    -0.218 OA
ATOM     24  N1  non d ame      -9.030   3.512  68.402  0.00  0.00    -0.123 NA
BRANCH  21  25
ATOM     25  C3  non d ame     -10.809   5.673  70.721  0.00  0.00    -0.029 C 
ATOM     26  H2  non d ame     -10.135   6.158  71.428  0.00  0.00     0.036 H 
ATOM     27  H3  non d ame     -11.483   6.415  70.293  0.00  0.00     0.036 H 
ATOM     28  H4  non d ame     -11.391   4.910  71.239  0.00  0.00     0.036 H 
ENDBRANCH  21  25
ENDBRANCH  16  19
ENDBRANCH  13  15
BRANCH  13  29
ATOM     29  C8  non d ame      -8.615   5.296  62.831  0.00  0.00    -0.049 C 
ATOM     30  H7  non d ame      -8.809   4.243  62.624  0.00  0.00     0.030 H 
ATOM     31  H8  non d ame      -9.559   5.811  63.008  0.00  0.00     0.030 H 
ATOM     32  H9  non d ame      -8.109   5.746  61.976  0.00  0.00     0.030 H 
ENDBRANCH  13  29
ENDBRANCH  10  13
ENDBRANCH   7   9
BRANCH   7  33
ATOM     33  C11 non d ame      -7.804  10.183  63.518  0.00  0.00    -0.033 C 
ATOM     34  H12 non d ame      -7.582  11.219  63.775  0.00  0.00     0.042 H 
BRANCH  33  35
ATOM     35  C12 non d ame      -7.202   9.910  62.105  0.00  0.00    -0.071 C 
ATOM     36  H13 non d ame      -6.641  10.784  61.774  0.00  0.00     0.028 H 
ATOM     37  H14 non d ame      -6.535   9.049  62.155  0.00  0.00     0.028 H 
ATOM     38  H15 non d ame      -8.008   9.706  61.400  0.00  0.00     0.028 H 
ENDBRANCH  33  35
BRANCH  33  39
ATOM     39  C13 non d ame      -9.357  10.009  63.516  0.00  0.00    -0.071 C 
ATOM     40  H16 non d ame      -9.665   9.506  62.599  0.00  0.00     0.028 H 
ATOM     41  H17 non d ame      -9.658   9.412  64.377  0.00  0.00     0.028 H 
ATOM     42  H18 non d ame      -9.832  10.989  63.570  0.00  0.00     0.028 H 
ENDBRANCH  33  39
ENDBRANCH   7  33
ENDBRANCH   4   7
ENDBRANCH   1   3
BRANCH   1  43
ATOM     43  C15 non d ame      -9.171  12.039  67.711  0.00  0.00     0.240 C 
ATOM     44  O5  non d ame      -9.591  11.348  68.582  0.00  0.00    -0.271 OA
ATOM     45  N6  non d ame     -10.102  12.920  66.950  0.00  0.00    -0.355 N 
ATOM     46  H46 non d ame      -9.757  13.515  66.211  0.00  0.00     0.162 HD
BRANCH  45  47
ATOM     47  C20 non d ame     -11.544  12.922  67.280  0.00  0.00     0.013 C 
ATOM     48  H30 non d ame     -11.739  12.074  67.936  0.00  0.00     0.072 H 
BRANCH  47  49
ATOM     49  C21 non d ame     -12.348  12.787  66.008  0.00  0.00    -0.038 C 
ATOM     50  H31 non d ame     -12.529  11.719  65.885  0.00  0.00     0.036 H 
ATOM     51  H32 non d ame     -13.188  13.474  66.116  0.00  0.00     0.036 H 
BRANCH  49  52
ATOM     52  C22 non d ame     -11.570  13.244  64.755  0.00  0.00     0.018 C 
ATOM     53  H33 non d ame     -10.530  12.971  64.938  0.00  0.00     0.048 H 
ATOM     54  H34 non d ame     -12.103  12.819  63.904  0.00  0.00     0.048 H 
BRANCH  52  55
ATOM     55  C23 non d ame     -11.578  14.783  64.539  0.00  0.00     0.259 C 
ATOM     56  O7  non d ame     -12.471  15.306  63.957  0.00  0.00    -0.265 OA
BRANCH  55  57
ATOM     57  O8  non d ame     -10.496  15.561  65.036  0.00  0.00    -0.317 OA
BRANCH  57  58
ATOM     58  C29 non d ame     -10.857  16.898  65.396  0.00  0.00     0.052 C 
ATOM     59  H47 non d ame     -10.701  17.497  64.500  0.00  0.00     0.082 H 
ATOM     60  H48 non d ame     -11.851  16.826  65.837  0.00  0.00     0.082 H 
BRANCH  58  61
ATOM     61  C35 non d ame      -9.870  17.383  66.491  0.00  0.00    -0.034 A 
ATOM     62  C30 non d ame      -8.589  16.844  66.561  0.00  0.00    -0.075 A 
ATOM     63  C31 non d ame      -7.702  17.279  67.545  0.00  0.00    -0.082 A 
ATOM     64  H49 non d ame      -8.280  16.081  65.846  0.00  0.00     0.084 H 
ATOM     65  C32 non d ame      -8.100  18.256  68.461  0.00  0.00    -0.083 A 
ATOM     66  H50 non d ame      -6.698  16.857  67.596  0.00  0.00     0.083 H 
ATOM     67  C33 non d ame      -9.380  18.788  68.389  0.00  0.00    -0.082 A 
ATOM     68  H51 non d ame      -7.413  18.602  69.233  0.00  0.00     0.083 H 
ATOM     69  C34 non d ame     -10.270  18.357  67.407  0.00  0.00    -0.075 A 
ATOM     70  H52 non d ame      -9.689  19.548  69.107  0.00  0.00     0.083 H 
ATOM     71  H53 non d ame     -11.273  18.781  67.356  0.00  0.00     0.084 H 
ENDBRANCH  58  61
ENDBRANCH  57  58
ENDBRANCH  55  57
ENDBRANCH  52  55
ENDBRANCH  49  52
ENDBRANCH  47  49
BRANCH  47  72
ATOM     72  C24 non d ame     -11.911  14.229  67.980  0.00  0.00    -0.039 C 
ATOM     73  H35 non d ame     -11.303  14.996  67.499  0.00  0.00     0.036 H 
ATOM     74  H36 non d ame     -12.999  14.287  67.933  0.00  0.00     0.036 H 
BRANCH  72  75
ATOM     75  C25 non d ame     -11.505  14.207  69.529  0.00  0.00    -0.001 C 
ATOM     76  C26 non d ame     -12.295  12.986  70.297  0.00  0.00    -0.035 C 
ATOM     77  C27 non d ame     -12.906  13.486  71.398  0.00  0.00     0.085 C 
ATOM     78  H38 non d ame     -13.123  12.632  69.684  0.00  0.00     0.036 H 
ATOM     79  H39 non d ame     -11.576  12.275  70.706  0.00  0.00     0.036 H 
ATOM     80  N5  non d ame     -12.879  14.990  71.273  0.00  0.00    -0.049 N 
ATOM     81  H40 non d ame     -13.940  13.143  71.338  0.00  0.00     0.075 H 
ATOM     82  H41 non d ame     -12.281  13.188  72.239  0.00  0.00     0.075 H 
ATOM     83  C28 non d ame     -11.810  15.320  70.109  0.00  0.00     0.193 C 
ATOM     84  H42 non d ame     -13.797  15.267  70.954  0.00  0.00     0.280 HD
ATOM     85  H43 non d ame     -12.520  15.344  72.148  0.00  0.00     0.280 HD
ATOM     86  H44 non d ame     -10.817  15.692  70.359  0.00  0.00     0.129 H 
ATOM     87  H37 non d ame     -10.427  14.268  69.675  0.00  0.00     0.046 H 
BRANCH  83  88
ATOM     88  O6  non d ame     -12.356  16.272  69.194  0.00  0.00    -0.369 OA
ATOM     89  H45 non d ame     -11.670  16.887  68.926  0.00  0.00     0.212 HD
ENDBRANCH  83  88
ENDBRANCH  72  75
ENDBRANCH  47  72
ENDBRANCH  45  47
ENDBRANCH   1  43
BRANCH   1  90
ATOM     90  C16 non d ame      -7.128  13.451  67.324  0.00  0.00    -0.035 C 
ATOM     91  H21 non d ame      -6.415  13.467  66.499  0.00  0.00     0.037 H 
ATOM     92  H22 non d ame      -8.015  14.084  67.289  0.00  0.00     0.037 H 
BRANCH  90  93
ATOM     93  C17 non d ame      -6.333  13.875  68.600  0.00  0.00    -0.059 C 
ATOM     94  H23 non d ame      -6.972  14.539  69.182  0.00  0.00     0.038 H 
BRANCH  93  95
ATOM     95  C18 non d ame      -5.972  12.651  69.502  0.00  0.00    -0.073 C 
ATOM     96  H24 non d ame      -6.619  12.643  70.379  0.00  0.00     0.028 H 
ATOM     97  H25 non d ame      -6.113  11.729  68.938  0.00  0.00     0.028 H 
ATOM     98  H26 non d ame      -4.931  12.728  69.818  0.00  0.00     0.028 H 
ENDBRANCH  93  95
BRANCH  93  99
ATOM     99  C19 non d ame      -5.077  14.665  68.225  0.00  0.00    -0.073 C 
ATOM    100  H27 non d ame      -4.199  14.175  68.648  0.00  0.00     0.028 H 
ATOM    101  H28 non d ame      -4.983  14.704  67.139  0.00  0.00     0.028 H 
ATOM    102  H29 non d ame      -5.153  15.678  68.619  0.00  0.00     0.028 H 
ENDBRANCH  93  99
ENDBRANCH  90  93
ENDBRANCH   1  90
TORSDOF 26
ENDMDL
