MODEL 1
REMARK VINA RESULT:      -7.1      0.000      0.000
REMARK  26 active torsions:
REMARK  status: ('A' for Active; 'I' for Inactive)
REMARK    1  A    between atoms: C2_2  and  C3_3 
REMARK    2  A    between atoms: C4_6  and  C5_7 
REMARK       I    between atoms: C5_7  and  N2_9 
REMARK    3  A    between atoms: N2_9  and  C6_10 
REMARK    4  A    between atoms: C6_10  and  C7_11 
REMARK    5  A    between atoms: C6_10  and  C8_13 
REMARK       I    between atoms: C7_11  and  N3_14 
REMARK    6  A    between atoms: N3_14  and  C9_15 
REMARK    7  A    between atoms: C9_15  and  C10_16 
REMARK    8  A    between atoms: C9_15  and  C11_18 
REMARK       I    between atoms: C10_16  and  N4_21 
REMARK    9  A    between atoms: C11_18  and  C12_19 
REMARK   10  A    between atoms: C11_18  and  C13_20 
REMARK   11  A    between atoms: N4_21  and  C14_22 
REMARK   12  A    between atoms: C14_22  and  C15_23 
REMARK   13  A    between atoms: C14_22  and  C16_25 
REMARK       I    between atoms: C15_23  and  N6_40 
REMARK   14  A    between atoms: C16_25  and  C17_26 
REMARK   15  A    between atoms: C17_26  and  C18_27 
REMARK   16  A    between atoms: C17_26  and  C19_28 
REMARK   17  A    between atoms: C20_29  and  C21_30 
REMARK   18  A    between atoms: C20_29  and  C24_33 
REMARK   19  A    between atoms: C20_29  and  N6_40 
REMARK   20  A    between atoms: C21_30  and  C22_31 
REMARK   21  A    between atoms: C22_31  and  C23_32 
REMARK   22  A    between atoms: C23_32  and  O8_43 
REMARK   23  A    between atoms: C24_33  and  C25_34 
REMARK   24  A    between atoms: C28_38  and  O6_39 
REMARK   25  A    between atoms: C29_42  and  O8_43 
REMARK   26  A    between atoms: C29_42  and  C35_49 
ROOT
ATOM      1  C14 non d ame     -11.782  14.179  69.769  0.00  0.00     0.089 C 
ATOM      2  H20 non d ame     -12.773  13.746  69.628  0.00  0.00     0.087 H 
ENDROOT
BRANCH   1   3
ATOM      3  N4  non d ame     -10.805  13.129  69.525  0.00  0.00    -0.346 N 
ATOM      4  C10 non d ame     -11.149  11.961  68.634  0.00  0.00     0.241 C 
ATOM      5  O4  non d ame     -12.220  11.887  68.128  0.00  0.00    -0.271 OA
ATOM      6  H19 non d ame      -9.900  13.209  69.967  0.00  0.00     0.163 HD
BRANCH   4   7
ATOM      7  C9  non d ame     -10.124  10.886  68.387  0.00  0.00     0.092 C 
ATOM      8  H11 non d ame      -9.875  10.864  67.326  0.00  0.00     0.088 H 
BRANCH   7   9
ATOM      9  N3  non d ame      -8.892  11.209  69.114  0.00  0.00    -0.346 N 
ATOM     10  C7  non d ame      -7.715  11.620  68.389  0.00  0.00     0.240 C 
ATOM     11  O3  non d ame      -7.740  11.695  67.221  0.00  0.00    -0.271 OA
ATOM     12  H10 non d ame      -8.854  11.147  70.121  0.00  0.00     0.163 HD
BRANCH  10  13
ATOM     13  C6  non d ame      -6.406  11.959  69.168  0.00  0.00     0.086 C 
ATOM     14  H6  non d ame      -5.512  11.871  68.550  0.00  0.00     0.086 H 
BRANCH  13  15
ATOM     15  N2  non d ame      -6.467  13.341  69.614  0.00  0.00    -0.343 N 
ATOM     16  C5  non d ame      -5.246  14.150  69.627  0.00  0.00     0.273 C 
ATOM     17  O2  non d ame      -4.219  13.679  69.279  0.00  0.00    -0.266 OA
ATOM     18  H5  non d ame      -7.349  13.735  69.912  0.00  0.00     0.163 HD
BRANCH  16  19
ATOM     19  C4  non d ame      -5.297  15.613  70.094  0.00  0.00     0.154 A 
ATOM     20  C1  non d ame      -5.801  16.737  69.365  0.00  0.00    -0.017 A 
ATOM     21  C2  non d ame      -5.621  17.840  70.229  0.00  0.00     0.077 A 
ATOM     22  H1  non d ame      -6.231  16.749  68.364  0.00  0.00     0.091 H 
ATOM     23  O1  non d ame      -5.079  17.392  71.323  0.00  0.00    -0.218 OA
ATOM     24  N1  non d ame      -4.879  16.095  71.268  0.00  0.00    -0.123 NA
BRANCH  21  25
ATOM     25  C3  non d ame      -5.995  19.287  69.934  0.00  0.00    -0.029 C 
ATOM     26  H2  non d ame      -5.299  19.954  70.442  0.00  0.00     0.036 H 
ATOM     27  H3  non d ame      -5.947  19.462  68.859  0.00  0.00     0.036 H 
ATOM     28  H4  non d ame      -7.008  19.480  70.288  0.00  0.00     0.036 H 
ENDBRANCH  21  25
ENDBRANCH  16  19
ENDBRANCH  13  15
BRANCH  13  29
ATOM     29  C8  non d ame      -6.271  11.039  70.354  0.00  0.00    -0.049 C 
ATOM     30  H7  non d ame      -5.216  10.826  70.531  0.00  0.00     0.030 H 
ATOM     31  H8  non d ame      -6.698  11.517  71.235  0.00  0.00     0.030 H 
ATOM     32  H9  non d ame      -6.800  10.108  70.153  0.00  0.00     0.030 H 
ENDBRANCH  13  29
ENDBRANCH  10  13
ENDBRANCH   7   9
BRANCH   7  33
ATOM     33  C11 non d ame     -10.675   9.519  68.888  0.00  0.00    -0.033 C 
ATOM     34  H12 non d ame     -11.676   9.397  68.476  0.00  0.00     0.042 H 
BRANCH  33  35
ATOM     35  C12 non d ame      -9.806   8.331  68.368  0.00  0.00    -0.071 C 
ATOM     36  H13 non d ame      -9.475   7.727  69.213  0.00  0.00     0.028 H 
ATOM     37  H14 non d ame     -10.400   7.715  67.693  0.00  0.00     0.028 H 
ATOM     38  H15 non d ame      -8.938   8.721  67.838  0.00  0.00     0.028 H 
ENDBRANCH  33  35
BRANCH  33  39
ATOM     39  C13 non d ame     -10.788   9.498  70.446  0.00  0.00    -0.071 C 
ATOM     40  H16 non d ame     -10.039  10.164  70.874  0.00  0.00     0.028 H 
ATOM     41  H17 non d ame     -11.783   9.833  70.743  0.00  0.00     0.028 H 
ATOM     42  H18 non d ame     -10.623   8.484  70.809  0.00  0.00     0.028 H 
ENDBRANCH  33  39
ENDBRANCH   7  33
ENDBRANCH   4   7
ENDBRANCH   1   3
BRANCH   1  43
ATOM     43  C15 non d ame     -11.508  15.350  68.783  0.00  0.00     0.240 C 
ATOM     44  O5  non d ame     -12.100  16.374  68.902  0.00  0.00    -0.271 OA
ATOM     45  N6  non d ame     -10.501  15.199  67.695  0.00  0.00    -0.355 N 
ATOM     46  H46 non d ame      -9.988  14.335  67.587  0.00  0.00     0.162 HD
BRANCH  45  47
ATOM     47  C20 non d ame     -10.250  16.322  66.766  0.00  0.00     0.013 C 
ATOM     48  H30 non d ame     -10.883  17.156  67.070  0.00  0.00     0.072 H 
BRANCH  47  49
ATOM     49  C21 non d ame     -10.599  15.894  65.359  0.00  0.00    -0.038 C 
ATOM     50  H31 non d ame     -11.649  16.156  65.223  0.00  0.00     0.036 H 
ATOM     51  H32 non d ame      -9.838  16.341  64.718  0.00  0.00     0.036 H 
BRANCH  49  52
ATOM     52  C22 non d ame     -10.500  14.367  65.155  0.00  0.00     0.018 C 
ATOM     53  H33 non d ame     -10.114  14.228  64.144  0.00  0.00     0.048 H 
ATOM     54  H34 non d ame      -9.938  13.991  66.009  0.00  0.00     0.048 H 
BRANCH  52  55
ATOM     55  C23 non d ame     -11.873  13.640  65.192  0.00  0.00     0.259 C 
ATOM     56  O7  non d ame     -12.831  14.182  65.640  0.00  0.00    -0.265 OA
BRANCH  55  57
ATOM     57  O8  non d ame     -11.971  12.310  64.696  0.00  0.00    -0.317 OA
BRANCH  57  58
ATOM     58  C29 non d ame     -11.358  12.119  63.418  0.00  0.00     0.052 C 
ATOM     59  H47 non d ame     -12.112  11.633  62.798  0.00  0.00     0.082 H 
ATOM     60  H48 non d ame     -10.964  13.094  63.131  0.00  0.00     0.082 H 
BRANCH  58  61
ATOM     61  C35 non d ame     -10.166  11.142  63.599  0.00  0.00    -0.034 A 
ATOM     62  C30 non d ame      -9.137  11.116  62.663  0.00  0.00    -0.075 A 
ATOM     63  C31 non d ame      -8.067  10.238  62.826  0.00  0.00    -0.082 A 
ATOM     64  H49 non d ame      -9.169  11.784  61.802  0.00  0.00     0.084 H 
ATOM     65  C32 non d ame      -8.029   9.381  63.930  0.00  0.00    -0.083 A 
ATOM     66  H50 non d ame      -7.261  10.222  62.092  0.00  0.00     0.083 H 
ATOM     67  C33 non d ame      -9.060   9.408  64.859  0.00  0.00    -0.082 A 
ATOM     68  H51 non d ame      -7.196   8.692  64.065  0.00  0.00     0.083 H 
ATOM     69  C34 non d ame     -10.130  10.286  64.701  0.00  0.00    -0.075 A 
ATOM     70  H52 non d ame      -9.028   8.737  65.718  0.00  0.00     0.083 H 
ATOM     71  H53 non d ame     -10.936  10.302  65.437  0.00  0.00     0.084 H 
ENDBRANCH  58  61
ENDBRANCH  57  58
ENDBRANCH  55  57
ENDBRANCH  52  55
ENDBRANCH  49  52
ENDBRANCH  47  49
BRANCH  47  72
ATOM     72  C24 non d ame      -8.778  16.724  66.827  0.00  0.00    -0.039 C 
ATOM     73  H35 non d ame      -8.323  16.051  67.554  0.00  0.00     0.036 H 
ATOM     74  H36 non d ame      -8.434  16.722  65.793  0.00  0.00     0.036 H 
BRANCH  72  75
ATOM     75  C25 non d ame      -8.593  18.215  67.383  0.00  0.00    -0.001 C 
ATOM     76  C26 non d ame     -10.064  18.919  67.597  0.00  0.00    -0.035 C 
ATOM     77  C27 non d ame     -10.067  20.122  66.973  0.00  0.00     0.085 C 
ATOM     78  H38 non d ame     -10.830  18.355  67.066  0.00  0.00     0.036 H 
ATOM     79  H39 non d ame     -10.206  19.176  68.647  0.00  0.00     0.036 H 
ATOM     80  N5  non d ame      -8.851  20.159  66.080  0.00  0.00    -0.049 N 
ATOM     81  H40 non d ame     -10.964  20.126  66.353  0.00  0.00     0.075 H 
ATOM     82  H41 non d ame      -9.949  20.861  67.765  0.00  0.00     0.075 H 
ATOM     83  C28 non d ame      -7.909  18.939  66.561  0.00  0.00     0.193 C 
ATOM     84  H42 non d ame      -9.177  19.964  65.144  0.00  0.00     0.280 HD
ATOM     85  H43 non d ame      -8.376  21.028  66.278  0.00  0.00     0.280 HD
ATOM     86  H44 non d ame      -7.018  19.130  67.160  0.00  0.00     0.129 H 
ATOM     87  H37 non d ame      -7.896  18.261  68.219  0.00  0.00     0.046 H 
BRANCH  83  88
ATOM     88  O6  non d ame      -7.456  18.191  65.432  0.00  0.00    -0.369 OA
ATOM     89  H45 non d ame      -7.181  18.794  64.738  0.00  0.00     0.212 HD
ENDBRANCH  83  88
ENDBRANCH  72  75
ENDBRANCH  47  72
ENDBRANCH  45  47
ENDBRANCH   1  43
BRANCH   1  90
ATOM     90  C16 non d ame     -11.635  14.670  71.200  0.00  0.00    -0.035 C 
ATOM     91  H21 non d ame     -10.895  14.012  71.657  0.00  0.00     0.037 H 
ATOM     92  H22 non d ame     -11.436  15.739  71.120  0.00  0.00     0.037 H 
BRANCH  90  93
ATOM     93  C17 non d ame     -12.937  14.527  72.050  0.00  0.00    -0.059 C 
ATOM     94  H23 non d ame     -13.706  15.142  71.583  0.00  0.00     0.038 H 
BRANCH  93  95
ATOM     95  C18 non d ame     -13.460  13.055  72.083  0.00  0.00    -0.073 C 
ATOM     96  H24 non d ame     -12.775  12.414  71.527  0.00  0.00     0.028 H 
ATOM     97  H25 non d ame     -13.519  12.713  73.117  0.00  0.00     0.028 H 
ATOM     98  H26 non d ame     -14.450  13.011  71.629  0.00  0.00     0.028 H 
ENDBRANCH  93  95
BRANCH  93  99
ATOM     99  C19 non d ame     -12.726  15.061  73.469  0.00  0.00    -0.073 C 
ATOM    100  H27 non d ame     -11.787  15.613  73.514  0.00  0.00     0.028 H 
ATOM    101  H28 non d ame     -13.551  15.725  73.733  0.00  0.00     0.028 H 
ATOM    102  H29 non d ame     -12.692  14.228  74.170  0.00  0.00     0.028 H 
ENDBRANCH  93  99
ENDBRANCH  90  93
ENDBRANCH   1  90
TORSDOF 26
ENDMDL
MODEL 2
REMARK VINA RESULT:      -6.8      3.433      7.384
REMARK  26 active torsions:
REMARK  status: ('A' for Active; 'I' for Inactive)
REMARK    1  A    between atoms: C2_2  and  C3_3 
REMARK    2  A    between atoms: C4_6  and  C5_7 
REMARK       I    between atoms: C5_7  and  N2_9 
REMARK    3  A    between atoms: N2_9  and  C6_10 
REMARK    4  A    between atoms: C6_10  and  C7_11 
REMARK    5  A    between atoms: C6_10  and  C8_13 
REMARK       I    between atoms: C7_11  and  N3_14 
REMARK    6  A    between atoms: N3_14  and  C9_15 
REMARK    7  A    between atoms: C9_15  and  C10_16 
REMARK    8  A    between atoms: C9_15  and  C11_18 
REMARK       I    between atoms: C10_16  and  N4_21 
REMARK    9  A    between atoms: C11_18  and  C12_19 
REMARK   10  A    between atoms: C11_18  and  C13_20 
REMARK   11  A    between atoms: N4_21  and  C14_22 
REMARK   12  A    between atoms: C14_22  and  C15_23 
REMARK   13  A    between atoms: C14_22  and  C16_25 
REMARK       I    between atoms: C15_23  and  N6_40 
REMARK   14  A    between atoms: C16_25  and  C17_26 
REMARK   15  A    between atoms: C17_26  and  C18_27 
REMARK   16  A    between atoms: C17_26  and  C19_28 
REMARK   17  A    between atoms: C20_29  and  C21_30 
REMARK   18  A    between atoms: C20_29  and  C24_33 
REMARK   19  A    between atoms: C20_29  and  N6_40 
REMARK   20  A    between atoms: C21_30  and  C22_31 
REMARK   21  A    between atoms: C22_31  and  C23_32 
REMARK   22  A    between atoms: C23_32  and  O8_43 
REMARK   23  A    between atoms: C24_33  and  C25_34 
REMARK   24  A    between atoms: C28_38  and  O6_39 
REMARK   25  A    between atoms: C29_42  and  O8_43 
REMARK   26  A    between atoms: C29_42  and  C35_49 
ROOT
ATOM      1  C14 non d ame     -11.702  14.569  69.994  0.00  0.00     0.089 C 
ATOM      2  H20 non d ame     -12.726  14.528  69.621  0.00  0.00     0.087 H 
ENDROOT
BRANCH   1   3
ATOM      3  N4  non d ame     -11.212  13.201  70.080  0.00  0.00    -0.346 N 
ATOM      4  C10 non d ame     -11.440  12.238  68.942  0.00  0.00     0.241 C 
ATOM      5  O4  non d ame     -12.024  12.586  67.969  0.00  0.00    -0.271 OA
ATOM      6  H19 non d ame     -10.719  12.924  70.917  0.00  0.00     0.163 HD
BRANCH   4   7
ATOM      7  C9  non d ame     -10.920  10.828  69.044  0.00  0.00     0.092 C 
ATOM      8  H11 non d ame     -10.070  10.808  69.727  0.00  0.00     0.088 H 
BRANCH   7   9
ATOM      9  N3  non d ame     -11.957   9.965  69.619  0.00  0.00    -0.346 N 
ATOM     10  C7  non d ame     -11.751   9.353  70.908  0.00  0.00     0.240 C 
ATOM     11  O3  non d ame     -10.757   9.542  71.496  0.00  0.00    -0.271 OA
ATOM     12  H10 non d ame     -12.819   9.792  69.122  0.00  0.00     0.163 HD
BRANCH  10  13
ATOM     13  C6  non d ame     -12.857   8.433  71.513  0.00  0.00     0.086 C 
ATOM     14  H6  non d ame     -13.434   7.910  70.750  0.00  0.00     0.086 H 
BRANCH  13  15
ATOM     15  N2  non d ame     -12.225   7.410  72.330  0.00  0.00    -0.343 N 
ATOM     16  C5  non d ame     -11.608   6.250  71.683  0.00  0.00     0.273 C 
ATOM     17  O2  non d ame     -11.627   6.148  70.506  0.00  0.00    -0.266 OA
ATOM     18  H5  non d ame     -12.216   7.505  73.335  0.00  0.00     0.163 HD
BRANCH  16  19
ATOM     19  C4  non d ame     -10.934   5.162  72.535  0.00  0.00     0.154 A 
ATOM     20  C1  non d ame      -9.565   4.752  72.487  0.00  0.00    -0.017 A 
ATOM     21  C2  non d ame      -9.457   3.732  73.459  0.00  0.00     0.077 A 
ATOM     22  H1  non d ame      -8.770   5.134  71.846  0.00  0.00     0.091 H 
ATOM     23  O1  non d ame     -10.632   3.584  73.997  0.00  0.00    -0.218 OA
ATOM     24  N1  non d ame     -11.511   4.407  73.474  0.00  0.00    -0.123 NA
BRANCH  21  25
ATOM     25  C3  non d ame      -8.197   2.952  73.813  0.00  0.00    -0.029 C 
ATOM     26  H2  non d ame      -8.194   2.731  74.880  0.00  0.00     0.036 H 
ATOM     27  H3  non d ame      -8.177   2.020  73.248  0.00  0.00     0.036 H 
ATOM     28  H4  non d ame      -7.319   3.547  73.562  0.00  0.00     0.036 H 
ENDBRANCH  21  25
ENDBRANCH  16  19
ENDBRANCH  13  15
BRANCH  13  29
ATOM     29  C8  non d ame     -13.797   9.258  72.354  0.00  0.00    -0.049 C 
ATOM     30  H7  non d ame     -14.172  10.096  71.765  0.00  0.00     0.030 H 
ATOM     31  H8  non d ame     -14.633   8.639  72.679  0.00  0.00     0.030 H 
ATOM     32  H9  non d ame     -13.265   9.638  73.226  0.00  0.00     0.030 H 
ENDBRANCH  13  29
ENDBRANCH  10  13
ENDBRANCH   7   9
BRANCH   7  33
ATOM     33  C11 non d ame     -10.545  10.309  67.626  0.00  0.00    -0.033 C 
ATOM     34  H12 non d ame     -11.270  10.720  66.923  0.00  0.00     0.042 H 
BRANCH  33  35
ATOM     35  C12 non d ame      -9.133  10.814  67.191  0.00  0.00    -0.071 C 
ATOM     36  H13 non d ame      -8.379  10.407  67.865  0.00  0.00     0.028 H 
ATOM     37  H14 non d ame      -8.927  10.483  66.173  0.00  0.00     0.028 H 
ATOM     38  H15 non d ame      -9.109  11.902  67.231  0.00  0.00     0.028 H 
ENDBRANCH  33  35
BRANCH  33  39
ATOM     39  C13 non d ame     -10.635   8.751  67.558  0.00  0.00    -0.071 C 
ATOM     40  H16 non d ame     -11.332   8.461  66.772  0.00  0.00     0.028 H 
ATOM     41  H17 non d ame      -9.649   8.339  67.340  0.00  0.00     0.028 H 
ATOM     42  H18 non d ame     -10.986   8.366  68.515  0.00  0.00     0.028 H 
ENDBRANCH  33  39
ENDBRANCH   7  33
ENDBRANCH   4   7
ENDBRANCH   1   3
BRANCH   1  43
ATOM     43  C15 non d ame     -10.765  15.374  69.050  0.00  0.00     0.240 C 
ATOM     44  O5  non d ame      -9.737  15.805  69.464  0.00  0.00    -0.271 OA
ATOM     45  N6  non d ame     -11.143  15.600  67.626  0.00  0.00    -0.355 N 
ATOM     46  H46 non d ame     -12.011  15.234  67.261  0.00  0.00     0.162 HD
BRANCH  45  47
ATOM     47  C20 non d ame     -10.240  16.366  66.740  0.00  0.00     0.013 C 
ATOM     48  H30 non d ame      -9.226  16.263  67.125  0.00  0.00     0.072 H 
BRANCH  47  49
ATOM     49  C21 non d ame     -10.650  17.821  66.747  0.00  0.00    -0.038 C 
ATOM     50  H31 non d ame     -11.138  17.994  65.788  0.00  0.00     0.036 H 
ATOM     51  H32 non d ame     -11.203  17.967  67.675  0.00  0.00     0.036 H 
BRANCH  49  52
ATOM     52  C22 non d ame      -9.443  18.783  66.802  0.00  0.00     0.018 C 
ATOM     53  H33 non d ame      -8.624  18.258  66.312  0.00  0.00     0.048 H 
ATOM     54  H34 non d ame      -9.802  19.731  66.399  0.00  0.00     0.048 H 
BRANCH  52  55
ATOM     55  C23 non d ame      -8.953  19.091  68.245  0.00  0.00     0.259 C 
ATOM     56  O7  non d ame      -9.727  19.403  69.091  0.00  0.00    -0.265 OA
BRANCH  55  57
ATOM     57  O8  non d ame      -7.565  19.008  68.541  0.00  0.00    -0.317 OA
BRANCH  57  58
ATOM     58  C29 non d ame      -6.807  18.268  67.580  0.00  0.00     0.052 C 
ATOM     59  H47 non d ame      -7.405  18.270  66.668  0.00  0.00     0.082 H 
ATOM     60  H48 non d ame      -5.813  18.714  67.580  0.00  0.00     0.082 H 
BRANCH  58  61
ATOM     61  C35 non d ame      -6.688  16.806  68.086  0.00  0.00    -0.034 A 
ATOM     62  C30 non d ame      -6.952  15.746  67.224  0.00  0.00    -0.075 A 
ATOM     63  C31 non d ame      -6.846  14.433  67.679  0.00  0.00    -0.082 A 
ATOM     64  H49 non d ame      -7.242  15.945  66.193  0.00  0.00     0.084 H 
ATOM     65  C32 non d ame      -6.476  14.180  69.003  0.00  0.00    -0.083 A 
ATOM     66  H50 non d ame      -7.051  13.604  67.001  0.00  0.00     0.083 H 
ATOM     67  C33 non d ame      -6.217  15.241  69.861  0.00  0.00    -0.082 A 
ATOM     68  H51 non d ame      -6.390  13.157  69.367  0.00  0.00     0.083 H 
ATOM     69  C34 non d ame      -6.320  16.555  69.410  0.00  0.00    -0.075 A 
ATOM     70  H52 non d ame      -5.931  15.041  70.894  0.00  0.00     0.083 H 
ATOM     71  H53 non d ame      -6.114  17.383  70.089  0.00  0.00     0.084 H 
ENDBRANCH  58  61
ENDBRANCH  57  58
ENDBRANCH  55  57
ENDBRANCH  52  55
ENDBRANCH  49  52
ENDBRANCH  47  49
BRANCH  47  72
ATOM     72  C24 non d ame     -10.325  15.818  65.317  0.00  0.00    -0.039 C 
ATOM     73  H35 non d ame     -10.756  16.624  64.722  0.00  0.00     0.036 H 
ATOM     74  H36 non d ame      -9.327  15.447  65.089  0.00  0.00     0.036 H 
BRANCH  72  75
ATOM     75  C25 non d ame     -11.327  14.572  65.221  0.00  0.00    -0.001 C 
ATOM     76  C26 non d ame     -10.492  13.212  64.822  0.00  0.00    -0.035 C 
ATOM     77  C27 non d ame     -11.099  12.622  63.765  0.00  0.00     0.085 C 
ATOM     78  H38 non d ame      -9.508  13.477  64.437  0.00  0.00     0.036 H 
ATOM     79  H39 non d ame     -10.585  12.471  65.616  0.00  0.00     0.036 H 
ATOM     80  N5  non d ame     -12.076  13.625  63.200  0.00  0.00    -0.049 N 
ATOM     81  H40 non d ame     -10.307  12.447  63.035  0.00  0.00     0.075 H 
ATOM     82  H41 non d ame     -11.653  11.781  64.180  0.00  0.00     0.075 H 
ATOM     83  C28 non d ame     -12.236  14.771  64.325  0.00  0.00     0.193 C 
ATOM     84  H42 non d ame     -11.633  14.030  62.388  0.00  0.00     0.280 HD
ATOM     85  H43 non d ame     -12.958  13.142  63.105  0.00  0.00     0.280 HD
ATOM     86  H44 non d ame     -13.127  14.810  64.953  0.00  0.00     0.129 H 
ATOM     87  H37 non d ame     -11.994  14.510  66.081  0.00  0.00     0.046 H 
BRANCH  83  88
ATOM     88  O6  non d ame     -12.131  16.065  63.729  0.00  0.00    -0.369 OA
ATOM     89  H45 non d ame     -11.909  16.711  64.403  0.00  0.00     0.212 HD
ENDBRANCH  83  88
ENDBRANCH  72  75
ENDBRANCH  47  72
ENDBRANCH  45  47
ENDBRANCH   1  43
BRANCH   1  90
ATOM     90  C16 non d ame     -11.685  15.189  71.382  0.00  0.00    -0.035 C 
ATOM     91  H21 non d ame     -10.758  14.844  71.842  0.00  0.00     0.037 H 
ATOM     92  H22 non d ame     -11.850  16.255  71.224  0.00  0.00     0.037 H 
BRANCH  90  93
ATOM     93  C17 non d ame     -12.845  14.695  72.304  0.00  0.00    -0.059 C 
ATOM     94  H23 non d ame     -12.810  13.606  72.325  0.00  0.00     0.038 H 
BRANCH  93  95
ATOM     95  C18 non d ame     -12.689  15.206  73.772  0.00  0.00    -0.073 C 
ATOM     96  H24 non d ame     -12.803  14.369  74.461  0.00  0.00     0.028 H 
ATOM     97  H25 non d ame     -11.702  15.650  73.900  0.00  0.00     0.028 H 
ATOM     98  H26 non d ame     -13.454  15.955  73.980  0.00  0.00     0.028 H 
ENDBRANCH  93  95
BRANCH  93  99
ATOM     99  C19 non d ame     -14.207  15.095  71.730  0.00  0.00    -0.073 C 
ATOM    100  H27 non d ame     -14.418  14.495  70.844  0.00  0.00     0.028 H 
ATOM    101  H28 non d ame     -14.981  14.922  72.479  0.00  0.00     0.028 H 
ATOM    102  H29 non d ame     -14.192  16.150  71.460  0.00  0.00     0.028 H 
ENDBRANCH  93  99
ENDBRANCH  90  93
ENDBRANCH   1  90
TORSDOF 26
ENDMDL
MODEL 3
REMARK VINA RESULT:      -6.7      2.578      7.102
REMARK  26 active torsions:
REMARK  status: ('A' for Active; 'I' for Inactive)
REMARK    1  A    between atoms: C2_2  and  C3_3 
REMARK    2  A    between atoms: C4_6  and  C5_7 
REMARK       I    between atoms: C5_7  and  N2_9 
REMARK    3  A    between atoms: N2_9  and  C6_10 
REMARK    4  A    between atoms: C6_10  and  C7_11 
REMARK    5  A    between atoms: C6_10  and  C8_13 
REMARK       I    between atoms: C7_11  and  N3_14 
REMARK    6  A    between atoms: N3_14  and  C9_15 
REMARK    7  A    between atoms: C9_15  and  C10_16 
REMARK    8  A    between atoms: C9_15  and  C11_18 
REMARK       I    between atoms: C10_16  and  N4_21 
REMARK    9  A    between atoms: C11_18  and  C12_19 
REMARK   10  A    between atoms: C11_18  and  C13_20 
REMARK   11  A    between atoms: N4_21  and  C14_22 
REMARK   12  A    between atoms: C14_22  and  C15_23 
REMARK   13  A    between atoms: C14_22  and  C16_25 
REMARK       I    between atoms: C15_23  and  N6_40 
REMARK   14  A    between atoms: C16_25  and  C17_26 
REMARK   15  A    between atoms: C17_26  and  C18_27 
REMARK   16  A    between atoms: C17_26  and  C19_28 
REMARK   17  A    between atoms: C20_29  and  C21_30 
REMARK   18  A    between atoms: C20_29  and  C24_33 
REMARK   19  A    between atoms: C20_29  and  N6_40 
REMARK   20  A    between atoms: C21_30  and  C22_31 
REMARK   21  A    between atoms: C22_31  and  C23_32 
REMARK   22  A    between atoms: C23_32  and  O8_43 
REMARK   23  A    between atoms: C24_33  and  C25_34 
REMARK   24  A    between atoms: C28_38  and  O6_39 
REMARK   25  A    between atoms: C29_42  and  O8_43 
REMARK   26  A    between atoms: C29_42  and  C35_49 
ROOT
ATOM      1  C14 non d ame     -10.173  10.151  68.627  0.00  0.00     0.089 C 
ATOM      2  H20 non d ame     -10.632   9.219  68.299  0.00  0.00     0.087 H 
ENDROOT
BRANCH   1   3
ATOM      3  N4  non d ame      -9.077  10.445  67.716  0.00  0.00    -0.346 N 
ATOM      4  C10 non d ame      -8.284   9.325  67.091  0.00  0.00     0.241 C 
ATOM      5  O4  non d ame      -8.544   8.194  67.341  0.00  0.00    -0.271 OA
ATOM      6  H19 non d ame      -8.870  11.414  67.519  0.00  0.00     0.163 HD
BRANCH   4   7
ATOM      7  C9  non d ame      -7.157   9.647  66.146  0.00  0.00     0.092 C 
ATOM      8  H11 non d ame      -6.701   8.719  65.802  0.00  0.00     0.088 H 
BRANCH   7   9
ATOM      9  N3  non d ame      -7.691  10.331  64.964  0.00  0.00    -0.346 N 
ATOM     10  C7  non d ame      -8.116   9.564  63.819  0.00  0.00     0.240 C 
ATOM     11  O3  non d ame      -8.035   8.396  63.831  0.00  0.00    -0.271 OA
ATOM     12  H10 non d ame      -7.765  11.338  64.938  0.00  0.00     0.163 HD
BRANCH  10  13
ATOM     13  C6  non d ame      -8.681  10.297  62.563  0.00  0.00     0.086 C 
ATOM     14  H6  non d ame      -9.531   9.780  62.118  0.00  0.00     0.086 H 
BRANCH  13  15
ATOM     15  N2  non d ame      -9.156  11.613  62.959  0.00  0.00    -0.343 N 
ATOM     16  C5  non d ame     -10.341  11.725  63.812  0.00  0.00     0.273 C 
ATOM     17  O2  non d ame     -10.906  10.752  64.172  0.00  0.00    -0.266 OA
ATOM     18  H5  non d ame      -8.668  12.440  62.644  0.00  0.00     0.163 HD
BRANCH  16  19
ATOM     19  C4  non d ame     -10.853  13.109  64.239  0.00  0.00     0.154 A 
ATOM     20  C1  non d ame     -10.120  14.128  64.927  0.00  0.00    -0.017 A 
ATOM     21  C2  non d ame     -11.035  15.193  65.081  0.00  0.00     0.077 A 
ATOM     22  H1  non d ame      -9.084  14.099  65.263  0.00  0.00     0.091 H 
ATOM     23  O1  non d ame     -12.158  14.820  64.540  0.00  0.00    -0.218 OA
ATOM     24  N1  non d ame     -12.077  13.608  64.043  0.00  0.00    -0.123 NA
BRANCH  21  25
ATOM     25  C3  non d ame     -10.757  16.531  65.754  0.00  0.00    -0.029 C 
ATOM     26  H2  non d ame     -10.453  17.260  65.002  0.00  0.00     0.036 H 
ATOM     27  H3  non d ame     -11.660  16.880  66.255  0.00  0.00     0.036 H 
ATOM     28  H4  non d ame      -9.959  16.410  66.487  0.00  0.00     0.036 H 
ENDBRANCH  21  25
ENDBRANCH  16  19
ENDBRANCH  13  15
BRANCH  13  29
ATOM     29  C8  non d ame      -7.595  10.431  61.525  0.00  0.00    -0.049 C 
ATOM     30  H7  non d ame      -6.734   9.832  61.821  0.00  0.00     0.030 H 
ATOM     31  H8  non d ame      -7.968  10.082  60.562  0.00  0.00     0.030 H 
ATOM     32  H9  non d ame      -7.298  11.476  61.443  0.00  0.00     0.030 H 
ENDBRANCH  13  29
ENDBRANCH  10  13
ENDBRANCH   7   9
BRANCH   7  33
ATOM     33  C11 non d ame      -6.131  10.575  66.859  0.00  0.00    -0.033 C 
ATOM     34  H12 non d ame      -6.672  11.452  67.215  0.00  0.00     0.042 H 
BRANCH  33  35
ATOM     35  C12 non d ame      -5.501   9.876  68.104  0.00  0.00    -0.071 C 
ATOM     36  H13 non d ame      -4.419  10.008  68.086  0.00  0.00     0.028 H 
ATOM     37  H14 non d ame      -5.906  10.320  69.013  0.00  0.00     0.028 H 
ATOM     38  H15 non d ame      -5.738   8.813  68.081  0.00  0.00     0.028 H 
ENDBRANCH  33  35
BRANCH  33  39
ATOM     39  C13 non d ame      -5.028  11.060  65.864  0.00  0.00    -0.071 C 
ATOM     40  H16 non d ame      -4.382  11.783  66.361  0.00  0.00     0.028 H 
ATOM     41  H17 non d ame      -4.434  10.206  65.536  0.00  0.00     0.028 H 
ATOM     42  H18 non d ame      -5.500  11.527  64.999  0.00  0.00     0.028 H 
ENDBRANCH  33  39
ENDBRANCH   7  33
ENDBRANCH   4   7
ENDBRANCH   1   3
BRANCH   1  43
ATOM     43  C15 non d ame     -11.174  11.342  68.598  0.00  0.00     0.240 C 
ATOM     44  O5  non d ame     -12.070  11.341  67.817  0.00  0.00    -0.271 OA
ATOM     45  N6  non d ame     -11.021  12.478  69.551  0.00  0.00    -0.355 N 
ATOM     46  H46 non d ame     -10.267  12.487  70.222  0.00  0.00     0.162 HD
BRANCH  45  47
ATOM     47  C20 non d ame     -11.982  13.601  69.512  0.00  0.00     0.013 C 
ATOM     48  H30 non d ame     -12.722  13.383  68.742  0.00  0.00     0.072 H 
BRANCH  47  49
ATOM     49  C21 non d ame     -11.245  14.878  69.173  0.00  0.00    -0.038 C 
ATOM     50  H31 non d ame     -11.208  14.916  68.084  0.00  0.00     0.036 H 
ATOM     51  H32 non d ame     -11.752  15.666  69.729  0.00  0.00     0.036 H 
BRANCH  49  52
ATOM     52  C22 non d ame      -9.780  14.872  69.661  0.00  0.00     0.018 C 
ATOM     53  H33 non d ame      -9.568  15.895  69.973  0.00  0.00     0.048 H 
ATOM     54  H34 non d ame      -9.713  14.057  70.383  0.00  0.00     0.048 H 
BRANCH  52  55
ATOM     55  C23 non d ame      -8.750  14.542  68.545  0.00  0.00     0.259 C 
ATOM     56  O7  non d ame      -8.394  13.422  68.365  0.00  0.00    -0.265 OA
BRANCH  55  57
ATOM     57  O8  non d ame      -8.226  15.596  67.747  0.00  0.00    -0.317 OA
BRANCH  57  58
ATOM     58  C29 non d ame      -7.721  16.701  68.501  0.00  0.00     0.052 C 
ATOM     59  H47 non d ame      -8.034  16.524  69.530  0.00  0.00     0.082 H 
ATOM     60  H48 non d ame      -6.661  16.765  68.258  0.00  0.00     0.082 H 
BRANCH  58  61
ATOM     61  C35 non d ame      -8.420  17.989  67.990  0.00  0.00    -0.034 A 
ATOM     62  C30 non d ame      -7.907  18.671  66.891  0.00  0.00    -0.075 A 
ATOM     63  C31 non d ame      -8.534  19.828  66.432  0.00  0.00    -0.082 A 
ATOM     64  H49 non d ame      -7.013  18.299  66.390  0.00  0.00     0.084 H 
ATOM     65  C32 non d ame      -9.678  20.304  67.078  0.00  0.00    -0.083 A 
ATOM     66  H50 non d ame      -8.131  20.359  65.569  0.00  0.00     0.083 H 
ATOM     67  C33 non d ame     -10.185  19.623  68.176  0.00  0.00    -0.082 A 
ATOM     68  H51 non d ame     -10.176  21.208  66.725  0.00  0.00     0.083 H 
ATOM     69  C34 non d ame      -9.562  18.465  68.637  0.00  0.00    -0.075 A 
ATOM     70  H52 non d ame     -11.076  19.998  68.679  0.00  0.00     0.083 H 
ATOM     71  H53 non d ame      -9.967  17.934  69.499  0.00  0.00     0.084 H 
ENDBRANCH  58  61
ENDBRANCH  57  58
ENDBRANCH  55  57
ENDBRANCH  52  55
ENDBRANCH  49  52
ENDBRANCH  47  49
BRANCH  47  72
ATOM     72  C24 non d ame     -12.660  13.749  70.872  0.00  0.00    -0.039 C 
ATOM     73  H35 non d ame     -13.691  13.430  70.719  0.00  0.00     0.036 H 
ATOM     74  H36 non d ame     -12.022  13.212  71.574  0.00  0.00     0.036 H 
BRANCH  72  75
ATOM     75  C25 non d ame     -12.704  15.278  71.349  0.00  0.00    -0.001 C 
ATOM     76  C26 non d ame     -11.843  15.456  72.739  0.00  0.00    -0.035 C 
ATOM     77  C27 non d ame     -12.615  16.095  73.651  0.00  0.00     0.085 C 
ATOM     78  H38 non d ame     -11.663  14.483  73.194  0.00  0.00     0.036 H 
ATOM     79  H39 non d ame     -11.014  16.146  72.579  0.00  0.00     0.036 H 
ATOM     80  N5  non d ame     -14.029  16.076  73.124  0.00  0.00    -0.049 N 
ATOM     81  H40 non d ame     -12.564  15.485  74.554  0.00  0.00     0.075 H 
ATOM     82  H41 non d ame     -12.255  17.123  73.667  0.00  0.00     0.075 H 
ATOM     83  C28 non d ame     -13.917  15.664  71.567  0.00  0.00     0.193 C 
ATOM     84  H42 non d ame     -14.509  15.338  73.618  0.00  0.00     0.280 HD
ATOM     85  H43 non d ame     -14.368  17.026  73.181  0.00  0.00     0.280 HD
ATOM     86  H44 non d ame     -14.028  16.417  70.786  0.00  0.00     0.129 H 
ATOM     87  H37 non d ame     -12.484  15.971  70.537  0.00  0.00     0.046 H 
BRANCH  83  88
ATOM     88  O6  non d ame     -14.871  14.647  71.256  0.00  0.00    -0.369 OA
ATOM     89  H45 non d ame     -14.864  13.981  71.947  0.00  0.00     0.212 HD
ENDBRANCH  83  88
ENDBRANCH  72  75
ENDBRANCH  47  72
ENDBRANCH  45  47
ENDBRANCH   1  43
BRANCH   1  90
ATOM     90  C16 non d ame      -9.617   9.985  70.033  0.00  0.00    -0.035 C 
ATOM     91  H21 non d ame      -8.588   9.651  69.899  0.00  0.00     0.037 H 
ATOM     92  H22 non d ame      -9.822  10.929  70.538  0.00  0.00     0.037 H 
BRANCH  90  93
ATOM     93  C17 non d ame     -10.336   8.874  70.863  0.00  0.00    -0.059 C 
ATOM     94  H23 non d ame     -10.591   8.063  70.180  0.00  0.00     0.038 H 
BRANCH  93  95
ATOM     95  C18 non d ame      -9.417   8.285  71.980  0.00  0.00    -0.073 C 
ATOM     96  H24 non d ame      -9.480   8.912  72.870  0.00  0.00     0.028 H 
ATOM     97  H25 non d ame      -9.744   7.274  72.224  0.00  0.00     0.028 H 
ATOM     98  H26 non d ame      -8.386   8.259  71.626  0.00  0.00     0.028 H 
ENDBRANCH  93  95
BRANCH  93  99
ATOM     99  C19 non d ame     -11.647   9.397  71.456  0.00  0.00    -0.073 C 
ATOM    100  H27 non d ame     -12.217   8.565  71.870  0.00  0.00     0.028 H 
ATOM    101  H28 non d ame     -11.427  10.116  72.245  0.00  0.00     0.028 H 
ATOM    102  H29 non d ame     -12.231   9.884  70.674  0.00  0.00     0.028 H 
ENDBRANCH  93  99
ENDBRANCH  90  93
ENDBRANCH   1  90
TORSDOF 26
ENDMDL
MODEL 4
REMARK VINA RESULT:      -6.5      3.397      7.844
REMARK  26 active torsions:
REMARK  status: ('A' for Active; 'I' for Inactive)
REMARK    1  A    between atoms: C2_2  and  C3_3 
REMARK    2  A    between atoms: C4_6  and  C5_7 
REMARK       I    between atoms: C5_7  and  N2_9 
REMARK    3  A    between atoms: N2_9  and  C6_10 
REMARK    4  A    between atoms: C6_10  and  C7_11 
REMARK    5  A    between atoms: C6_10  and  C8_13 
REMARK       I    between atoms: C7_11  and  N3_14 
REMARK    6  A    between atoms: N3_14  and  C9_15 
REMARK    7  A    between atoms: C9_15  and  C10_16 
REMARK    8  A    between atoms: C9_15  and  C11_18 
REMARK       I    between atoms: C10_16  and  N4_21 
REMARK    9  A    between atoms: C11_18  and  C12_19 
REMARK   10  A    between atoms: C11_18  and  C13_20 
REMARK   11  A    between atoms: N4_21  and  C14_22 
REMARK   12  A    between atoms: C14_22  and  C15_23 
REMARK   13  A    between atoms: C14_22  and  C16_25 
REMARK       I    between atoms: C15_23  and  N6_40 
REMARK   14  A    between atoms: C16_25  and  C17_26 
REMARK   15  A    between atoms: C17_26  and  C18_27 
REMARK   16  A    between atoms: C17_26  and  C19_28 
REMARK   17  A    between atoms: C20_29  and  C21_30 
REMARK   18  A    between atoms: C20_29  and  C24_33 
REMARK   19  A    between atoms: C20_29  and  N6_40 
REMARK   20  A    between atoms: C21_30  and  C22_31 
REMARK   21  A    between atoms: C22_31  and  C23_32 
REMARK   22  A    between atoms: C23_32  and  O8_43 
REMARK   23  A    between atoms: C24_33  and  C25_34 
REMARK   24  A    between atoms: C28_38  and  O6_39 
REMARK   25  A    between atoms: C29_42  and  O8_43 
REMARK   26  A    between atoms: C29_42  and  C35_49 
ROOT
ATOM      1  C14 non d ame     -11.846  13.766  69.436  0.00  0.00     0.089 C 
ATOM      2  H20 non d ame     -12.846  13.548  69.061  0.00  0.00     0.087 H 
ENDROOT
BRANCH   1   3
ATOM      3  N4  non d ame     -11.170  12.494  69.649  0.00  0.00    -0.346 N 
ATOM      4  C10 non d ame     -11.399  11.343  68.702  0.00  0.00     0.241 C 
ATOM      5  O4  non d ame     -12.133  11.463  67.777  0.00  0.00    -0.271 OA
ATOM      6  H19 non d ame     -10.551  12.412  70.443  0.00  0.00     0.163 HD
BRANCH   4   7
ATOM      7  C9  non d ame     -10.687  10.036  68.934  0.00  0.00     0.092 C 
ATOM      8  H11 non d ame      -9.877  10.190  69.647  0.00  0.00     0.088 H 
BRANCH   7   9
ATOM      9  N3  non d ame     -11.616   9.073  69.534  0.00  0.00    -0.346 N 
ATOM     10  C7  non d ame     -11.980   9.194  70.924  0.00  0.00     0.240 C 
ATOM     11  O3  non d ame     -11.535  10.059  71.575  0.00  0.00    -0.271 OA
ATOM     12  H10 non d ame     -12.007   8.321  68.986  0.00  0.00     0.163 HD
BRANCH  10  13
ATOM     13  C6  non d ame     -12.967   8.165  71.558  0.00  0.00     0.086 C 
ATOM     14  H6  non d ame     -13.477   7.556  70.812  0.00  0.00     0.086 H 
BRANCH  13  15
ATOM     15  N2  non d ame     -12.215   7.249  72.400  0.00  0.00    -0.343 N 
ATOM     16  C5  non d ame     -11.444   6.169  71.781  0.00  0.00     0.273 C 
ATOM     17  O2  non d ame     -11.437   6.044  70.605  0.00  0.00    -0.266 OA
ATOM     18  H5  non d ame     -12.229   7.361  73.404  0.00  0.00     0.163 HD
BRANCH  16  19
ATOM     19  C4  non d ame     -10.643   5.194  72.658  0.00  0.00     0.154 A 
ATOM     20  C1  non d ame     -11.165   4.166  73.507  0.00  0.00    -0.017 A 
ATOM     21  C2  non d ame     -10.028   3.561  74.087  0.00  0.00     0.077 A 
ATOM     22  H1  non d ame     -12.209   3.901  73.677  0.00  0.00     0.091 H 
ATOM     23  O1  non d ame      -8.981   4.175  73.618  0.00  0.00    -0.218 OA
ATOM     24  N1  non d ame      -9.315   5.132  72.783  0.00  0.00    -0.123 NA
BRANCH  21  25
ATOM     25  C3  non d ame     -10.028   2.403  75.076  0.00  0.00    -0.029 C 
ATOM     26  H2  non d ame      -9.253   1.688  74.800  0.00  0.00     0.036 H 
ATOM     27  H3  non d ame      -9.832   2.783  76.079  0.00  0.00     0.036 H 
ATOM     28  H4  non d ame     -11.001   1.910  75.058  0.00  0.00     0.036 H 
ENDBRANCH  21  25
ENDBRANCH  16  19
ENDBRANCH  13  15
BRANCH  13  29
ATOM     29  C8  non d ame     -13.998   8.894  72.381  0.00  0.00    -0.049 C 
ATOM     30  H7  non d ame     -14.774   9.288  71.725  0.00  0.00     0.030 H 
ATOM     31  H8  non d ame     -14.444   8.205  73.098  0.00  0.00     0.030 H 
ATOM     32  H9  non d ame     -13.522   9.717  72.914  0.00  0.00     0.030 H 
ENDBRANCH  13  29
ENDBRANCH  10  13
ENDBRANCH   7   9
BRANCH   7  33
ATOM     33  C11 non d ame     -10.172   9.478  67.575  0.00  0.00    -0.033 C 
ATOM     34  H12 non d ame     -10.935   9.684  66.824  0.00  0.00     0.042 H 
BRANCH  33  35
ATOM     35  C12 non d ame      -8.864  10.198  67.124  0.00  0.00    -0.071 C 
ATOM     36  H13 non d ame      -8.140  10.183  67.939  0.00  0.00     0.028 H 
ATOM     37  H14 non d ame      -8.446   9.684  66.259  0.00  0.00     0.028 H 
ATOM     38  H15 non d ame      -9.091  11.231  66.859  0.00  0.00     0.028 H 
ENDBRANCH  33  35
BRANCH  33  39
ATOM     39  C13 non d ame      -9.970   7.930  67.647  0.00  0.00    -0.071 C 
ATOM     40  H16 non d ame      -9.401   7.679  68.541  0.00  0.00     0.028 H 
ATOM     41  H17 non d ame     -10.943   7.438  67.685  0.00  0.00     0.028 H 
ATOM     42  H18 non d ame      -9.428   7.593  66.763  0.00  0.00     0.028 H 
ENDBRANCH  33  39
ENDBRANCH   7  33
ENDBRANCH   4   7
ENDBRANCH   1   3
BRANCH   1  43
ATOM     43  C15 non d ame     -11.011  14.608  68.429  0.00  0.00     0.240 C 
ATOM     44  O5  non d ame     -11.152  15.787  68.385  0.00  0.00    -0.271 OA
ATOM     45  N6  non d ame     -10.030  13.944  67.524  0.00  0.00    -0.355 N 
ATOM     46  H46 non d ame      -9.898  12.943  67.555  0.00  0.00     0.162 HD
BRANCH  45  47
ATOM     47  C20 non d ame      -9.243  14.758  66.573  0.00  0.00     0.013 C 
ATOM     48  H30 non d ame      -8.430  14.139  66.193  0.00  0.00     0.072 H 
BRANCH  47  49
ATOM     49  C21 non d ame      -8.680  15.963  67.293  0.00  0.00    -0.038 C 
ATOM     50  H31 non d ame      -8.941  16.823  66.676  0.00  0.00     0.036 H 
ATOM     51  H32 non d ame      -9.050  15.893  68.316  0.00  0.00     0.036 H 
BRANCH  49  52
ATOM     52  C22 non d ame      -7.139  15.942  67.383  0.00  0.00     0.018 C 
ATOM     53  H33 non d ame      -6.868  14.902  67.564  0.00  0.00     0.048 H 
ATOM     54  H34 non d ame      -6.784  16.449  66.485  0.00  0.00     0.048 H 
BRANCH  52  55
ATOM     55  C23 non d ame      -6.571  16.748  68.584  0.00  0.00     0.259 C 
ATOM     56  O7  non d ame      -6.636  16.313  69.687  0.00  0.00    -0.265 OA
BRANCH  55  57
ATOM     57  O8  non d ame      -5.981  18.021  68.351  0.00  0.00    -0.317 OA
BRANCH  57  58
ATOM     58  C29 non d ame      -6.688  19.109  68.953  0.00  0.00     0.052 C 
ATOM     59  H47 non d ame      -6.978  18.761  69.944  0.00  0.00     0.082 H 
ATOM     60  H48 non d ame      -6.038  19.978  68.849  0.00  0.00     0.082 H 
BRANCH  58  61
ATOM     61  C35 non d ame      -7.977  19.359  68.124  0.00  0.00    -0.034 A 
ATOM     62  C30 non d ame      -7.889  19.607  66.758  0.00  0.00    -0.075 A 
ATOM     63  C31 non d ame      -9.046  19.832  66.014  0.00  0.00    -0.082 A 
ATOM     64  H49 non d ame      -6.914  19.624  66.271  0.00  0.00     0.084 H 
ATOM     65  C32 non d ame     -10.295  19.811  66.641  0.00  0.00    -0.083 A 
ATOM     66  H50 non d ame      -8.974  20.023  64.943  0.00  0.00     0.083 H 
ATOM     67  C33 non d ame     -10.377  19.567  68.006  0.00  0.00    -0.082 A 
ATOM     68  H51 non d ame     -11.204  19.985  66.067  0.00  0.00     0.083 H 
ATOM     69  C34 non d ame      -9.223  19.339  68.753  0.00  0.00    -0.075 A 
ATOM     70  H52 non d ame     -11.352  19.553  68.493  0.00  0.00     0.083 H 
ATOM     71  H53 non d ame      -9.296  19.147  69.824  0.00  0.00     0.084 H 
ENDBRANCH  58  61
ENDBRANCH  57  58
ENDBRANCH  55  57
ENDBRANCH  52  55
ENDBRANCH  49  52
ENDBRANCH  47  49
BRANCH  47  72
ATOM     72  C24 non d ame     -10.138  15.222  65.426  0.00  0.00    -0.039 C 
ATOM     73  H35 non d ame     -10.560  16.172  65.753  0.00  0.00     0.036 H 
ATOM     74  H36 non d ame      -9.512  15.182  64.534  0.00  0.00     0.036 H 
BRANCH  72  75
ATOM     75  C25 non d ame     -11.364  14.218  65.188  0.00  0.00    -0.001 C 
ATOM     76  C26 non d ame     -10.806  12.780  64.615  0.00  0.00    -0.035 C 
ATOM     77  C27 non d ame     -11.503  12.456  63.499  0.00  0.00     0.085 C 
ATOM     78  H38 non d ame      -9.785  12.893  64.253  0.00  0.00     0.036 H 
ATOM     79  H39 non d ame     -11.053  11.979  65.311  0.00  0.00     0.036 H 
ATOM     80  N5  non d ame     -12.257  13.692  63.074  0.00  0.00    -0.049 N 
ATOM     81  H40 non d ame     -10.752  12.221  62.744  0.00  0.00     0.075 H 
ATOM     82  H41 non d ame     -12.217  11.695  63.813  0.00  0.00     0.075 H 
ATOM     83  C28 non d ame     -12.204  14.700  64.334  0.00  0.00     0.193 C 
ATOM     84  H42 non d ame     -11.733  14.101  62.314  0.00  0.00     0.280 HD
ATOM     85  H43 non d ame     -13.216  13.408  62.931  0.00  0.00     0.280 HD
ATOM     86  H44 non d ame     -13.078  14.835  64.972  0.00  0.00     0.129 H 
ATOM     87  H37 non d ame     -12.040  14.182  66.041  0.00  0.00     0.046 H 
BRANCH  83  88
ATOM     88  O6  non d ame     -11.840  16.012  63.902  0.00  0.00    -0.369 OA
ATOM     89  H45 non d ame     -12.272  16.204  63.066  0.00  0.00     0.212 HD
ENDBRANCH  83  88
ENDBRANCH  72  75
ENDBRANCH  47  72
ENDBRANCH  45  47
ENDBRANCH   1  43
BRANCH   1  90
ATOM     90  C16 non d ame     -11.942  14.504  70.762  0.00  0.00    -0.035 C 
ATOM     91  H21 non d ame     -11.248  13.992  71.429  0.00  0.00     0.037 H 
ATOM     92  H22 non d ame     -11.789  15.555  70.518  0.00  0.00     0.037 H 
BRANCH  90  93
ATOM     93  C17 non d ame     -13.350  14.407  71.431  0.00  0.00    -0.059 C 
ATOM     94  H23 non d ame     -14.097  14.444  70.639  0.00  0.00     0.038 H 
BRANCH  93  95
ATOM     95  C18 non d ame     -13.543  13.063  72.205  0.00  0.00    -0.073 C 
ATOM     96  H24 non d ame     -13.858  12.286  71.509  0.00  0.00     0.028 H 
ATOM     97  H25 non d ame     -12.601  12.774  72.671  0.00  0.00     0.028 H 
ATOM     98  H26 non d ame     -14.305  13.193  72.974  0.00  0.00     0.028 H 
ENDBRANCH  93  95
BRANCH  93  99
ATOM     99  C19 non d ame     -13.602  15.605  72.350  0.00  0.00    -0.073 C 
ATOM    100  H27 non d ame     -13.997  16.436  71.765  0.00  0.00     0.028 H 
ATOM    101  H28 non d ame     -14.324  15.327  73.119  0.00  0.00     0.028 H 
ATOM    102  H29 non d ame     -12.666  15.904  72.822  0.00  0.00     0.028 H 
ENDBRANCH  93  99
ENDBRANCH  90  93
ENDBRANCH   1  90
TORSDOF 26
ENDMDL
MODEL 5
REMARK VINA RESULT:      -6.5      3.592      7.977
REMARK  26 active torsions:
REMARK  status: ('A' for Active; 'I' for Inactive)
REMARK    1  A    between atoms: C2_2  and  C3_3 
REMARK    2  A    between atoms: C4_6  and  C5_7 
REMARK       I    between atoms: C5_7  and  N2_9 
REMARK    3  A    between atoms: N2_9  and  C6_10 
REMARK    4  A    between atoms: C6_10  and  C7_11 
REMARK    5  A    between atoms: C6_10  and  C8_13 
REMARK       I    between atoms: C7_11  and  N3_14 
REMARK    6  A    between atoms: N3_14  and  C9_15 
REMARK    7  A    between atoms: C9_15  and  C10_16 
REMARK    8  A    between atoms: C9_15  and  C11_18 
REMARK       I    between atoms: C10_16  and  N4_21 
REMARK    9  A    between atoms: C11_18  and  C12_19 
REMARK   10  A    between atoms: C11_18  and  C13_20 
REMARK   11  A    between atoms: N4_21  and  C14_22 
REMARK   12  A    between atoms: C14_22  and  C15_23 
REMARK   13  A    between atoms: C14_22  and  C16_25 
REMARK       I    between atoms: C15_23  and  N6_40 
REMARK   14  A    between atoms: C16_25  and  C17_26 
REMARK   15  A    between atoms: C17_26  and  C18_27 
REMARK   16  A    between atoms: C17_26  and  C19_28 
REMARK   17  A    between atoms: C20_29  and  C21_30 
REMARK   18  A    between atoms: C20_29  and  C24_33 
REMARK   19  A    between atoms: C20_29  and  N6_40 
REMARK   20  A    between atoms: C21_30  and  C22_31 
REMARK   21  A    between atoms: C22_31  and  C23_32 
REMARK   22  A    between atoms: C23_32  and  O8_43 
REMARK   23  A    between atoms: C24_33  and  C25_34 
REMARK   24  A    between atoms: C28_38  and  O6_39 
REMARK   25  A    between atoms: C29_42  and  O8_43 
REMARK   26  A    between atoms: C29_42  and  C35_49 
ROOT
ATOM      1  C14 non d ame     -11.722  14.484  70.027  0.00  0.00     0.089 C 
ATOM      2  H20 non d ame     -12.744  14.442  69.650  0.00  0.00     0.087 H 
ENDROOT
BRANCH   1   3
ATOM      3  N4  non d ame     -11.225  13.118  70.097  0.00  0.00    -0.346 N 
ATOM      4  C10 non d ame     -11.443  12.168  68.946  0.00  0.00     0.241 C 
ATOM      5  O4  non d ame     -12.024  12.525  67.975  0.00  0.00    -0.271 OA
ATOM      6  H19 non d ame     -10.735  12.833  70.933  0.00  0.00     0.163 HD
BRANCH   4   7
ATOM      7  C9  non d ame     -10.916  10.760  69.034  0.00  0.00     0.092 C 
ATOM      8  H11 non d ame     -10.060  10.738  69.708  0.00  0.00     0.088 H 
BRANCH   7   9
ATOM      9  N3  non d ame     -11.944   9.888  69.610  0.00  0.00    -0.346 N 
ATOM     10  C7  non d ame     -11.747   9.306  70.914  0.00  0.00     0.240 C 
ATOM     11  O3  non d ame     -10.766   9.527  71.514  0.00  0.00    -0.271 OA
ATOM     12  H10 non d ame     -12.795   9.687  69.104  0.00  0.00     0.163 HD
BRANCH  10  13
ATOM     13  C6  non d ame     -12.844   8.376  71.521  0.00  0.00     0.086 C 
ATOM     14  H6  non d ame     -13.413   7.844  70.760  0.00  0.00     0.086 H 
BRANCH  13  15
ATOM     15  N2  non d ame     -12.202   7.365  72.344  0.00  0.00    -0.343 N 
ATOM     16  C5  non d ame     -11.570   6.209  71.704  0.00  0.00     0.273 C 
ATOM     17  O2  non d ame     -11.587   6.100  70.527  0.00  0.00    -0.266 OA
ATOM     18  H5  non d ame     -12.195   7.464  73.349  0.00  0.00     0.163 HD
BRANCH  16  19
ATOM     19  C4  non d ame     -10.887   5.132  72.562  0.00  0.00     0.154 A 
ATOM     20  C1  non d ame      -9.497   4.790  72.574  0.00  0.00    -0.017 A 
ATOM     21  C2  non d ame      -9.387   3.751  73.525  0.00  0.00     0.077 A 
ATOM     22  H1  non d ame      -8.693   5.227  71.983  0.00  0.00     0.091 H 
ATOM     23  O1  non d ame     -10.579   3.532  73.999  0.00  0.00    -0.218 OA
ATOM     24  N1  non d ame     -11.471   4.325  73.452  0.00  0.00    -0.123 NA
BRANCH  21  25
ATOM     25  C3  non d ame      -8.109   3.024  73.922  0.00  0.00    -0.029 C 
ATOM     26  H2  non d ame      -7.837   2.314  73.140  0.00  0.00     0.036 H 
ATOM     27  H3  non d ame      -7.305   3.748  74.052  0.00  0.00     0.036 H 
ATOM     28  H4  non d ame      -8.271   2.488  74.858  0.00  0.00     0.036 H 
ENDBRANCH  21  25
ENDBRANCH  16  19
ENDBRANCH  13  15
BRANCH  13  29
ATOM     29  C8  non d ame     -13.795   9.195  72.357  0.00  0.00    -0.049 C 
ATOM     30  H7  non d ame     -14.439   8.530  72.931  0.00  0.00     0.030 H 
ATOM     31  H8  non d ame     -13.226   9.829  73.038  0.00  0.00     0.030 H 
ATOM     32  H9  non d ame     -14.406   9.818  71.705  0.00  0.00     0.030 H 
ENDBRANCH  13  29
ENDBRANCH  10  13
ENDBRANCH   7   9
BRANCH   7  33
ATOM     33  C11 non d ame     -10.550  10.254  67.608  0.00  0.00    -0.033 C 
ATOM     34  H12 non d ame     -11.274  10.679  66.912  0.00  0.00     0.042 H 
BRANCH  33  35
ATOM     35  C12 non d ame      -9.135  10.749  67.174  0.00  0.00    -0.071 C 
ATOM     36  H13 non d ame      -9.213  11.756  66.764  0.00  0.00     0.028 H 
ATOM     37  H14 non d ame      -8.474  10.760  68.040  0.00  0.00     0.028 H 
ATOM     38  H15 non d ame      -8.732  10.078  66.416  0.00  0.00     0.028 H 
ENDBRANCH  33  35
BRANCH  33  39
ATOM     39  C13 non d ame     -10.656   8.697  67.522  0.00  0.00    -0.071 C 
ATOM     40  H16 non d ame     -11.567   8.367  68.022  0.00  0.00     0.028 H 
ATOM     41  H17 non d ame     -10.685   8.392  66.476  0.00  0.00     0.028 H 
ATOM     42  H18 non d ame      -9.791   8.247  68.009  0.00  0.00     0.028 H 
ENDBRANCH  33  39
ENDBRANCH   7  33
ENDBRANCH   4   7
ENDBRANCH   1   3
BRANCH   1  43
ATOM     43  C15 non d ame     -10.785  15.305  69.095  0.00  0.00     0.240 C 
ATOM     44  O5  non d ame      -9.770  15.752  69.522  0.00  0.00    -0.271 OA
ATOM     45  N6  non d ame     -11.150  15.527  67.667  0.00  0.00    -0.355 N 
ATOM     46  H46 non d ame     -12.008  15.148  67.291  0.00  0.00     0.162 HD
BRANCH  45  47
ATOM     47  C20 non d ame     -10.248  16.309  66.793  0.00  0.00     0.013 C 
ATOM     48  H30 non d ame      -9.236  16.213  67.185  0.00  0.00     0.072 H 
BRANCH  47  49
ATOM     49  C21 non d ame     -10.673  17.760  66.808  0.00  0.00    -0.038 C 
ATOM     50  H31 non d ame     -11.128  17.944  65.834  0.00  0.00     0.036 H 
ATOM     51  H32 non d ame     -11.260  17.885  67.717  0.00  0.00     0.036 H 
BRANCH  49  52
ATOM     52  C22 non d ame      -9.478  18.732  66.921  0.00  0.00     0.018 C 
ATOM     53  H33 non d ame      -8.631  18.213  66.473  0.00  0.00     0.048 H 
ATOM     54  H34 non d ame      -9.825  19.676  66.498  0.00  0.00     0.048 H 
BRANCH  52  55
ATOM     55  C23 non d ame      -9.063  19.046  68.385  0.00  0.00     0.259 C 
ATOM     56  O7  non d ame      -9.852  19.493  69.154  0.00  0.00    -0.265 OA
BRANCH  55  57
ATOM     57  O8  non d ame      -7.723  18.804  68.796  0.00  0.00    -0.317 OA
BRANCH  57  58
ATOM     58  C29 non d ame      -6.888  18.262  67.770  0.00  0.00     0.052 C 
ATOM     59  H47 non d ame      -6.444  17.362  68.195  0.00  0.00     0.082 H 
ATOM     60  H48 non d ame      -7.518  18.192  66.883  0.00  0.00     0.082 H 
BRANCH  58  61
ATOM     61  C35 non d ame      -5.753  19.282  67.486  0.00  0.00    -0.034 A 
ATOM     62  C30 non d ame      -4.430  18.945  67.754  0.00  0.00    -0.075 A 
ATOM     63  C31 non d ame      -3.411  19.862  67.500  0.00  0.00    -0.082 A 
ATOM     64  H49 non d ame      -4.192  17.963  68.163  0.00  0.00     0.084 H 
ATOM     65  C32 non d ame      -3.719  21.121  66.978  0.00  0.00    -0.083 A 
ATOM     66  H50 non d ame      -2.375  19.594  67.709  0.00  0.00     0.083 H 
ATOM     67  C33 non d ame      -5.041  21.454  66.715  0.00  0.00    -0.082 A 
ATOM     68  H51 non d ame      -2.928  21.843  66.775  0.00  0.00     0.083 H 
ATOM     69  C34 non d ame      -6.063  20.540  66.965  0.00  0.00    -0.075 A 
ATOM     70  H52 non d ame      -5.278  22.438  66.309  0.00  0.00     0.083 H 
ATOM     71  H53 non d ame      -7.098  20.808  66.755  0.00  0.00     0.084 H 
ENDBRANCH  58  61
ENDBRANCH  57  58
ENDBRANCH  55  57
ENDBRANCH  52  55
ENDBRANCH  49  52
ENDBRANCH  47  49
BRANCH  47  72
ATOM     72  C24 non d ame     -10.319  15.771  65.365  0.00  0.00    -0.039 C 
ATOM     73  H35 non d ame     -10.719  16.590  64.767  0.00  0.00     0.036 H 
ATOM     74  H36 non d ame      -9.324  15.378  65.154  0.00  0.00     0.036 H 
BRANCH  72  75
ATOM     75  C25 non d ame     -11.347  14.549  65.242  0.00  0.00    -0.001 C 
ATOM     76  C26 non d ame     -10.536  13.173  64.849  0.00  0.00    -0.035 C 
ATOM     77  C27 non d ame     -11.137  12.604  63.776  0.00  0.00     0.085 C 
ATOM     78  H38 non d ame      -9.540  13.418  64.482  0.00  0.00     0.036 H 
ATOM     79  H39 non d ame     -10.660  12.428  65.635  0.00  0.00     0.036 H 
ATOM     80  N5  non d ame     -12.081  13.633  63.202  0.00  0.00    -0.049 N 
ATOM     81  H40 non d ame     -10.337  12.416  63.059  0.00  0.00     0.075 H 
ATOM     82  H41 non d ame     -11.718  11.773  64.175  0.00  0.00     0.075 H 
ATOM     83  C28 non d ame     -12.235  14.774  64.333  0.00  0.00     0.193 C 
ATOM     84  H42 non d ame     -11.614  14.034  62.401  0.00  0.00     0.280 HD
ATOM     85  H43 non d ame     -12.972  13.171  63.088  0.00  0.00     0.280 HD
ATOM     86  H44 non d ame     -13.135  14.830  64.944  0.00  0.00     0.129 H 
ATOM     87  H37 non d ame     -12.030  14.496  66.090  0.00  0.00     0.046 H 
BRANCH  83  88
ATOM     88  O6  non d ame     -12.090  16.070  63.748  0.00  0.00    -0.369 OA
ATOM     89  H45 non d ame     -11.183  16.190  63.458  0.00  0.00     0.212 HD
ENDBRANCH  83  88
ENDBRANCH  72  75
ENDBRANCH  47  72
ENDBRANCH  45  47
ENDBRANCH   1  43
BRANCH   1  90
ATOM     90  C16 non d ame     -11.712  15.088  71.422  0.00  0.00    -0.035 C 
ATOM     91  H21 non d ame     -11.381  14.285  72.082  0.00  0.00     0.037 H 
ATOM     92  H22 non d ame     -11.122  16.001  71.337  0.00  0.00     0.037 H 
BRANCH  90  93
ATOM     93  C17 non d ame     -13.125  15.520  71.928  0.00  0.00    -0.059 C 
ATOM     94  H23 non d ame     -13.435  16.386  71.343  0.00  0.00     0.038 H 
BRANCH  93  95
ATOM     95  C18 non d ame     -14.193  14.399  71.723  0.00  0.00    -0.073 C 
ATOM     96  H24 non d ame     -14.903  14.418  72.550  0.00  0.00     0.028 H 
ATOM     97  H25 non d ame     -14.722  14.569  70.785  0.00  0.00     0.028 H 
ATOM     98  H26 non d ame     -13.698  13.428  71.690  0.00  0.00     0.028 H 
ENDBRANCH  93  95
BRANCH  93  99
ATOM     99  C19 non d ame     -13.070  15.959  73.394  0.00  0.00    -0.073 C 
ATOM    100  H27 non d ame     -12.352  15.339  73.932  0.00  0.00     0.028 H 
ATOM    101  H28 non d ame     -12.763  17.003  73.449  0.00  0.00     0.028 H 
ATOM    102  H29 non d ame     -14.056  15.846  73.844  0.00  0.00     0.028 H 
ENDBRANCH  93  99
ENDBRANCH  90  93
ENDBRANCH   1  90
TORSDOF 26
ENDMDL
MODEL 6
REMARK VINA RESULT:      -6.4      2.801      8.210
REMARK  26 active torsions:
REMARK  status: ('A' for Active; 'I' for Inactive)
REMARK    1  A    between atoms: C2_2  and  C3_3 
REMARK    2  A    between atoms: C4_6  and  C5_7 
REMARK       I    between atoms: C5_7  and  N2_9 
REMARK    3  A    between atoms: N2_9  and  C6_10 
REMARK    4  A    between atoms: C6_10  and  C7_11 
REMARK    5  A    between atoms: C6_10  and  C8_13 
REMARK       I    between atoms: C7_11  and  N3_14 
REMARK    6  A    between atoms: N3_14  and  C9_15 
REMARK    7  A    between atoms: C9_15  and  C10_16 
REMARK    8  A    between atoms: C9_15  and  C11_18 
REMARK       I    between atoms: C10_16  and  N4_21 
REMARK    9  A    between atoms: C11_18  and  C12_19 
REMARK   10  A    between atoms: C11_18  and  C13_20 
REMARK   11  A    between atoms: N4_21  and  C14_22 
REMARK   12  A    between atoms: C14_22  and  C15_23 
REMARK   13  A    between atoms: C14_22  and  C16_25 
REMARK       I    between atoms: C15_23  and  N6_40 
REMARK   14  A    between atoms: C16_25  and  C17_26 
REMARK   15  A    between atoms: C17_26  and  C18_27 
REMARK   16  A    between atoms: C17_26  and  C19_28 
REMARK   17  A    between atoms: C20_29  and  C21_30 
REMARK   18  A    between atoms: C20_29  and  C24_33 
REMARK   19  A    between atoms: C20_29  and  N6_40 
REMARK   20  A    between atoms: C21_30  and  C22_31 
REMARK   21  A    between atoms: C22_31  and  C23_32 
REMARK   22  A    between atoms: C23_32  and  O8_43 
REMARK   23  A    between atoms: C24_33  and  C25_34 
REMARK   24  A    between atoms: C28_38  and  O6_39 
REMARK   25  A    between atoms: C29_42  and  O8_43 
REMARK   26  A    between atoms: C29_42  and  C35_49 
ROOT
ATOM      1  C14 non d ame      -6.563  15.667  67.772  0.00  0.00     0.089 C 
ATOM      2  H20 non d ame      -5.881  16.122  67.054  0.00  0.00     0.087 H 
ENDROOT
BRANCH   1   3
ATOM      3  N4  non d ame      -7.918  15.871  67.282  0.00  0.00    -0.346 N 
ATOM      4  C10 non d ame      -8.273  17.127  66.526  0.00  0.00     0.241 C 
ATOM      5  O4  non d ame      -7.452  17.960  66.328  0.00  0.00    -0.271 OA
ATOM      6  H19 non d ame      -8.602  15.150  67.463  0.00  0.00     0.163 HD
BRANCH   4   7
ATOM      7  C9  non d ame      -9.679  17.319  66.020  0.00  0.00     0.092 C 
ATOM      8  H11 non d ame      -9.645  17.803  65.044  0.00  0.00     0.088 H 
BRANCH   7   9
ATOM      9  N3  non d ame     -10.314  16.011  65.834  0.00  0.00    -0.346 N 
ATOM     10  C7  non d ame     -11.218  15.800  64.730  0.00  0.00     0.240 C 
ATOM     11  O3  non d ame     -11.446  16.672  63.983  0.00  0.00    -0.271 OA
ATOM     12  H10 non d ame     -10.129  15.250  66.471  0.00  0.00     0.163 HD
BRANCH  10  13
ATOM     13  C6  non d ame     -11.894  14.407  64.538  0.00  0.00     0.086 C 
ATOM     14  H6  non d ame     -12.527  14.364  63.652  0.00  0.00     0.086 H 
BRANCH  13  15
ATOM     15  N2  non d ame     -10.860  13.402  64.359  0.00  0.00    -0.343 N 
ATOM     16  C5  non d ame     -11.173  12.165  63.640  0.00  0.00     0.273 C 
ATOM     17  O2  non d ame     -12.260  11.987  63.212  0.00  0.00    -0.266 OA
ATOM     18  H5  non d ame      -9.934  13.561  64.731  0.00  0.00     0.163 HD
BRANCH  16  19
ATOM     19  C4  non d ame     -10.088  11.094  63.443  0.00  0.00     0.154 A 
ATOM     20  C1  non d ame      -9.000  11.126  62.514  0.00  0.00    -0.017 A 
ATOM     21  C2  non d ame      -8.302   9.917  62.730  0.00  0.00     0.077 A 
ATOM     22  H1  non d ame      -8.755  11.907  61.794  0.00  0.00     0.091 H 
ATOM     23  O1  non d ame      -8.923   9.275  63.675  0.00  0.00    -0.218 OA
ATOM     24  N1  non d ame      -9.969   9.941  64.107  0.00  0.00    -0.123 NA
BRANCH  21  25
ATOM     25  C3  non d ame      -7.052   9.454  61.993  0.00  0.00    -0.029 C 
ATOM     26  H2  non d ame      -7.203   9.560  60.918  0.00  0.00     0.036 H 
ATOM     27  H3  non d ame      -6.202  10.062  62.302  0.00  0.00     0.036 H 
ATOM     28  H4  non d ame      -6.856   8.408  62.231  0.00  0.00     0.036 H 
ENDBRANCH  21  25
ENDBRANCH  16  19
ENDBRANCH  13  15
BRANCH  13  29
ATOM     29  C8  non d ame     -12.729  14.080  65.750  0.00  0.00    -0.049 C 
ATOM     30  H7  non d ame     -13.672  13.634  65.433  0.00  0.00     0.030 H 
ATOM     31  H8  non d ame     -12.189  13.376  66.384  0.00  0.00     0.030 H 
ATOM     32  H9  non d ame     -12.930  14.993  66.310  0.00  0.00     0.030 H 
ENDBRANCH  13  29
ENDBRANCH  10  13
ENDBRANCH   7   9
BRANCH   7  33
ATOM     33  C11 non d ame     -10.494  18.146  67.057  0.00  0.00    -0.033 C 
ATOM     34  H12 non d ame     -11.534  17.827  66.987  0.00  0.00     0.042 H 
BRANCH  33  35
ATOM     35  C12 non d ame     -10.014  17.863  68.514  0.00  0.00    -0.071 C 
ATOM     36  H13 non d ame      -9.007  18.260  68.649  0.00  0.00     0.028 H 
ATOM     37  H14 non d ame     -10.691  18.344  69.220  0.00  0.00     0.028 H 
ATOM     38  H15 non d ame     -10.007  16.788  68.692  0.00  0.00     0.028 H 
ENDBRANCH  33  35
BRANCH  33  39
ATOM     39  C13 non d ame     -10.434  19.672  66.727  0.00  0.00    -0.071 C 
ATOM     40  H16 non d ame     -10.587  20.247  67.639  0.00  0.00     0.028 H 
ATOM     41  H17 non d ame      -9.458  19.914  66.304  0.00  0.00     0.028 H 
ATOM     42  H18 non d ame     -11.213  19.918  66.006  0.00  0.00     0.028 H 
ENDBRANCH  33  39
ENDBRANCH   7  33
ENDBRANCH   4   7
ENDBRANCH   1   3
BRANCH   1  43
ATOM     43  C15 non d ame      -6.318  14.138  67.928  0.00  0.00     0.240 C 
ATOM     44  O5  non d ame      -5.575  13.742  68.767  0.00  0.00    -0.271 OA
ATOM     45  N6  non d ame      -7.015  13.169  67.037  0.00  0.00    -0.355 N 
ATOM     46  H46 non d ame      -7.652  13.494  66.324  0.00  0.00     0.162 HD
BRANCH  45  47
ATOM     47  C20 non d ame      -6.773  11.719  67.199  0.00  0.00     0.013 C 
ATOM     48  H30 non d ame      -6.717  11.505  68.266  0.00  0.00     0.072 H 
BRANCH  47  49
ATOM     49  C21 non d ame      -5.467  11.353  66.530  0.00  0.00    -0.038 C 
ATOM     50  H31 non d ame      -5.700  11.242  65.470  0.00  0.00     0.036 H 
ATOM     51  H32 non d ame      -4.749  12.107  66.854  0.00  0.00     0.036 H 
BRANCH  49  52
ATOM     52  C22 non d ame      -4.913   9.991  67.000  0.00  0.00     0.018 C 
ATOM     53  H33 non d ame      -3.854  10.155  67.200  0.00  0.00     0.048 H 
ATOM     54  H34 non d ame      -5.575   9.665  67.804  0.00  0.00     0.048 H 
BRANCH  52  55
ATOM     55  C23 non d ame      -4.978   8.880  65.916  0.00  0.00     0.259 C 
ATOM     56  O7  non d ame      -4.737   9.132  64.780  0.00  0.00    -0.265 OA
BRANCH  55  57
ATOM     57  O8  non d ame      -5.340   7.557  66.293  0.00  0.00    -0.317 OA
BRANCH  57  58
ATOM     58  C29 non d ame      -5.004   6.562  65.323  0.00  0.00     0.052 C 
ATOM     59  H47 non d ame      -4.415   7.077  64.564  0.00  0.00     0.082 H 
ATOM     60  H48 non d ame      -4.565   5.738  65.886  0.00  0.00     0.082 H 
BRANCH  58  61
ATOM     61  C35 non d ame      -6.321   6.064  64.670  0.00  0.00    -0.034 A 
ATOM     62  C30 non d ame      -6.493   6.154  63.293  0.00  0.00    -0.075 A 
ATOM     63  C31 non d ame      -7.676   5.707  62.706  0.00  0.00    -0.082 A 
ATOM     64  H49 non d ame      -5.700   6.573  62.673  0.00  0.00     0.084 H 
ATOM     65  C32 non d ame      -8.691   5.172  63.503  0.00  0.00    -0.083 A 
ATOM     66  H50 non d ame      -7.807   5.777  61.626  0.00  0.00     0.083 H 
ATOM     67  C33 non d ame      -8.516   5.087  64.878  0.00  0.00    -0.082 A 
ATOM     68  H51 non d ame      -9.619   4.820  63.053  0.00  0.00     0.083 H 
ATOM     69  C34 non d ame      -7.335   5.530  65.468  0.00  0.00    -0.075 A 
ATOM     70  H52 non d ame      -9.311   4.671  65.498  0.00  0.00     0.083 H 
ATOM     71  H53 non d ame      -7.204   5.460  66.549  0.00  0.00     0.084 H 
ENDBRANCH  58  61
ENDBRANCH  57  58
ENDBRANCH  55  57
ENDBRANCH  52  55
ENDBRANCH  49  52
ENDBRANCH  47  49
BRANCH  47  72
ATOM     72  C24 non d ame      -7.913  10.930  66.558  0.00  0.00    -0.039 C 
ATOM     73  H35 non d ame      -8.607  11.679  66.179  0.00  0.00     0.036 H 
ATOM     74  H36 non d ame      -7.433  10.234  65.870  0.00  0.00     0.036 H 
BRANCH  72  75
ATOM     75  C25 non d ame      -8.707  10.053  67.639  0.00  0.00    -0.001 C 
ATOM     76  C26 non d ame      -8.660   8.465  67.216  0.00  0.00    -0.035 C 
ATOM     77  C27 non d ame      -9.922   7.973  67.227  0.00  0.00     0.085 C 
ATOM     78  H38 non d ame      -8.357   8.365  66.174  0.00  0.00     0.036 H 
ATOM     79  H39 non d ame      -8.154   7.886  67.989  0.00  0.00     0.036 H 
ATOM     80  N5  non d ame     -10.857   9.156  67.299  0.00  0.00    -0.049 N 
ATOM     81  H40 non d ame     -10.050   7.477  66.264  0.00  0.00     0.075 H 
ATOM     82  H41 non d ame     -10.003   7.400  68.150  0.00  0.00     0.075 H 
ATOM     83  C28 non d ame      -9.943  10.419  67.720  0.00  0.00     0.193 C 
ATOM     84  H42 non d ame     -11.201   9.307  66.362  0.00  0.00     0.280 HD
ATOM     85  H43 non d ame     -11.504   8.964  68.050  0.00  0.00     0.280 HD
ATOM     86  H44 non d ame      -9.968  10.806  68.739  0.00  0.00     0.129 H 
ATOM     87  H37 non d ame      -8.423  10.302  68.662  0.00  0.00     0.046 H 
BRANCH  83  88
ATOM     88  O6  non d ame     -10.230  11.538  66.880  0.00  0.00    -0.369 OA
ATOM     89  H45 non d ame     -10.853  11.274  66.199  0.00  0.00     0.212 HD
ENDBRANCH  83  88
ENDBRANCH  72  75
ENDBRANCH  47  72
ENDBRANCH  45  47
ENDBRANCH   1  43
BRANCH   1  90
ATOM     90  C16 non d ame      -6.417  16.348  69.123  0.00  0.00    -0.035 C 
ATOM     91  H21 non d ame      -7.405  16.748  69.354  0.00  0.00     0.037 H 
ATOM     92  H22 non d ame      -5.966  15.601  69.777  0.00  0.00     0.037 H 
BRANCH  90  93
ATOM     93  C17 non d ame      -5.441  17.568  69.108  0.00  0.00    -0.059 C 
ATOM     94  H23 non d ame      -5.086  17.694  68.085  0.00  0.00     0.038 H 
BRANCH  93  95
ATOM     95  C18 non d ame      -6.148  18.894  69.534  0.00  0.00    -0.073 C 
ATOM     96  H24 non d ame      -5.846  19.698  68.863  0.00  0.00     0.028 H 
ATOM     97  H25 non d ame      -7.229  18.763  69.481  0.00  0.00     0.028 H 
ATOM     98  H26 non d ame      -5.862  19.146  70.555  0.00  0.00     0.028 H 
ENDBRANCH  93  95
BRANCH  93  99
ATOM     99  C19 non d ame      -4.215  17.298  69.985  0.00  0.00    -0.073 C 
ATOM    100  H27 non d ame      -4.278  16.290  70.397  0.00  0.00     0.028 H 
ATOM    101  H28 non d ame      -3.311  17.388  69.382  0.00  0.00     0.028 H 
ATOM    102  H29 non d ame      -4.183  18.022  70.798  0.00  0.00     0.028 H 
ENDBRANCH  93  99
ENDBRANCH  90  93
ENDBRANCH   1  90
TORSDOF 26
ENDMDL
MODEL 7
REMARK VINA RESULT:      -6.4      2.046      5.843
REMARK  26 active torsions:
REMARK  status: ('A' for Active; 'I' for Inactive)
REMARK    1  A    between atoms: C2_2  and  C3_3 
REMARK    2  A    between atoms: C4_6  and  C5_7 
REMARK       I    between atoms: C5_7  and  N2_9 
REMARK    3  A    between atoms: N2_9  and  C6_10 
REMARK    4  A    between atoms: C6_10  and  C7_11 
REMARK    5  A    between atoms: C6_10  and  C8_13 
REMARK       I    between atoms: C7_11  and  N3_14 
REMARK    6  A    between atoms: N3_14  and  C9_15 
REMARK    7  A    between atoms: C9_15  and  C10_16 
REMARK    8  A    between atoms: C9_15  and  C11_18 
REMARK       I    between atoms: C10_16  and  N4_21 
REMARK    9  A    between atoms: C11_18  and  C12_19 
REMARK   10  A    between atoms: C11_18  and  C13_20 
REMARK   11  A    between atoms: N4_21  and  C14_22 
REMARK   12  A    between atoms: C14_22  and  C15_23 
REMARK   13  A    between atoms: C14_22  and  C16_25 
REMARK       I    between atoms: C15_23  and  N6_40 
REMARK   14  A    between atoms: C16_25  and  C17_26 
REMARK   15  A    between atoms: C17_26  and  C18_27 
REMARK   16  A    between atoms: C17_26  and  C19_28 
REMARK   17  A    between atoms: C20_29  and  C21_30 
REMARK   18  A    between atoms: C20_29  and  C24_33 
REMARK   19  A    between atoms: C20_29  and  N6_40 
REMARK   20  A    between atoms: C21_30  and  C22_31 
REMARK   21  A    between atoms: C22_31  and  C23_32 
REMARK   22  A    between atoms: C23_32  and  O8_43 
REMARK   23  A    between atoms: C24_33  and  C25_34 
REMARK   24  A    between atoms: C28_38  and  O6_39 
REMARK   25  A    between atoms: C29_42  and  O8_43 
REMARK   26  A    between atoms: C29_42  and  C35_49 
ROOT
ATOM      1  C14 non d ame     -11.803  14.891  69.996  0.00  0.00     0.089 C 
ATOM      2  H20 non d ame     -12.819  14.925  69.601  0.00  0.00     0.087 H 
ENDROOT
BRANCH   1   3
ATOM      3  N4  non d ame     -11.442  13.490  70.153  0.00  0.00    -0.346 N 
ATOM      4  C10 non d ame     -11.788  12.489  69.079  0.00  0.00     0.241 C 
ATOM      5  O4  non d ame     -12.361  12.834  68.099  0.00  0.00    -0.271 OA
ATOM      6  H19 non d ame     -10.957  13.215  70.996  0.00  0.00     0.163 HD
BRANCH   4   7
ATOM      7  C9  non d ame     -11.401  11.044  69.256  0.00  0.00     0.092 C 
ATOM      8  H11 non d ame     -11.562  10.513  68.318  0.00  0.00     0.088 H 
BRANCH   7   9
ATOM      9  N3  non d ame      -9.971  10.955  69.564  0.00  0.00    -0.346 N 
ATOM     10  C7  non d ame      -9.023  10.681  68.512  0.00  0.00     0.240 C 
ATOM     11  O3  non d ame      -9.394  10.528  67.413  0.00  0.00    -0.271 OA
ATOM     12  H10 non d ame      -9.636  11.082  70.508  0.00  0.00     0.163 HD
BRANCH  10  13
ATOM     13  C6  non d ame      -7.502  10.584  68.847  0.00  0.00     0.086 C 
ATOM     14  H6  non d ame      -6.904  10.248  68.001  0.00  0.00     0.086 H 
BRANCH  13  15
ATOM     15  N2  non d ame      -7.013  11.905  69.203  0.00  0.00    -0.343 N 
ATOM     16  C5  non d ame      -6.400  12.749  68.174  0.00  0.00     0.273 C 
ATOM     17  O2  non d ame      -6.303  12.354  67.065  0.00  0.00    -0.266 OA
ATOM     18  H5  non d ame      -7.097  12.234  70.155  0.00  0.00     0.163 HD
BRANCH  16  19
ATOM     19  C4  non d ame      -5.879  14.149  68.536  0.00  0.00     0.154 A 
ATOM     20  C1  non d ame      -5.792  14.728  69.841  0.00  0.00    -0.017 A 
ATOM     21  C2  non d ame      -5.252  16.017  69.632  0.00  0.00     0.077 A 
ATOM     22  H1  non d ame      -6.076  14.282  70.795  0.00  0.00     0.091 H 
ATOM     23  O1  non d ame      -5.055  16.151  68.353  0.00  0.00    -0.218 OA
ATOM     24  N1  non d ame      -5.414  15.074  67.692  0.00  0.00    -0.123 NA
BRANCH  21  25
ATOM     25  C3  non d ame      -4.956  17.056  70.705  0.00  0.00    -0.029 C 
ATOM     26  H2  non d ame      -5.170  16.635  71.688  0.00  0.00     0.036 H 
ATOM     27  H3  non d ame      -3.905  17.341  70.654  0.00  0.00     0.036 H 
ATOM     28  H4  non d ame      -5.579  17.935  70.542  0.00  0.00     0.036 H 
ENDBRANCH  21  25
ENDBRANCH  16  19
ENDBRANCH  13  15
BRANCH  13  29
ATOM     29  C8  non d ame      -7.298   9.631  69.997  0.00  0.00    -0.049 C 
ATOM     30  H7  non d ame      -8.232   9.520  70.549  0.00  0.00     0.030 H 
ATOM     31  H8  non d ame      -6.985   8.660  69.613  0.00  0.00     0.030 H 
ATOM     32  H9  non d ame      -6.529  10.023  70.662  0.00  0.00     0.030 H 
ENDBRANCH  13  29
ENDBRANCH  10  13
ENDBRANCH   7   9
BRANCH   7  33
ATOM     33  C11 non d ame     -12.221  10.427  70.426  0.00  0.00    -0.033 C 
ATOM     34  H12 non d ame     -13.059   9.882  69.990  0.00  0.00     0.042 H 
BRANCH  33  35
ATOM     35  C12 non d ame     -11.369   9.403  71.240  0.00  0.00    -0.071 C 
ATOM     36  H13 non d ame     -10.425   9.866  71.529  0.00  0.00     0.028 H 
ATOM     37  H14 non d ame     -11.916   9.105  72.134  0.00  0.00     0.028 H 
ATOM     38  H15 non d ame     -11.170   8.526  70.624  0.00  0.00     0.028 H 
ENDBRANCH  33  35
BRANCH  33  39
ATOM     39  C13 non d ame     -12.801  11.544  71.353  0.00  0.00    -0.071 C 
ATOM     40  H16 non d ame     -13.890  11.503  71.332  0.00  0.00     0.028 H 
ATOM     41  H17 non d ame     -12.451  11.388  72.373  0.00  0.00     0.028 H 
ATOM     42  H18 non d ame     -12.467  12.519  70.998  0.00  0.00     0.028 H 
ENDBRANCH  33  39
ENDBRANCH   7  33
ENDBRANCH   4   7
ENDBRANCH   1   3
BRANCH   1  43
ATOM     43  C15 non d ame     -10.778  15.563  69.039  0.00  0.00     0.240 C 
ATOM     44  O5  non d ame      -9.704  15.871  69.445  0.00  0.00    -0.271 OA
ATOM     45  N6  non d ame     -11.131  15.814  67.612  0.00  0.00    -0.355 N 
ATOM     46  H46 non d ame     -12.038  15.552  67.255  0.00  0.00     0.162 HD
BRANCH  45  47
ATOM     47  C20 non d ame     -10.145  16.452  66.714  0.00  0.00     0.013 C 
ATOM     48  H30 non d ame      -9.163  16.365  67.179  0.00  0.00     0.072 H 
BRANCH  47  49
ATOM     49  C21 non d ame     -10.503  17.910  66.535  0.00  0.00    -0.038 C 
ATOM     50  H31 non d ame     -10.189  18.168  65.523  0.00  0.00     0.036 H 
ATOM     51  H32 non d ame     -11.552  17.992  66.818  0.00  0.00     0.036 H 
BRANCH  49  52
ATOM     52  C22 non d ame      -9.720  18.841  67.485  0.00  0.00     0.018 C 
ATOM     53  H33 non d ame     -10.374  19.694  67.669  0.00  0.00     0.048 H 
ATOM     54  H34 non d ame      -9.399  18.213  68.316  0.00  0.00     0.048 H 
BRANCH  52  55
ATOM     55  C23 non d ame      -8.421  19.424  66.862  0.00  0.00     0.259 C 
ATOM     56  O7  non d ame      -8.117  19.160  65.744  0.00  0.00    -0.265 OA
BRANCH  55  57
ATOM     57  O8  non d ame      -7.589  20.269  67.648  0.00  0.00    -0.317 OA
BRANCH  57  58
ATOM     58  C29 non d ame      -7.120  19.664  68.856  0.00  0.00     0.052 C 
ATOM     59  H47 non d ame      -7.726  20.091  69.655  0.00  0.00     0.082 H 
ATOM     60  H48 non d ame      -7.137  18.590  68.674  0.00  0.00     0.082 H 
BRANCH  58  61
ATOM     61  C35 non d ame      -5.646  20.102  69.070  0.00  0.00    -0.034 A 
ATOM     62  C30 non d ame      -4.691  19.830  68.096  0.00  0.00    -0.075 A 
ATOM     63  C31 non d ame      -3.367  20.223  68.288  0.00  0.00    -0.082 A 
ATOM     64  H49 non d ame      -4.979  19.309  67.183  0.00  0.00     0.084 H 
ATOM     65  C32 non d ame      -3.000  20.888  69.461  0.00  0.00    -0.083 A 
ATOM     66  H50 non d ame      -2.621  20.011  67.522  0.00  0.00     0.083 H 
ATOM     67  C33 non d ame      -3.956  21.155  70.431  0.00  0.00    -0.082 A 
ATOM     68  H51 non d ame      -1.967  21.200  69.619  0.00  0.00     0.083 H 
ATOM     69  C34 non d ame      -5.281  20.765  70.242  0.00  0.00    -0.075 A 
ATOM     70  H52 non d ame      -3.666  21.672  71.346  0.00  0.00     0.083 H 
ATOM     71  H53 non d ame      -6.026  20.979  71.009  0.00  0.00     0.084 H 
ENDBRANCH  58  61
ENDBRANCH  57  58
ENDBRANCH  55  57
ENDBRANCH  52  55
ENDBRANCH  49  52
ENDBRANCH  47  49
BRANCH  47  72
ATOM     72  C24 non d ame     -10.154  15.753  65.356  0.00  0.00    -0.039 C 
ATOM     73  H35 non d ame     -10.410  16.528  64.633  0.00  0.00     0.036 H 
ATOM     74  H36 non d ame      -9.195  15.240  65.288  0.00  0.00     0.036 H 
BRANCH  72  75
ATOM     75  C25 non d ame     -11.297  14.634  65.274  0.00  0.00    -0.001 C 
ATOM     76  C26 non d ame     -10.619  13.162  64.990  0.00  0.00    -0.035 C 
ATOM     77  C27 non d ame     -11.247  12.590  63.935  0.00  0.00     0.085 C 
ATOM     78  H38 non d ame      -9.594  13.284  64.641  0.00  0.00     0.036 H 
ATOM     79  H39 non d ame     -10.838  12.484  65.815  0.00  0.00     0.036 H 
ATOM     80  N5  non d ame     -12.067  13.669  63.270  0.00  0.00    -0.049 N 
ATOM     81  H40 non d ame     -10.452  12.279  63.256  0.00  0.00     0.075 H 
ATOM     82  H41 non d ame     -11.919  11.847  64.364  0.00  0.00     0.075 H 
ATOM     83  C28 non d ame     -12.134  14.889  64.325  0.00  0.00     0.193 C 
ATOM     84  H42 non d ame     -11.541  13.971  62.462  0.00  0.00     0.280 HD
ATOM     85  H43 non d ame     -12.997  13.292  63.155  0.00  0.00     0.280 HD
ATOM     86  H44 non d ame     -13.040  15.072  64.903  0.00  0.00     0.129 H 
ATOM     87  H37 non d ame     -12.003  14.703  66.101  0.00  0.00     0.046 H 
BRANCH  83  88
ATOM     88  O6  non d ame     -11.844  16.124  63.668  0.00  0.00    -0.369 OA
ATOM     89  H45 non d ame     -12.611  16.408  63.166  0.00  0.00     0.212 HD
ENDBRANCH  83  88
ENDBRANCH  72  75
ENDBRANCH  47  72
ENDBRANCH  45  47
ENDBRANCH   1  43
BRANCH   1  90
ATOM     90  C16 non d ame     -11.755  15.570  71.355  0.00  0.00    -0.035 C 
ATOM     91  H21 non d ame     -10.755  15.374  71.741  0.00  0.00     0.037 H 
ATOM     92  H22 non d ame     -12.079  16.596  71.176  0.00  0.00     0.037 H 
BRANCH  90  93
ATOM     93  C17 non d ame     -12.755  14.967  72.393  0.00  0.00    -0.059 C 
ATOM     94  H23 non d ame     -12.728  13.883  72.286  0.00  0.00     0.038 H 
BRANCH  93  95
ATOM     95  C18 non d ame     -12.356  15.311  73.864  0.00  0.00    -0.073 C 
ATOM     96  H24 non d ame     -13.253  15.367  74.479  0.00  0.00     0.028 H 
ATOM     97  H25 non d ame     -11.696  14.535  74.252  0.00  0.00     0.028 H 
ATOM     98  H26 non d ame     -11.839  16.271  73.885  0.00  0.00     0.028 H 
ENDBRANCH  93  95
BRANCH  93  99
ATOM     99  C19 non d ame     -14.188  15.417  72.098  0.00  0.00    -0.073 C 
ATOM    100  H27 non d ame     -14.632  15.834  73.002  0.00  0.00     0.028 H 
ATOM    101  H28 non d ame     -14.176  16.177  71.315  0.00  0.00     0.028 H 
ATOM    102  H29 non d ame     -14.776  14.562  71.764  0.00  0.00     0.028 H 
ENDBRANCH  93  99
ENDBRANCH  90  93
ENDBRANCH   1  90
TORSDOF 26
ENDMDL
MODEL 8
REMARK VINA RESULT:      -6.4      2.211      7.653
REMARK  26 active torsions:
REMARK  status: ('A' for Active; 'I' for Inactive)
REMARK    1  A    between atoms: C2_2  and  C3_3 
REMARK    2  A    between atoms: C4_6  and  C5_7 
REMARK       I    between atoms: C5_7  and  N2_9 
REMARK    3  A    between atoms: N2_9  and  C6_10 
REMARK    4  A    between atoms: C6_10  and  C7_11 
REMARK    5  A    between atoms: C6_10  and  C8_13 
REMARK       I    between atoms: C7_11  and  N3_14 
REMARK    6  A    between atoms: N3_14  and  C9_15 
REMARK    7  A    between atoms: C9_15  and  C10_16 
REMARK    8  A    between atoms: C9_15  and  C11_18 
REMARK       I    between atoms: C10_16  and  N4_21 
REMARK    9  A    between atoms: C11_18  and  C12_19 
REMARK   10  A    between atoms: C11_18  and  C13_20 
REMARK   11  A    between atoms: N4_21  and  C14_22 
REMARK   12  A    between atoms: C14_22  and  C15_23 
REMARK   13  A    between atoms: C14_22  and  C16_25 
REMARK       I    between atoms: C15_23  and  N6_40 
REMARK   14  A    between atoms: C16_25  and  C17_26 
REMARK   15  A    between atoms: C17_26  and  C18_27 
REMARK   16  A    between atoms: C17_26  and  C19_28 
REMARK   17  A    between atoms: C20_29  and  C21_30 
REMARK   18  A    between atoms: C20_29  and  C24_33 
REMARK   19  A    between atoms: C20_29  and  N6_40 
REMARK   20  A    between atoms: C21_30  and  C22_31 
REMARK   21  A    between atoms: C22_31  and  C23_32 
REMARK   22  A    between atoms: C23_32  and  O8_43 
REMARK   23  A    between atoms: C24_33  and  C25_34 
REMARK   24  A    between atoms: C28_38  and  O6_39 
REMARK   25  A    between atoms: C29_42  and  O8_43 
REMARK   26  A    between atoms: C29_42  and  C35_49 
ROOT
ATOM      1  C14 non d ame      -6.725  13.207  68.247  0.00  0.00     0.089 C 
ATOM      2  H20 non d ame      -5.988  13.144  67.446  0.00  0.00     0.087 H 
ENDROOT
BRANCH   1   3
ATOM      3  N4  non d ame      -7.000  14.617  68.480  0.00  0.00    -0.346 N 
ATOM      4  C10 non d ame      -6.169  15.677  67.802  0.00  0.00     0.241 C 
ATOM      5  O4  non d ame      -5.282  15.371  67.076  0.00  0.00    -0.271 OA
ATOM      6  H19 non d ame      -7.758  14.857  69.103  0.00  0.00     0.163 HD
BRANCH   4   7
ATOM      7  C9  non d ame      -6.471  17.132  68.050  0.00  0.00     0.092 C 
ATOM      8  H11 non d ame      -6.055  17.728  67.238  0.00  0.00     0.088 H 
BRANCH   7   9
ATOM      9  N3  non d ame      -7.922  17.338  68.040  0.00  0.00    -0.346 N 
ATOM     10  C7  non d ame      -8.617  17.512  66.788  0.00  0.00     0.240 C 
ATOM     11  O3  non d ame      -8.023  17.490  65.779  0.00  0.00    -0.271 OA
ATOM     12  H10 non d ame      -8.448  17.362  68.902  0.00  0.00     0.163 HD
BRANCH  10  13
ATOM     13  C6  non d ame     -10.161  17.735  66.784  0.00  0.00     0.086 C 
ATOM     14  H6  non d ame     -10.678  17.093  66.071  0.00  0.00     0.086 H 
BRANCH  13  15
ATOM     15  N2  non d ame     -10.688  17.405  68.098  0.00  0.00    -0.343 N 
ATOM     16  C5  non d ame     -11.247  16.072  68.337  0.00  0.00     0.273 C 
ATOM     17  O2  non d ame     -11.270  15.274  67.465  0.00  0.00    -0.266 OA
ATOM     18  H5  non d ame     -10.667  18.094  68.836  0.00  0.00     0.163 HD
BRANCH  16  19
ATOM     19  C4  non d ame     -11.807  15.709  69.721  0.00  0.00     0.154 A 
ATOM     20  C1  non d ame     -12.474  14.500  70.094  0.00  0.00    -0.017 A 
ATOM     21  C2  non d ame     -12.784  14.663  71.463  0.00  0.00     0.077 A 
ATOM     22  H1  non d ame     -12.698  13.636  69.468  0.00  0.00     0.091 H 
ATOM     23  O1  non d ame     -12.341  15.831  71.824  0.00  0.00    -0.218 OA
ATOM     24  N1  non d ame     -11.767  16.461  70.825  0.00  0.00    -0.123 NA
BRANCH  21  25
ATOM     25  C3  non d ame     -13.502  13.655  72.351  0.00  0.00    -0.029 C 
ATOM     26  H2  non d ame     -12.774  13.132  72.970  0.00  0.00     0.036 H 
ATOM     27  H3  non d ame     -14.214  14.177  72.990  0.00  0.00     0.036 H 
ATOM     28  H4  non d ame     -14.034  12.935  71.728  0.00  0.00     0.036 H 
ENDBRANCH  21  25
ENDBRANCH  16  19
ENDBRANCH  13  15
BRANCH  13  29
ATOM     29  C8  non d ame     -10.463  19.174  66.453  0.00  0.00    -0.049 C 
ATOM     30  H7  non d ame     -11.525  19.281  66.230  0.00  0.00     0.030 H 
ATOM     31  H8  non d ame     -10.205  19.805  67.303  0.00  0.00     0.030 H 
ATOM     32  H9  non d ame      -9.879  19.477  65.584  0.00  0.00     0.030 H 
ENDBRANCH  13  29
ENDBRANCH  10  13
ENDBRANCH   7   9
BRANCH   7  33
ATOM     33  C11 non d ame      -5.900  17.551  69.436  0.00  0.00    -0.033 C 
ATOM     34  H12 non d ame      -6.471  17.024  70.200  0.00  0.00     0.042 H 
BRANCH  33  35
ATOM     35  C12 non d ame      -4.406  17.124  69.588  0.00  0.00    -0.071 C 
ATOM     36  H13 non d ame      -4.170  16.360  68.848  0.00  0.00     0.028 H 
ATOM     37  H14 non d ame      -3.764  17.990  69.433  0.00  0.00     0.028 H 
ATOM     38  H15 non d ame      -4.243  16.724  70.589  0.00  0.00     0.028 H 
ENDBRANCH  33  35
BRANCH  33  39
ATOM     39  C13 non d ame      -6.077  19.085  69.673  0.00  0.00    -0.071 C 
ATOM     40  H16 non d ame      -6.640  19.248  70.592  0.00  0.00     0.028 H 
ATOM     41  H17 non d ame      -5.097  19.555  69.760  0.00  0.00     0.028 H 
ATOM     42  H18 non d ame      -6.617  19.522  68.833  0.00  0.00     0.028 H 
ENDBRANCH  33  39
ENDBRANCH   7  33
ENDBRANCH   4   7
ENDBRANCH   1   3
BRANCH   1  43
ATOM     43  C15 non d ame      -8.058  12.497  67.875  0.00  0.00     0.240 C 
ATOM     44  O5  non d ame      -9.090  12.931  68.274  0.00  0.00    -0.271 OA
ATOM     45  N6  non d ame      -8.049  11.282  67.012  0.00  0.00    -0.355 N 
ATOM     46  H46 non d ame      -7.179  10.907  66.663  0.00  0.00     0.162 HD
BRANCH  45  47
ATOM     47  C20 non d ame      -9.325  10.619  66.666  0.00  0.00     0.013 C 
ATOM     48  H30 non d ame     -10.134  11.188  67.125  0.00  0.00     0.072 H 
BRANCH  47  49
ATOM     49  C21 non d ame      -9.317   9.206  67.204  0.00  0.00    -0.038 C 
ATOM     50  H31 non d ame     -10.165   9.146  67.886  0.00  0.00     0.036 H 
ATOM     51  H32 non d ame      -9.274   8.558  66.328  0.00  0.00     0.036 H 
BRANCH  49  52
ATOM     52  C22 non d ame      -8.059   8.892  68.042  0.00  0.00     0.018 C 
ATOM     53  H33 non d ame      -7.270   8.678  67.321  0.00  0.00     0.048 H 
ATOM     54  H34 non d ame      -7.951   9.725  68.737  0.00  0.00     0.048 H 
BRANCH  52  55
ATOM     55  C23 non d ame      -8.194   7.617  68.921  0.00  0.00     0.259 C 
ATOM     56  O7  non d ame      -7.353   6.778  68.900  0.00  0.00    -0.265 OA
BRANCH  55  57
ATOM     57  O8  non d ame      -9.344   7.456  69.742  0.00  0.00    -0.317 OA
BRANCH  57  58
ATOM     58  C29 non d ame      -9.284   8.177  70.976  0.00  0.00     0.052 C 
ATOM     59  H47 non d ame      -9.137   7.424  71.750  0.00  0.00     0.082 H 
ATOM     60  H48 non d ame      -8.539   8.958  70.825  0.00  0.00     0.082 H 
BRANCH  58  61
ATOM     61  C35 non d ame     -10.663   8.852  71.203  0.00  0.00    -0.034 A 
ATOM     62  C30 non d ame     -10.996  10.008  70.505  0.00  0.00    -0.075 A 
ATOM     63  C31 non d ame     -12.235  10.615  70.710  0.00  0.00    -0.082 A 
ATOM     64  H49 non d ame     -10.288  10.439  69.798  0.00  0.00     0.084 H 
ATOM     65  C32 non d ame     -13.141  10.062  71.619  0.00  0.00    -0.083 A 
ATOM     66  H50 non d ame     -12.494  11.520  70.160  0.00  0.00     0.083 H 
ATOM     67  C33 non d ame     -12.803   8.910  72.316  0.00  0.00    -0.082 A 
ATOM     68  H51 non d ame     -14.112  10.530  71.784  0.00  0.00     0.083 H 
ATOM     69  C34 non d ame     -11.567   8.299  72.113  0.00  0.00    -0.075 A 
ATOM     70  H52 non d ame     -13.511   8.482  73.026  0.00  0.00     0.083 H 
ATOM     71  H53 non d ame     -11.309   7.394  72.663  0.00  0.00     0.084 H 
ENDBRANCH  58  61
ENDBRANCH  57  58
ENDBRANCH  55  57
ENDBRANCH  52  55
ENDBRANCH  49  52
ENDBRANCH  47  49
BRANCH  47  72
ATOM     72  C24 non d ame      -9.495  10.586  65.148  0.00  0.00    -0.039 C 
ATOM     73  H35 non d ame      -8.483  10.541  64.744  0.00  0.00     0.036 H 
ATOM     74  H36 non d ame     -10.196   9.774  64.952  0.00  0.00     0.036 H 
BRANCH  72  75
ATOM     75  C25 non d ame     -10.165  11.932  64.597  0.00  0.00    -0.001 C 
ATOM     76  C26 non d ame     -11.473  12.323  65.514  0.00  0.00    -0.035 C 
ATOM     77  C27 non d ame     -12.531  12.535  64.696  0.00  0.00     0.085 C 
ATOM     78  H38 non d ame     -11.780  11.466  66.112  0.00  0.00     0.036 H 
ATOM     79  H39 non d ame     -11.320  13.293  65.989  0.00  0.00     0.036 H 
ATOM     80  N5  non d ame     -12.150  12.007  63.335  0.00  0.00    -0.049 N 
ATOM     81  H40 non d ame     -13.339  11.925  65.101  0.00  0.00     0.075 H 
ATOM     82  H41 non d ame     -12.643  13.617  64.638  0.00  0.00     0.075 H 
ATOM     83  C28 non d ame     -10.550  11.796  63.372  0.00  0.00     0.193 C 
ATOM     84  H42 non d ame     -12.592  11.103  63.244  0.00  0.00     0.280 HD
ATOM     85  H43 non d ame     -12.362  12.740  62.673  0.00  0.00     0.280 HD
ATOM     86  H44 non d ame      -9.886  12.503  62.875  0.00  0.00     0.129 H 
ATOM     87  H37 non d ame      -9.429  12.718  64.422  0.00  0.00     0.046 H 
BRANCH  83  88
ATOM     88  O6  non d ame     -10.209  10.514  62.840  0.00  0.00    -0.369 OA
ATOM     89  H45 non d ame      -9.788  10.625  61.985  0.00  0.00     0.212 HD
ENDBRANCH  83  88
ENDBRANCH  72  75
ENDBRANCH  47  72
ENDBRANCH  45  47
ENDBRANCH   1  43
BRANCH   1  90
ATOM     90  C16 non d ame      -6.158  12.596  69.518  0.00  0.00    -0.035 C 
ATOM     91  H21 non d ame      -7.007  12.502  70.197  0.00  0.00     0.037 H 
ATOM     92  H22 non d ame      -5.619  11.705  69.195  0.00  0.00     0.037 H 
BRANCH  90  93
ATOM     93  C17 non d ame      -5.114  13.506  70.240  0.00  0.00    -0.059 C 
ATOM     94  H23 non d ame      -5.090  14.461  69.715  0.00  0.00     0.038 H 
BRANCH  93  95
ATOM     95  C18 non d ame      -5.506  13.789  71.726  0.00  0.00    -0.073 C 
ATOM     96  H24 non d ame      -4.636  14.161  72.266  0.00  0.00     0.028 H 
ATOM     97  H25 non d ame      -6.300  14.535  71.756  0.00  0.00     0.028 H 
ATOM     98  H26 non d ame      -5.856  12.867  72.191  0.00  0.00     0.028 H 
ENDBRANCH  93  95
BRANCH  93  99
ATOM     99  C19 non d ame      -3.710  12.903  70.153  0.00  0.00    -0.073 C 
ATOM    100  H27 non d ame      -3.011  13.660  69.796  0.00  0.00     0.028 H 
ATOM    101  H28 non d ame      -3.401  12.558  71.140  0.00  0.00     0.028 H 
ATOM    102  H29 non d ame      -3.719  12.061  69.460  0.00  0.00     0.028 H 
ENDBRANCH  93  99
ENDBRANCH  90  93
ENDBRANCH   1  90
TORSDOF 26
ENDMDL
MODEL 9
REMARK VINA RESULT:      -6.3      3.375      8.226
REMARK  26 active torsions:
REMARK  status: ('A' for Active; 'I' for Inactive)
REMARK    1  A    between atoms: C2_2  and  C3_3 
REMARK    2  A    between atoms: C4_6  and  C5_7 
REMARK       I    between atoms: C5_7  and  N2_9 
REMARK    3  A    between atoms: N2_9  and  C6_10 
REMARK    4  A    between atoms: C6_10  and  C7_11 
REMARK    5  A    between atoms: C6_10  and  C8_13 
REMARK       I    between atoms: C7_11  and  N3_14 
REMARK    6  A    between atoms: N3_14  and  C9_15 
REMARK    7  A    between atoms: C9_15  and  C10_16 
REMARK    8  A    between atoms: C9_15  and  C11_18 
REMARK       I    between atoms: C10_16  and  N4_21 
REMARK    9  A    between atoms: C11_18  and  C12_19 
REMARK   10  A    between atoms: C11_18  and  C13_20 
REMARK   11  A    between atoms: N4_21  and  C14_22 
REMARK   12  A    between atoms: C14_22  and  C15_23 
REMARK   13  A    between atoms: C14_22  and  C16_25 
REMARK       I    between atoms: C15_23  and  N6_40 
REMARK   14  A    between atoms: C16_25  and  C17_26 
REMARK   15  A    between atoms: C17_26  and  C18_27 
REMARK   16  A    between atoms: C17_26  and  C19_28 
REMARK   17  A    between atoms: C20_29  and  C21_30 
REMARK   18  A    between atoms: C20_29  and  C24_33 
REMARK   19  A    between atoms: C20_29  and  N6_40 
REMARK   20  A    between atoms: C21_30  and  C22_31 
REMARK   21  A    between atoms: C22_31  and  C23_32 
REMARK   22  A    between atoms: C23_32  and  O8_43 
REMARK   23  A    between atoms: C24_33  and  C25_34 
REMARK   24  A    between atoms: C28_38  and  O6_39 
REMARK   25  A    between atoms: C29_42  and  O8_43 
REMARK   26  A    between atoms: C29_42  and  C35_49 
ROOT
ATOM      1  C14 non d ame      -7.324   9.884  67.843  0.00  0.00     0.089 C 
ATOM      2  H20 non d ame      -6.270   9.734  67.607  0.00  0.00     0.087 H 
ENDROOT
BRANCH   1   3
ATOM      3  N4  non d ame      -8.065   9.842  66.591  0.00  0.00    -0.346 N 
ATOM      4  C10 non d ame      -7.409  10.272  65.303  0.00  0.00     0.241 C 
ATOM      5  O4  non d ame      -6.284  10.651  65.300  0.00  0.00    -0.271 OA
ATOM      6  H19 non d ame      -9.021   9.519  66.616  0.00  0.00     0.163 HD
BRANCH   4   7
ATOM      7  C9  non d ame      -8.188  10.216  64.016  0.00  0.00     0.092 C 
ATOM      8  H11 non d ame      -8.791   9.309  64.001  0.00  0.00     0.088 H 
BRANCH   7   9
ATOM      9  N3  non d ame      -9.113  11.352  63.955  0.00  0.00    -0.346 N 
ATOM     10  C7  non d ame     -10.378  11.288  64.645  0.00  0.00     0.240 C 
ATOM     11  O3  non d ame     -10.669  10.331  65.252  0.00  0.00    -0.271 OA
ATOM     12  H10 non d ame      -8.878  12.184  63.434  0.00  0.00     0.163 HD
BRANCH  10  13
ATOM     13  C6  non d ame     -11.360  12.499  64.574  0.00  0.00     0.086 C 
ATOM     14  H6  non d ame     -12.150  12.446  65.323  0.00  0.00     0.086 H 
BRANCH  13  15
ATOM     15  N2  non d ame     -10.620  13.722  64.836  0.00  0.00    -0.343 N 
ATOM     16  C5  non d ame     -11.093  14.644  65.871  0.00  0.00     0.273 C 
ATOM     17  O2  non d ame     -12.071  14.394  66.486  0.00  0.00    -0.266 OA
ATOM     18  H5  non d ame      -9.786  13.930  64.304  0.00  0.00     0.163 HD
BRANCH  16  19
ATOM     19  C4  non d ame     -10.319  15.940  66.160  0.00  0.00     0.154 A 
ATOM     20  C1  non d ame     -10.541  16.858  67.235  0.00  0.00    -0.017 A 
ATOM     21  C2  non d ame      -9.574  17.872  67.052  0.00  0.00     0.077 A 
ATOM     22  H1  non d ame     -11.289  16.798  68.026  0.00  0.00     0.091 H 
ATOM     23  O1  non d ame      -8.883  17.562  65.995  0.00  0.00    -0.218 OA
ATOM     24  N1  non d ame      -9.299  16.439  65.456  0.00  0.00    -0.123 NA
BRANCH  21  25
ATOM     25  C3  non d ame      -9.378  19.100  67.932  0.00  0.00    -0.029 C 
ATOM     26  H2  non d ame      -8.535  18.935  68.603  0.00  0.00     0.036 H 
ATOM     27  H3  non d ame      -9.178  19.968  67.304  0.00  0.00     0.036 H 
ATOM     28  H4  non d ame     -10.280  19.275  68.518  0.00  0.00     0.036 H 
ENDBRANCH  21  25
ENDBRANCH  16  19
ENDBRANCH  13  15
BRANCH  13  29
ATOM     29  C8  non d ame     -11.990  12.559  63.206  0.00  0.00    -0.049 C 
ATOM     30  H7  non d ame     -11.463  13.292  62.595  0.00  0.00     0.030 H 
ATOM     31  H8  non d ame     -11.927  11.579  62.733  0.00  0.00     0.030 H 
ATOM     32  H9  non d ame     -13.036  12.852  63.300  0.00  0.00     0.030 H 
ENDBRANCH  13  29
ENDBRANCH  10  13
ENDBRANCH   7   9
BRANCH   7  33
ATOM     33  C11 non d ame      -7.205  10.287  62.811  0.00  0.00    -0.033 C 
ATOM     34  H12 non d ame      -6.338  10.866  63.127  0.00  0.00     0.042 H 
BRANCH  33  35
ATOM     35  C12 non d ame      -6.699   8.867  62.407  0.00  0.00    -0.071 C 
ATOM     36  H13 non d ame      -6.411   8.315  63.302  0.00  0.00     0.028 H 
ATOM     37  H14 non d ame      -7.495   8.331  61.891  0.00  0.00     0.028 H 
ATOM     38  H15 non d ame      -5.837   8.963  61.747  0.00  0.00     0.028 H 
ENDBRANCH  33  35
BRANCH  33  39
ATOM     39  C13 non d ame      -7.860  11.021  61.597  0.00  0.00    -0.071 C 
ATOM     40  H16 non d ame      -8.750  10.478  61.281  0.00  0.00     0.028 H 
ATOM     41  H17 non d ame      -8.138  12.034  61.891  0.00  0.00     0.028 H 
ATOM     42  H18 non d ame      -7.148  11.065  60.773  0.00  0.00     0.028 H 
ENDBRANCH  33  39
ENDBRANCH   7  33
ENDBRANCH   4   7
ENDBRANCH   1   3
BRANCH   1  43
ATOM     43  C15 non d ame      -7.878   8.777  68.784  0.00  0.00     0.240 C 
ATOM     44  O5  non d ame      -7.292   7.749  68.896  0.00  0.00    -0.271 OA
ATOM     45  N6  non d ame      -9.135   9.001  69.553  0.00  0.00    -0.355 N 
ATOM     46  H46 non d ame      -9.639   9.872  69.470  0.00  0.00     0.162 HD
BRANCH  45  47
ATOM     47  C20 non d ame      -9.648   7.938  70.445  0.00  0.00     0.013 C 
ATOM     48  H30 non d ame      -8.868   7.184  70.552  0.00  0.00     0.072 H 
BRANCH  47  49
ATOM     49  C21 non d ame     -10.882   7.321  69.827  0.00  0.00    -0.038 C 
ATOM     50  H31 non d ame     -11.457   6.914  70.660  0.00  0.00     0.036 H 
ATOM     51  H32 non d ame     -11.314   8.096  69.194  0.00  0.00     0.036 H 
BRANCH  49  52
ATOM     52  C22 non d ame     -10.557   6.130  68.900  0.00  0.00     0.018 C 
ATOM     53  H33 non d ame      -9.517   5.872  69.104  0.00  0.00     0.048 H 
ATOM     54  H34 non d ame     -11.344   5.396  69.073  0.00  0.00     0.048 H 
BRANCH  52  55
ATOM     55  C23 non d ame     -10.623   6.478  67.387  0.00  0.00     0.259 C 
ATOM     56  O7  non d ame     -10.420   7.588  67.014  0.00  0.00    -0.265 OA
BRANCH  55  57
ATOM     57  O8  non d ame     -10.942   5.457  66.450  0.00  0.00    -0.317 OA
BRANCH  57  58
ATOM     58  C29 non d ame      -9.890   4.510  66.241  0.00  0.00     0.052 C 
ATOM     59  H47 non d ame      -9.065   4.841  66.871  0.00  0.00     0.082 H 
ATOM     60  H48 non d ame     -10.339   3.530  66.401  0.00  0.00     0.082 H 
BRANCH  58  61
ATOM     61  C35 non d ame      -9.445   4.608  64.757  0.00  0.00    -0.034 A 
ATOM     62  C30 non d ame     -10.134   3.903  63.775  0.00  0.00    -0.075 A 
ATOM     63  C31 non d ame      -9.734   3.991  62.442  0.00  0.00    -0.082 A 
ATOM     64  H49 non d ame     -10.986   3.282  64.049  0.00  0.00     0.084 H 
ATOM     65  C32 non d ame      -8.639   4.786  62.093  0.00  0.00    -0.083 A 
ATOM     66  H50 non d ame     -10.277   3.439  61.675  0.00  0.00     0.083 H 
ATOM     67  C33 non d ame      -7.953   5.485  63.077  0.00  0.00    -0.082 A 
ATOM     68  H51 non d ame      -8.320   4.860  61.054  0.00  0.00     0.083 H 
ATOM     69  C34 non d ame      -8.350   5.402  64.410  0.00  0.00    -0.075 A 
ATOM     70  H52 non d ame      -7.097   6.103  62.802  0.00  0.00     0.083 H 
ATOM     71  H53 non d ame      -7.807   5.955  65.177  0.00  0.00     0.084 H 
ENDBRANCH  58  61
ENDBRANCH  57  58
ENDBRANCH  55  57
ENDBRANCH  52  55
ENDBRANCH  49  52
ENDBRANCH  47  49
BRANCH  47  72
ATOM     72  C24 non d ame     -10.002   8.533  71.806  0.00  0.00    -0.039 C 
ATOM     73  H35 non d ame      -9.452   9.472  71.865  0.00  0.00     0.036 H 
ATOM     74  H36 non d ame     -11.091   8.536  71.847  0.00  0.00     0.036 H 
BRANCH  72  75
ATOM     75  C25 non d ame      -9.487   7.608  73.009  0.00  0.00    -0.001 C 
ATOM     76  C26 non d ame      -8.639   6.332  72.410  0.00  0.00    -0.035 C 
ATOM     77  C27 non d ame      -9.133   5.190  72.946  0.00  0.00     0.085 C 
ATOM     78  H38 non d ame      -8.835   6.220  71.345  0.00  0.00     0.036 H 
ATOM     79  H39 non d ame      -7.612   6.362  72.776  0.00  0.00     0.036 H 
ATOM     80  N5  non d ame     -10.447   5.541  73.599  0.00  0.00    -0.049 N 
ATOM     81  H40 non d ame      -9.322   4.529  72.099  0.00  0.00     0.075 H 
ATOM     82  H41 non d ame      -8.420   4.898  73.716  0.00  0.00     0.075 H 
ATOM     83  C28 non d ame     -10.475   7.152  73.704  0.00  0.00     0.193 C 
ATOM     84  H42 non d ame     -11.172   5.249  72.959  0.00  0.00     0.280 HD
ATOM     85  H43 non d ame     -10.414   5.159  74.533  0.00  0.00     0.280 HD
ATOM     86  H44 non d ame     -10.291   7.648  74.658  0.00  0.00     0.129 H 
ATOM     87  H37 non d ame      -9.016   8.187  73.803  0.00  0.00     0.046 H 
BRANCH  83  88
ATOM     88  O6  non d ame     -11.732   7.654  73.249  0.00  0.00    -0.369 OA
ATOM     89  H45 non d ame     -11.858   7.413  72.328  0.00  0.00     0.212 HD
ENDBRANCH  83  88
ENDBRANCH  72  75
ENDBRANCH  47  72
ENDBRANCH  45  47
ENDBRANCH   1  43
BRANCH   1  90
ATOM     90  C16 non d ame      -7.517  11.247  68.489  0.00  0.00    -0.035 C 
ATOM     91  H21 non d ame      -7.991  11.047  69.450  0.00  0.00     0.037 H 
ATOM     92  H22 non d ame      -6.538  11.725  68.453  0.00  0.00     0.037 H 
BRANCH  90  93
ATOM     93  C17 non d ame      -8.493  12.180  67.702  0.00  0.00    -0.059 C 
ATOM     94  H23 non d ame      -8.690  11.714  66.737  0.00  0.00     0.038 H 
BRANCH  93  95
ATOM     95  C18 non d ame      -9.862  12.354  68.436  0.00  0.00    -0.073 C 
ATOM     96  H24 non d ame      -9.767  12.013  69.466  0.00  0.00     0.028 H 
ATOM     97  H25 non d ame     -10.149  13.405  68.424  0.00  0.00     0.028 H 
ATOM     98  H26 non d ame     -10.624  11.764  67.926  0.00  0.00     0.028 H 
ENDBRANCH  93  95
BRANCH  93  99
ATOM     99  C19 non d ame      -7.846  13.540  67.428  0.00  0.00    -0.073 C 
ATOM    100  H27 non d ame      -7.005  13.412  66.745  0.00  0.00     0.028 H 
ATOM    101  H28 non d ame      -8.581  14.207  66.977  0.00  0.00     0.028 H 
ATOM    102  H29 non d ame      -7.492  13.970  68.364  0.00  0.00     0.028 H 
ENDBRANCH  93  99
ENDBRANCH  90  93
ENDBRANCH   1  90
TORSDOF 26
ENDMDL
MODEL 10
REMARK VINA RESULT:      -6.3      3.684      8.605
REMARK  26 active torsions:
REMARK  status: ('A' for Active; 'I' for Inactive)
REMARK    1  A    between atoms: C2_2  and  C3_3 
REMARK    2  A    between atoms: C4_6  and  C5_7 
REMARK       I    between atoms: C5_7  and  N2_9 
REMARK    3  A    between atoms: N2_9  and  C6_10 
REMARK    4  A    between atoms: C6_10  and  C7_11 
REMARK    5  A    between atoms: C6_10  and  C8_13 
REMARK       I    between atoms: C7_11  and  N3_14 
REMARK    6  A    between atoms: N3_14  and  C9_15 
REMARK    7  A    between atoms: C9_15  and  C10_16 
REMARK    8  A    between atoms: C9_15  and  C11_18 
REMARK       I    between atoms: C10_16  and  N4_21 
REMARK    9  A    between atoms: C11_18  and  C12_19 
REMARK   10  A    between atoms: C11_18  and  C13_20 
REMARK   11  A    between atoms: N4_21  and  C14_22 
REMARK   12  A    between atoms: C14_22  and  C15_23 
REMARK   13  A    between atoms: C14_22  and  C16_25 
REMARK       I    between atoms: C15_23  and  N6_40 
REMARK   14  A    between atoms: C16_25  and  C17_26 
REMARK   15  A    between atoms: C17_26  and  C18_27 
REMARK   16  A    between atoms: C17_26  and  C19_28 
REMARK   17  A    between atoms: C20_29  and  C21_30 
REMARK   18  A    between atoms: C20_29  and  C24_33 
REMARK   19  A    between atoms: C20_29  and  N6_40 
REMARK   20  A    between atoms: C21_30  and  C22_31 
REMARK   21  A    between atoms: C22_31  and  C23_32 
REMARK   22  A    between atoms: C23_32  and  O8_43 
REMARK   23  A    between atoms: C24_33  and  C25_34 
REMARK   24  A    between atoms: C28_38  and  O6_39 
REMARK   25  A    between atoms: C29_42  and  O8_43 
REMARK   26  A    between atoms: C29_42  and  C35_49 
ROOT
ATOM      1  C14 non d ame      -8.529   8.223  68.551  0.00  0.00     0.089 C 
ATOM      2  H20 non d ame      -9.090   7.346  68.229  0.00  0.00     0.087 H 
ENDROOT
BRANCH   1   3
ATOM      3  N4  non d ame      -8.854   9.310  67.640  0.00  0.00    -0.346 N 
ATOM      4  C10 non d ame     -10.074   9.224  66.757  0.00  0.00     0.241 C 
ATOM      5  O4  non d ame     -10.776   8.269  66.795  0.00  0.00    -0.271 OA
ATOM      6  H19 non d ame      -8.242  10.113  67.620  0.00  0.00     0.163 HD
BRANCH   4   7
ATOM      7  C9  non d ame     -10.398  10.361  65.824  0.00  0.00     0.092 C 
ATOM      8  H11 non d ame     -11.475  10.390  65.655  0.00  0.00     0.088 H 
BRANCH   7   9
ATOM      9  N3  non d ame     -10.024  11.632  66.452  0.00  0.00    -0.346 N 
ATOM     10  C7  non d ame     -11.046  12.580  66.822  0.00  0.00     0.240 C 
ATOM     11  O3  non d ame     -12.173  12.338  66.620  0.00  0.00    -0.271 OA
ATOM     12  H10 non d ame      -9.056  11.855  66.630  0.00  0.00     0.163 HD
BRANCH  10  13
ATOM     13  C6  non d ame     -10.641  13.933  67.487  0.00  0.00     0.086 C 
ATOM     14  H6  non d ame     -11.033  14.799  66.954  0.00  0.00     0.086 H 
BRANCH  13  15
ATOM     15  N2  non d ame     -11.198  13.983  68.829  0.00  0.00    -0.343 N 
ATOM     16  C5  non d ame     -11.802  15.226  69.313  0.00  0.00     0.273 C 
ATOM     17  O2  non d ame     -11.832  16.181  68.617  0.00  0.00    -0.266 OA
ATOM     18  H5  non d ame     -11.166  13.163  69.418  0.00  0.00     0.163 HD
BRANCH  16  19
ATOM     19  C4  non d ame     -12.396  15.294  70.729  0.00  0.00     0.154 A 
ATOM     20  C1  non d ame     -11.679  15.401  71.963  0.00  0.00    -0.017 A 
ATOM     21  C2  non d ame     -12.678  15.426  72.962  0.00  0.00     0.077 A 
ATOM     22  H1  non d ame     -10.601  15.454  72.111  0.00  0.00     0.091 H 
ATOM     23  O1  non d ame     -13.829  15.343  72.361  0.00  0.00    -0.218 OA
ATOM     24  N1  non d ame     -13.690  15.265  71.058  0.00  0.00    -0.123 NA
BRANCH  21  25
ATOM     25  C3  non d ame     -12.449  15.532  74.464  0.00  0.00    -0.029 C 
ATOM     26  H2  non d ame     -11.984  14.614  74.826  0.00  0.00     0.036 H 
ATOM     27  H3  non d ame     -11.793  16.377  74.672  0.00  0.00     0.036 H 
ATOM     28  H4  non d ame     -13.404  15.680  74.968  0.00  0.00     0.036 H 
ENDBRANCH  21  25
ENDBRANCH  16  19
ENDBRANCH  13  15
BRANCH  13  29
ATOM     29  C8  non d ame      -9.139  14.036  67.548  0.00  0.00    -0.049 C 
ATOM     30  H7  non d ame      -8.698  13.375  66.802  0.00  0.00     0.030 H 
ATOM     31  H8  non d ame      -8.837  15.064  67.346  0.00  0.00     0.030 H 
ATOM     32  H9  non d ame      -8.794  13.744  68.539  0.00  0.00     0.030 H 
ENDBRANCH  13  29
ENDBRANCH  10  13
ENDBRANCH   7   9
BRANCH   7  33
ATOM     33  C11 non d ame      -9.602  10.187  64.497  0.00  0.00    -0.033 C 
ATOM     34  H12 non d ame      -9.805   9.184  64.121  0.00  0.00     0.042 H 
BRANCH  33  35
ATOM     35  C12 non d ame     -10.078  11.201  63.411  0.00  0.00    -0.071 C 
ATOM     36  H13 non d ame      -9.496  12.120  63.492  0.00  0.00     0.028 H 
ATOM     37  H14 non d ame      -9.935  10.767  62.422  0.00  0.00     0.028 H 
ATOM     38  H15 non d ame     -11.133  11.426  63.562  0.00  0.00     0.028 H 
ENDBRANCH  33  35
BRANCH  33  39
ATOM     39  C13 non d ame      -8.064  10.306  64.749  0.00  0.00    -0.071 C 
ATOM     40  H16 non d ame      -7.889  10.679  65.757  0.00  0.00     0.028 H 
ATOM     41  H17 non d ame      -7.601   9.325  64.639  0.00  0.00     0.028 H 
ATOM     42  H18 non d ame      -7.631  10.996  64.025  0.00  0.00     0.028 H 
ENDBRANCH  33  39
ENDBRANCH   7  33
ENDBRANCH   4   7
ENDBRANCH   1   3
BRANCH   1  43
ATOM     43  C15 non d ame      -8.901   8.661  69.997  0.00  0.00     0.240 C 
ATOM     44  O5  non d ame      -8.326   9.567  70.507  0.00  0.00    -0.271 OA
ATOM     45  N6  non d ame      -9.982   7.955  70.742  0.00  0.00    -0.355 N 
ATOM     46  H46 non d ame     -10.481   7.187  70.318  0.00  0.00     0.162 HD
BRANCH  45  47
ATOM     47  C20 non d ame     -10.325   8.384  72.115  0.00  0.00     0.013 C 
ATOM     48  H30 non d ame     -10.085   9.443  72.206  0.00  0.00     0.072 H 
BRANCH  47  49
ATOM     49  C21 non d ame      -9.513   7.583  73.107  0.00  0.00    -0.038 C 
ATOM     50  H31 non d ame      -8.620   7.264  72.568  0.00  0.00     0.036 H 
ATOM     51  H32 non d ame      -9.419   8.215  73.990  0.00  0.00     0.036 H 
BRANCH  49  52
ATOM     52  C22 non d ame     -10.229   6.294  73.567  0.00  0.00     0.018 C 
ATOM     53  H33 non d ame      -9.944   6.154  74.610  0.00  0.00     0.048 H 
ATOM     54  H34 non d ame     -11.278   6.429  73.302  0.00  0.00     0.048 H 
BRANCH  52  55
ATOM     55  C23 non d ame      -9.759   5.016  72.819  0.00  0.00     0.259 C 
ATOM     56  O7  non d ame      -9.285   4.106  73.418  0.00  0.00    -0.265 OA
BRANCH  55  57
ATOM     57  O8  non d ame      -9.890   4.948  71.404  0.00  0.00    -0.317 OA
BRANCH  57  58
ATOM     58  C29 non d ame      -9.634   3.652  70.856  0.00  0.00     0.052 C 
ATOM     59  H47 non d ame      -8.733   3.294  71.354  0.00  0.00     0.082 H 
ATOM     60  H48 non d ame     -10.568   3.100  70.956  0.00  0.00     0.082 H 
BRANCH  58  61
ATOM     61  C35 non d ame      -9.324   3.824  69.345  0.00  0.00    -0.034 A 
ATOM     62  C30 non d ame      -8.364   3.022  68.735  0.00  0.00    -0.075 A 
ATOM     63  C31 non d ame      -8.086   3.176  67.378  0.00  0.00    -0.082 A 
ATOM     64  H49 non d ame      -7.831   2.273  69.321  0.00  0.00     0.084 H 
ATOM     65  C32 non d ame      -8.770   4.138  66.630  0.00  0.00    -0.083 A 
ATOM     66  H50 non d ame      -7.335   2.545  66.903  0.00  0.00     0.083 H 
ATOM     67  C33 non d ame      -9.725   4.938  67.243  0.00  0.00    -0.082 A 
ATOM     68  H51 non d ame      -8.559   4.265  65.568  0.00  0.00     0.083 H 
ATOM     69  C34 non d ame     -10.008   4.786  68.599  0.00  0.00    -0.075 A 
ATOM     70  H52 non d ame     -10.255   5.689  66.658  0.00  0.00     0.083 H 
ATOM     71  H53 non d ame     -10.760   5.417  69.074  0.00  0.00     0.084 H 
ENDBRANCH  58  61
ENDBRANCH  57  58
ENDBRANCH  55  57
ENDBRANCH  52  55
ENDBRANCH  49  52
ENDBRANCH  47  49
BRANCH  47  72
ATOM     72  C24 non d ame     -11.813   8.154  72.372  0.00  0.00    -0.039 C 
ATOM     73  H35 non d ame     -12.002   7.121  72.076  0.00  0.00     0.036 H 
ATOM     74  H36 non d ame     -11.982   8.465  73.403  0.00  0.00     0.036 H 
BRANCH  72  75
ATOM     75  C25 non d ame     -12.726   9.086  71.442  0.00  0.00    -0.001 C 
ATOM     76  C26 non d ame     -11.888  10.431  71.003  0.00  0.00    -0.035 C 
ATOM     77  C27 non d ame     -12.640  11.523  71.281  0.00  0.00     0.085 C 
ATOM     78  H38 non d ame     -11.015  10.553  71.643  0.00  0.00     0.036 H 
ATOM     79  H39 non d ame     -11.778  10.466  69.919  0.00  0.00     0.036 H 
ATOM     80  N5  non d ame     -13.773  11.065  72.167  0.00  0.00    -0.049 N 
ATOM     81  H40 non d ame     -11.989  12.188  71.850  0.00  0.00     0.075 H 
ATOM     82  H41 non d ame     -13.046  11.848  70.324  0.00  0.00     0.075 H 
ATOM     83  C28 non d ame     -13.799   9.455  72.059  0.00  0.00     0.193 C 
ATOM     84  H42 non d ame     -13.519  11.320  73.111  0.00  0.00     0.280 HD
ATOM     85  H43 non d ame     -14.621  11.428  71.757  0.00  0.00     0.280 HD
ATOM     86  H44 non d ame     -14.556   8.952  71.457  0.00  0.00     0.129 H 
ATOM     87  H37 non d ame     -13.213   8.523  70.645  0.00  0.00     0.046 H 
BRANCH  83  88
ATOM     88  O6  non d ame     -13.898   8.875  73.361  0.00  0.00    -0.369 OA
ATOM     89  H45 non d ame     -13.605   9.511  74.017  0.00  0.00     0.212 HD
ENDBRANCH  83  88
ENDBRANCH  72  75
ENDBRANCH  47  72
ENDBRANCH  45  47
ENDBRANCH   1  43
BRANCH   1  90
ATOM     90  C16 non d ame      -7.037   7.939  68.471  0.00  0.00    -0.035 C 
ATOM     91  H21 non d ame      -6.745   8.212  67.457  0.00  0.00     0.037 H 
ATOM     92  H22 non d ame      -6.598   8.458  69.324  0.00  0.00     0.037 H 
BRANCH  90  93
ATOM     93  C17 non d ame      -6.677   6.429  68.642  0.00  0.00    -0.059 C 
ATOM     94  H23 non d ame      -7.540   5.845  68.321  0.00  0.00     0.038 H 
BRANCH  93  95
ATOM     95  C18 non d ame      -5.461   6.009  67.755  0.00  0.00    -0.073 C 
ATOM     96  H24 non d ame      -4.551   6.456  68.153  0.00  0.00     0.028 H 
ATOM     97  H25 non d ame      -5.365   4.923  67.761  0.00  0.00     0.028 H 
ATOM     98  H26 non d ame      -5.621   6.354  66.734  0.00  0.00     0.028 H 
ENDBRANCH  93  95
BRANCH  93  99
ATOM     99  C19 non d ame      -6.422   6.090  70.113  0.00  0.00    -0.073 C 
ATOM    100  H27 non d ame      -6.016   5.081  70.189  0.00  0.00     0.028 H 
ATOM    101  H28 non d ame      -5.708   6.802  70.530  0.00  0.00     0.028 H 
ATOM    102  H29 non d ame      -7.358   6.148  70.667  0.00  0.00     0.028 H 
ENDBRANCH  93  99
ENDBRANCH  90  93
ENDBRANCH   1  90
TORSDOF 26
ENDMDL
MODEL 11
REMARK VINA RESULT:      -6.3      2.830      6.004
REMARK  26 active torsions:
REMARK  status: ('A' for Active; 'I' for Inactive)
REMARK    1  A    between atoms: C2_2  and  C3_3 
REMARK    2  A    between atoms: C4_6  and  C5_7 
REMARK       I    between atoms: C5_7  and  N2_9 
REMARK    3  A    between atoms: N2_9  and  C6_10 
REMARK    4  A    between atoms: C6_10  and  C7_11 
REMARK    5  A    between atoms: C6_10  and  C8_13 
REMARK       I    between atoms: C7_11  and  N3_14 
REMARK    6  A    between atoms: N3_14  and  C9_15 
REMARK    7  A    between atoms: C9_15  and  C10_16 
REMARK    8  A    between atoms: C9_15  and  C11_18 
REMARK       I    between atoms: C10_16  and  N4_21 
REMARK    9  A    between atoms: C11_18  and  C12_19 
REMARK   10  A    between atoms: C11_18  and  C13_20 
REMARK   11  A    between atoms: N4_21  and  C14_22 
REMARK   12  A    between atoms: C14_22  and  C15_23 
REMARK   13  A    between atoms: C14_22  and  C16_25 
REMARK       I    between atoms: C15_23  and  N6_40 
REMARK   14  A    between atoms: C16_25  and  C17_26 
REMARK   15  A    between atoms: C17_26  and  C18_27 
REMARK   16  A    between atoms: C17_26  and  C19_28 
REMARK   17  A    between atoms: C20_29  and  C21_30 
REMARK   18  A    between atoms: C20_29  and  C24_33 
REMARK   19  A    between atoms: C20_29  and  N6_40 
REMARK   20  A    between atoms: C21_30  and  C22_31 
REMARK   21  A    between atoms: C22_31  and  C23_32 
REMARK   22  A    between atoms: C23_32  and  O8_43 
REMARK   23  A    between atoms: C24_33  and  C25_34 
REMARK   24  A    between atoms: C28_38  and  O6_39 
REMARK   25  A    between atoms: C29_42  and  O8_43 
REMARK   26  A    between atoms: C29_42  and  C35_49 
ROOT
ATOM      1  C14 non d ame     -11.971  14.196  69.906  0.00  0.00     0.089 C 
ATOM      2  H20 non d ame     -13.001  13.840  69.883  0.00  0.00     0.087 H 
ENDROOT
BRANCH   1   3
ATOM      3  N4  non d ame     -11.103  13.036  69.763  0.00  0.00    -0.346 N 
ATOM      4  C10 non d ame     -11.611  11.658  70.107  0.00  0.00     0.241 C 
ATOM      5  O4  non d ame     -12.721  11.508  70.499  0.00  0.00    -0.271 OA
ATOM      6  H19 non d ame     -10.161  13.185  69.430  0.00  0.00     0.163 HD
BRANCH   4   7
ATOM      7  C9  non d ame     -10.701  10.468  69.948  0.00  0.00     0.092 C 
ATOM      8  H11 non d ame     -10.041  10.403  70.813  0.00  0.00     0.088 H 
BRANCH   7   9
ATOM      9  N3  non d ame     -11.501   9.241  69.920  0.00  0.00    -0.346 N 
ATOM     10  C7  non d ame     -11.442   8.317  71.026  0.00  0.00     0.240 C 
ATOM     11  O3  non d ame     -10.755   8.545  71.946  0.00  0.00    -0.271 OA
ATOM     12  H10 non d ame     -12.098   9.029  69.133  0.00  0.00     0.163 HD
BRANCH  10  13
ATOM     13  C6  non d ame     -12.294   7.010  70.990  0.00  0.00     0.086 C 
ATOM     14  H6  non d ame     -13.366   7.206  70.959  0.00  0.00     0.086 H 
BRANCH  13  15
ATOM     15  N2  non d ame     -11.972   6.271  69.780  0.00  0.00    -0.343 N 
ATOM     16  C5  non d ame     -10.604   5.796  69.567  0.00  0.00     0.273 C 
ATOM     17  O2  non d ame      -9.768   6.016  70.374  0.00  0.00    -0.266 OA
ATOM     18  H5  non d ame     -12.692   6.090  69.094  0.00  0.00     0.163 HD
BRANCH  16  19
ATOM     19  C4  non d ame     -10.249   5.013  68.294  0.00  0.00     0.154 A 
ATOM     20  C1  non d ame     -10.483   5.413  66.940  0.00  0.00    -0.017 A 
ATOM     21  C2  non d ame      -9.978   4.351  66.155  0.00  0.00     0.077 A 
ATOM     22  H1  non d ame     -10.947   6.332  66.581  0.00  0.00     0.091 H 
ATOM     23  O1  non d ame      -9.511   3.454  66.973  0.00  0.00    -0.218 OA
ATOM     24  N1  non d ame      -9.658   3.817  68.226  0.00  0.00    -0.123 NA
BRANCH  21  25
ATOM     25  C3  non d ame      -9.980   4.275  64.634  0.00  0.00    -0.029 C 
ATOM     26  H2  non d ame      -8.956   4.178  64.274  0.00  0.00     0.036 H 
ATOM     27  H3  non d ame     -10.561   3.409  64.315  0.00  0.00     0.036 H 
ATOM     28  H4  non d ame     -10.426   5.182  64.225  0.00  0.00     0.036 H 
ENDBRANCH  21  25
ENDBRANCH  16  19
ENDBRANCH  13  15
BRANCH  13  29
ATOM     29  C8  non d ame     -11.986   6.172  72.204  0.00  0.00    -0.049 C 
ATOM     30  H7  non d ame     -12.914   5.773  72.616  0.00  0.00     0.030 H 
ATOM     31  H8  non d ame     -11.331   5.348  71.920  0.00  0.00     0.030 H 
ATOM     32  H9  non d ame     -11.492   6.788  72.955  0.00  0.00     0.030 H 
ENDBRANCH  13  29
ENDBRANCH  10  13
ENDBRANCH   7   9
BRANCH   7  33
ATOM     33  C11 non d ame      -9.907  10.597  68.615  0.00  0.00    -0.033 C 
ATOM     34  H12 non d ame      -9.495  11.605  68.574  0.00  0.00     0.042 H 
BRANCH  33  35
ATOM     35  C12 non d ame      -8.709   9.599  68.568  0.00  0.00    -0.071 C 
ATOM     36  H13 non d ame      -8.916   8.752  69.223  0.00  0.00     0.028 H 
ATOM     37  H14 non d ame      -8.572   9.243  67.547  0.00  0.00     0.028 H 
ATOM     38  H15 non d ame      -7.803  10.104  68.902  0.00  0.00     0.028 H 
ENDBRANCH  33  35
BRANCH  33  39
ATOM     39  C13 non d ame     -10.849  10.409  67.383  0.00  0.00    -0.071 C 
ATOM     40  H16 non d ame     -11.543   9.591  67.577  0.00  0.00     0.028 H 
ATOM     41  H17 non d ame     -11.411  11.328  67.211  0.00  0.00     0.028 H 
ATOM     42  H18 non d ame     -10.252  10.178  66.501  0.00  0.00     0.028 H 
ENDBRANCH  33  39
ENDBRANCH   7  33
ENDBRANCH   4   7
ENDBRANCH   1   3
BRANCH   1  43
ATOM     43  C15 non d ame     -11.666  15.188  68.747  0.00  0.00     0.240 C 
ATOM     44  O5  non d ame     -12.069  16.304  68.804  0.00  0.00    -0.271 OA
ATOM     45  N6  non d ame     -10.864  14.748  67.570  0.00  0.00    -0.355 N 
ATOM     46  H46 non d ame     -10.512  13.803  67.513  0.00  0.00     0.162 HD
BRANCH  45  47
ATOM     47  C20 non d ame     -10.582  15.704  66.478  0.00  0.00     0.013 C 
ATOM     48  H30 non d ame     -11.344  16.482  66.508  0.00  0.00     0.072 H 
BRANCH  47  49
ATOM     49  C21 non d ame     -10.637  14.978  65.152  0.00  0.00    -0.038 C 
ATOM     50  H31 non d ame     -11.541  15.335  64.658  0.00  0.00     0.036 H 
ATOM     51  H32 non d ame      -9.663  15.137  64.689  0.00  0.00     0.036 H 
BRANCH  49  52
ATOM     52  C22 non d ame     -10.801  13.451  65.312  0.00  0.00     0.018 C 
ATOM     53  H33 non d ame      -9.791  13.055  65.422  0.00  0.00     0.048 H 
ATOM     54  H34 non d ame     -11.530  13.314  66.111  0.00  0.00     0.048 H 
BRANCH  52  55
ATOM     55  C23 non d ame     -11.401  12.751  64.060  0.00  0.00     0.259 C 
ATOM     56  O7  non d ame     -12.211  13.305  63.390  0.00  0.00    -0.265 OA
BRANCH  55  57
ATOM     57  O8  non d ame     -10.980  11.433  63.730  0.00  0.00    -0.317 OA
BRANCH  57  58
ATOM     58  C29 non d ame      -9.721  11.376  63.053  0.00  0.00     0.052 C 
ATOM     59  H47 non d ame      -9.959  11.350  61.989  0.00  0.00     0.082 H 
ATOM     60  H48 non d ame      -9.130  12.197  63.459  0.00  0.00     0.082 H 
BRANCH  58  61
ATOM     61  C35 non d ame      -9.032  10.040  63.435  0.00  0.00    -0.034 A 
ATOM     62  C30 non d ame      -9.234   9.487  64.696  0.00  0.00    -0.075 A 
ATOM     63  C31 non d ame      -8.615   8.287  65.040  0.00  0.00    -0.082 A 
ATOM     64  H49 non d ame      -9.879   9.994  65.414  0.00  0.00     0.084 H 
ATOM     65  C32 non d ame      -7.787   7.639  64.118  0.00  0.00    -0.083 A 
ATOM     66  H50 non d ame      -8.777   7.855  66.027  0.00  0.00     0.083 H 
ATOM     67  C33 non d ame      -7.585   8.196  62.862  0.00  0.00    -0.082 A 
ATOM     68  H51 non d ame      -7.299   6.700  64.378  0.00  0.00     0.083 H 
ATOM     69  C34 non d ame      -8.204   9.395  62.514  0.00  0.00    -0.075 A 
ATOM     70  H52 non d ame      -6.938   7.690  62.146  0.00  0.00     0.083 H 
ATOM     71  H53 non d ame      -8.042   9.825  61.525  0.00  0.00     0.084 H 
ENDBRANCH  58  61
ENDBRANCH  57  58
ENDBRANCH  55  57
ENDBRANCH  52  55
ENDBRANCH  49  52
ENDBRANCH  47  49
BRANCH  47  72
ATOM     72  C24 non d ame      -9.194  16.311  66.669  0.00  0.00    -0.039 C 
ATOM     73  H35 non d ame      -8.688  15.661  67.383  0.00  0.00     0.036 H 
ATOM     74  H36 non d ame      -8.790  16.434  65.664  0.00  0.00     0.036 H 
BRANCH  72  75
ATOM     75  C25 non d ame      -9.271  17.769  67.328  0.00  0.00    -0.001 C 
ATOM     76  C26 non d ame     -10.515  18.618  66.668  0.00  0.00    -0.035 C 
ATOM     77  C27 non d ame     -10.051  19.821  66.254  0.00  0.00     0.085 C 
ATOM     78  H38 non d ame     -10.844  18.140  65.745  0.00  0.00     0.036 H 
ATOM     79  H39 non d ame     -11.242  18.876  67.438  0.00  0.00     0.036 H 
ATOM     80  N5  non d ame      -8.543  19.743  66.273  0.00  0.00    -0.049 N 
ATOM     81  H40 non d ame     -10.388  19.924  65.222  0.00  0.00     0.075 H 
ATOM     82  H41 non d ame     -10.379  20.535  67.008  0.00  0.00     0.075 H 
ATOM     83  C28 non d ame      -8.177  18.428  67.135  0.00  0.00     0.193 C 
ATOM     84  H42 non d ame      -8.252  19.593  65.318  0.00  0.00     0.280 HD
ATOM     85  H43 non d ame      -8.221  20.557  66.777  0.00  0.00     0.280 HD
ATOM     86  H44 non d ame      -7.817  18.520  68.160  0.00  0.00     0.129 H 
ATOM     87  H37 non d ame      -9.218  17.733  68.417  0.00  0.00     0.046 H 
BRANCH  83  88
ATOM     88  O6  non d ame      -7.192  17.650  66.452  0.00  0.00    -0.369 OA
ATOM     89  H45 non d ame      -6.969  16.881  66.982  0.00  0.00     0.212 HD
ENDBRANCH  83  88
ENDBRANCH  72  75
ENDBRANCH  47  72
ENDBRANCH  45  47
ENDBRANCH   1  43
BRANCH   1  90
ATOM     90  C16 non d ame     -11.688  14.866  71.241  0.00  0.00    -0.035 C 
ATOM     91  H21 non d ame     -11.273  14.082  71.875  0.00  0.00     0.037 H 
ATOM     92  H22 non d ame     -11.091  15.746  71.001  0.00  0.00     0.037 H 
BRANCH  90  93
ATOM     93  C17 non d ame     -12.970  15.387  71.965  0.00  0.00    -0.059 C 
ATOM     94  H23 non d ame     -13.193  16.378  71.571  0.00  0.00     0.038 H 
BRANCH  93  95
ATOM     95  C18 non d ame     -14.211  14.477  71.694  0.00  0.00    -0.073 C 
ATOM     96  H24 non d ame     -14.256  13.691  72.448  0.00  0.00     0.028 H 
ATOM     97  H25 non d ame     -15.119  15.078  71.740  0.00  0.00     0.028 H 
ATOM     98  H26 non d ame     -14.122  14.027  70.705  0.00  0.00     0.028 H 
ENDBRANCH  93  95
BRANCH  93  99
ATOM     99  C19 non d ame     -12.725  15.540  73.468  0.00  0.00    -0.073 C 
ATOM    100  H27 non d ame     -12.122  16.430  73.649  0.00  0.00     0.028 H 
ATOM    101  H28 non d ame     -13.681  15.637  73.984  0.00  0.00     0.028 H 
ATOM    102  H29 non d ame     -12.199  14.662  73.842  0.00  0.00     0.028 H 
ENDBRANCH  93  99
ENDBRANCH  90  93
ENDBRANCH   1  90
TORSDOF 26
ENDMDL
MODEL 12
REMARK VINA RESULT:      -6.3      2.836      7.486
REMARK  26 active torsions:
REMARK  status: ('A' for Active; 'I' for Inactive)
REMARK    1  A    between atoms: C2_2  and  C3_3 
REMARK    2  A    between atoms: C4_6  and  C5_7 
REMARK       I    between atoms: C5_7  and  N2_9 
REMARK    3  A    between atoms: N2_9  and  C6_10 
REMARK    4  A    between atoms: C6_10  and  C7_11 
REMARK    5  A    between atoms: C6_10  and  C8_13 
REMARK       I    between atoms: C7_11  and  N3_14 
REMARK    6  A    between atoms: N3_14  and  C9_15 
REMARK    7  A    between atoms: C9_15  and  C10_16 
REMARK    8  A    between atoms: C9_15  and  C11_18 
REMARK       I    between atoms: C10_16  and  N4_21 
REMARK    9  A    between atoms: C11_18  and  C12_19 
REMARK   10  A    between atoms: C11_18  and  C13_20 
REMARK   11  A    between atoms: N4_21  and  C14_22 
REMARK   12  A    between atoms: C14_22  and  C15_23 
REMARK   13  A    between atoms: C14_22  and  C16_25 
REMARK       I    between atoms: C15_23  and  N6_40 
REMARK   14  A    between atoms: C16_25  and  C17_26 
REMARK   15  A    between atoms: C17_26  and  C18_27 
REMARK   16  A    between atoms: C17_26  and  C19_28 
REMARK   17  A    between atoms: C20_29  and  C21_30 
REMARK   18  A    between atoms: C20_29  and  C24_33 
REMARK   19  A    between atoms: C20_29  and  N6_40 
REMARK   20  A    between atoms: C21_30  and  C22_31 
REMARK   21  A    between atoms: C22_31  and  C23_32 
REMARK   22  A    between atoms: C23_32  and  O8_43 
REMARK   23  A    between atoms: C24_33  and  C25_34 
REMARK   24  A    between atoms: C28_38  and  O6_39 
REMARK   25  A    between atoms: C29_42  and  O8_43 
REMARK   26  A    between atoms: C29_42  and  C35_49 
ROOT
ATOM      1  C14 non d ame      -7.061  13.132  67.463  0.00  0.00     0.089 C 
ATOM      2  H20 non d ame      -6.768  13.587  66.517  0.00  0.00     0.087 H 
ENDROOT
BRANCH   1   3
ATOM      3  N4  non d ame      -7.878  14.099  68.181  0.00  0.00    -0.346 N 
ATOM      4  C10 non d ame      -8.795  15.029  67.428  0.00  0.00     0.241 C 
ATOM      5  O4  non d ame      -8.857  14.982  66.244  0.00  0.00    -0.271 OA
ATOM      6  H19 non d ame      -7.809  14.124  69.189  0.00  0.00     0.163 HD
BRANCH   4   7
ATOM      7  C9  non d ame      -9.638  16.019  68.188  0.00  0.00     0.092 C 
ATOM      8  H11 non d ame     -10.467  16.342  67.558  0.00  0.00     0.088 H 
BRANCH   7   9
ATOM      9  N3  non d ame     -10.217  15.367  69.366  0.00  0.00    -0.346 N 
ATOM     10  C7  non d ame     -11.616  15.541  69.670  0.00  0.00     0.240 C 
ATOM     11  O3  non d ame     -12.290  16.203  68.979  0.00  0.00    -0.271 OA
ATOM     12  H10 non d ame      -9.648  14.794  69.972  0.00  0.00     0.163 HD
BRANCH  10  13
ATOM     13  C6  non d ame     -12.227  14.846  70.927  0.00  0.00     0.086 C 
ATOM     14  H6  non d ame     -13.304  14.992  71.008  0.00  0.00     0.086 H 
BRANCH  13  15
ATOM     15  N2  non d ame     -12.007  13.413  70.827  0.00  0.00    -0.343 N 
ATOM     16  C5  non d ame     -12.904  12.495  71.532  0.00  0.00     0.273 C 
ATOM     17  O2  non d ame     -13.798  12.919  72.179  0.00  0.00    -0.266 OA
ATOM     18  H5  non d ame     -11.239  13.059  70.275  0.00  0.00     0.163 HD
BRANCH  16  19
ATOM     19  C4  non d ame     -12.685  10.977  71.434  0.00  0.00     0.154 A 
ATOM     20  C1  non d ame     -11.660  10.297  70.702  0.00  0.00    -0.017 A 
ATOM     21  C2  non d ame     -11.896   8.924  70.937  0.00  0.00     0.077 A 
ATOM     22  H1  non d ame     -10.867  10.733  70.094  0.00  0.00     0.091 H 
ATOM     23  O1  non d ame     -12.935   8.837  71.714  0.00  0.00    -0.218 OA
ATOM     24  N1  non d ame     -13.413  10.022  72.018  0.00  0.00    -0.123 NA
BRANCH  21  25
ATOM     25  C3  non d ame     -11.082   7.762  70.382  0.00  0.00    -0.029 C 
ATOM     26  H2  non d ame     -11.402   7.549  69.362  0.00  0.00     0.036 H 
ATOM     27  H3  non d ame     -10.025   8.025  70.385  0.00  0.00     0.036 H 
ATOM     28  H4  non d ame     -11.238   6.880  71.004  0.00  0.00     0.036 H 
ENDBRANCH  21  25
ENDBRANCH  16  19
ENDBRANCH  13  15
BRANCH  13  29
ATOM     29  C8  non d ame     -11.568  15.384  72.172  0.00  0.00    -0.049 C 
ATOM     30  H7  non d ame     -11.009  16.287  71.926  0.00  0.00     0.030 H 
ATOM     31  H8  non d ame     -12.330  15.619  72.914  0.00  0.00     0.030 H 
ATOM     32  H9  non d ame     -10.887  14.635  72.575  0.00  0.00     0.030 H 
ENDBRANCH  13  29
ENDBRANCH  10  13
ENDBRANCH   7   9
BRANCH   7  33
ATOM     33  C11 non d ame      -8.749  17.213  68.644  0.00  0.00    -0.033 C 
ATOM     34  H12 non d ame      -8.453  17.027  69.676  0.00  0.00     0.042 H 
BRANCH  33  35
ATOM     35  C12 non d ame      -7.446  17.310  67.792  0.00  0.00    -0.071 C 
ATOM     36  H13 non d ame      -6.577  17.222  68.445  0.00  0.00     0.028 H 
ATOM     37  H14 non d ame      -7.431  16.505  67.058  0.00  0.00     0.028 H 
ATOM     38  H15 non d ame      -7.419  18.271  67.278  0.00  0.00     0.028 H 
ENDBRANCH  33  35
BRANCH  33  39
ATOM     39  C13 non d ame      -9.552  18.554  68.607  0.00  0.00    -0.071 C 
ATOM     40  H16 non d ame      -9.852  18.769  67.582  0.00  0.00     0.028 H 
ATOM     41  H17 non d ame     -10.439  18.464  69.235  0.00  0.00     0.028 H 
ATOM     42  H18 non d ame      -8.924  19.363  68.980  0.00  0.00     0.028 H 
ENDBRANCH  33  39
ENDBRANCH   7  33
ENDBRANCH   4   7
ENDBRANCH   1   3
BRANCH   1  43
ATOM     43  C15 non d ame      -7.894  11.834  67.258  0.00  0.00     0.240 C 
ATOM     44  O5  non d ame      -8.445  11.333  68.184  0.00  0.00    -0.271 OA
ATOM     45  N6  non d ame      -8.013  11.222  65.904  0.00  0.00    -0.355 N 
ATOM     46  H46 non d ame      -7.553  11.641  65.109  0.00  0.00     0.162 HD
BRANCH  45  47
ATOM     47  C20 non d ame      -8.810   9.989  65.725  0.00  0.00     0.013 C 
ATOM     48  H30 non d ame      -9.133   9.652  66.710  0.00  0.00     0.072 H 
BRANCH  47  49
ATOM     49  C21 non d ame      -7.952   8.929  65.072  0.00  0.00    -0.038 C 
ATOM     50  H31 non d ame      -6.928   9.300  65.134  0.00  0.00     0.036 H 
ATOM     51  H32 non d ame      -8.223   7.991  65.558  0.00  0.00     0.036 H 
BRANCH  49  52
ATOM     52  C22 non d ame      -8.261   8.749  63.570  0.00  0.00     0.018 C 
ATOM     53  H33 non d ame      -8.153   7.682  63.372  0.00  0.00     0.048 H 
ATOM     54  H34 non d ame      -9.221   9.239  63.406  0.00  0.00     0.048 H 
BRANCH  52  55
ATOM     55  C23 non d ame      -7.249   9.463  62.632  0.00  0.00     0.259 C 
ATOM     56  O7  non d ame      -7.382  10.614  62.366  0.00  0.00    -0.265 OA
BRANCH  55  57
ATOM     57  O8  non d ame      -6.167   8.722  62.081  0.00  0.00    -0.317 OA
BRANCH  57  58
ATOM     58  C29 non d ame      -4.917   8.939  62.742  0.00  0.00     0.052 C 
ATOM     59  H47 non d ame      -4.160   8.908  61.959  0.00  0.00     0.082 H 
ATOM     60  H48 non d ame      -5.050   9.844  63.336  0.00  0.00     0.082 H 
BRANCH  58  61
ATOM     61  C35 non d ame      -4.673   7.750  63.709  0.00  0.00    -0.034 A 
ATOM     62  C30 non d ame      -5.228   6.504  63.434  0.00  0.00    -0.075 A 
ATOM     63  C31 non d ame      -5.009   5.435  64.302  0.00  0.00    -0.082 A 
ATOM     64  H49 non d ame      -5.834   6.365  62.538  0.00  0.00     0.084 H 
ATOM     65  C32 non d ame      -4.234   5.617  65.450  0.00  0.00    -0.083 A 
ATOM     66  H50 non d ame      -5.443   4.460  64.083  0.00  0.00     0.083 H 
ATOM     67  C33 non d ame      -3.685   6.863  65.722  0.00  0.00    -0.082 A 
ATOM     68  H51 non d ame      -4.057   4.786  66.134  0.00  0.00     0.083 H 
ATOM     69  C34 non d ame      -3.899   7.933  64.856  0.00  0.00    -0.075 A 
ATOM     70  H52 non d ame      -3.082   7.001  66.620  0.00  0.00     0.083 H 
ATOM     71  H53 non d ame      -3.464   8.908  65.076  0.00  0.00     0.084 H 
ENDBRANCH  58  61
ENDBRANCH  57  58
ENDBRANCH  55  57
ENDBRANCH  52  55
ENDBRANCH  49  52
ENDBRANCH  47  49
BRANCH  47  72
ATOM     72  C24 non d ame     -10.021  10.281  64.841  0.00  0.00    -0.039 C 
ATOM     73  H35 non d ame      -9.783   9.845  63.870  0.00  0.00     0.036 H 
ATOM     74  H36 non d ame     -10.883   9.922  65.403  0.00  0.00     0.036 H 
BRANCH  72  75
ATOM     75  C25 non d ame     -10.224  11.854  64.615  0.00  0.00    -0.001 C 
ATOM     76  C26 non d ame     -11.498  12.387  65.509  0.00  0.00    -0.035 C 
ATOM     77  C27 non d ame     -12.336  13.082  64.702  0.00  0.00     0.085 C 
ATOM     78  H38 non d ame     -12.103  11.543  65.838  0.00  0.00     0.036 H 
ATOM     79  H39 non d ame     -11.162  13.133  66.230  0.00  0.00     0.036 H 
ATOM     80  N5  non d ame     -11.920  12.794  63.280  0.00  0.00    -0.049 N 
ATOM     81  H40 non d ame     -13.326  12.658  64.876  0.00  0.00     0.075 H 
ATOM     82  H41 non d ame     -12.147  14.132  64.922  0.00  0.00     0.075 H 
ATOM     83  C28 non d ame     -10.455  12.122  63.373  0.00  0.00     0.193 C 
ATOM     84  H42 non d ame     -12.568  12.105  62.926  0.00  0.00     0.280 HD
ATOM     85  H43 non d ame     -11.833  13.689  62.820  0.00  0.00     0.280 HD
ATOM     86  H44 non d ame      -9.564  12.699  63.127  0.00  0.00     0.129 H 
ATOM     87  H37 non d ame      -9.290  12.408  64.703  0.00  0.00     0.046 H 
BRANCH  83  88
ATOM     88  O6  non d ame     -10.395  10.956  62.550  0.00  0.00    -0.369 OA
ATOM     89  H45 non d ame     -10.370  11.217  61.627  0.00  0.00     0.212 HD
ENDBRANCH  83  88
ENDBRANCH  72  75
ENDBRANCH  47  72
ENDBRANCH  45  47
ENDBRANCH   1  43
BRANCH   1  90
ATOM     90  C16 non d ame      -5.822  12.818  68.288  0.00  0.00    -0.035 C 
ATOM     91  H21 non d ame      -6.051  11.889  68.810  0.00  0.00     0.037 H 
ATOM     92  H22 non d ame      -4.990  12.858  67.586  0.00  0.00     0.037 H 
BRANCH  90  93
ATOM     93  C17 non d ame      -5.520  13.881  69.392  0.00  0.00    -0.059 C 
ATOM     94  H23 non d ame      -6.299  14.642  69.342  0.00  0.00     0.038 H 
BRANCH  93  95
ATOM     95  C18 non d ame      -5.547  13.265  70.827  0.00  0.00    -0.073 C 
ATOM     96  H24 non d ame      -6.219  12.407  70.841  0.00  0.00     0.028 H 
ATOM     97  H25 non d ame      -4.542  12.945  71.104  0.00  0.00     0.028 H 
ATOM     98  H26 non d ame      -5.899  14.013  71.538  0.00  0.00     0.028 H 
ENDBRANCH  93  95
BRANCH  93  99
ATOM     99  C19 non d ame      -4.185  14.581  69.126  0.00  0.00    -0.073 C 
ATOM    100  H27 non d ame      -3.580  14.570  70.033  0.00  0.00     0.028 H 
ATOM    101  H28 non d ame      -3.654  14.059  68.329  0.00  0.00     0.028 H 
ATOM    102  H29 non d ame      -4.368  15.612  68.824  0.00  0.00     0.028 H 
ENDBRANCH  93  99
ENDBRANCH  90  93
ENDBRANCH   1  90
TORSDOF 26
ENDMDL
MODEL 13
REMARK VINA RESULT:      -6.2      2.730      7.096
REMARK  26 active torsions:
REMARK  status: ('A' for Active; 'I' for Inactive)
REMARK    1  A    between atoms: C2_2  and  C3_3 
REMARK    2  A    between atoms: C4_6  and  C5_7 
REMARK       I    between atoms: C5_7  and  N2_9 
REMARK    3  A    between atoms: N2_9  and  C6_10 
REMARK    4  A    between atoms: C6_10  and  C7_11 
REMARK    5  A    between atoms: C6_10  and  C8_13 
REMARK       I    between atoms: C7_11  and  N3_14 
REMARK    6  A    between atoms: N3_14  and  C9_15 
REMARK    7  A    between atoms: C9_15  and  C10_16 
REMARK    8  A    between atoms: C9_15  and  C11_18 
REMARK       I    between atoms: C10_16  and  N4_21 
REMARK    9  A    between atoms: C11_18  and  C12_19 
REMARK   10  A    between atoms: C11_18  and  C13_20 
REMARK   11  A    between atoms: N4_21  and  C14_22 
REMARK   12  A    between atoms: C14_22  and  C15_23 
REMARK   13  A    between atoms: C14_22  and  C16_25 
REMARK       I    between atoms: C15_23  and  N6_40 
REMARK   14  A    between atoms: C16_25  and  C17_26 
REMARK   15  A    between atoms: C17_26  and  C18_27 
REMARK   16  A    between atoms: C17_26  and  C19_28 
REMARK   17  A    between atoms: C20_29  and  C21_30 
REMARK   18  A    between atoms: C20_29  and  C24_33 
REMARK   19  A    between atoms: C20_29  and  N6_40 
REMARK   20  A    between atoms: C21_30  and  C22_31 
REMARK   21  A    between atoms: C22_31  and  C23_32 
REMARK   22  A    between atoms: C23_32  and  O8_43 
REMARK   23  A    between atoms: C24_33  and  C25_34 
REMARK   24  A    between atoms: C28_38  and  O6_39 
REMARK   25  A    between atoms: C29_42  and  O8_43 
REMARK   26  A    between atoms: C29_42  and  C35_49 
ROOT
ATOM      1  C14 non d ame      -9.144   8.900  68.055  0.00  0.00     0.089 C 
ATOM      2  H20 non d ame      -9.589   7.937  67.803  0.00  0.00     0.087 H 
ENDROOT
BRANCH   1   3
ATOM      3  N4  non d ame      -9.258   9.755  66.883  0.00  0.00    -0.346 N 
ATOM      4  C10 non d ame      -9.203   9.161  65.498  0.00  0.00     0.241 C 
ATOM      5  O4  non d ame      -9.064   7.992  65.352  0.00  0.00    -0.271 OA
ATOM      6  H19 non d ame      -9.374  10.748  67.029  0.00  0.00     0.163 HD
BRANCH   4   7
ATOM      7  C9  non d ame      -9.329  10.061  64.297  0.00  0.00     0.092 C 
ATOM      8  H11 non d ame     -10.184   9.744  63.699  0.00  0.00     0.088 H 
BRANCH   7   9
ATOM      9  N3  non d ame      -9.594  11.433  64.739  0.00  0.00    -0.346 N 
ATOM     10  C7  non d ame     -10.893  12.022  64.521  0.00  0.00     0.240 C 
ATOM     11  O3  non d ame     -11.735  11.407  63.990  0.00  0.00    -0.271 OA
ATOM     12  H10 non d ame      -8.877  11.977  65.197  0.00  0.00     0.163 HD
BRANCH  10  13
ATOM     13  C6  non d ame     -11.168  13.485  64.991  0.00  0.00     0.086 C 
ATOM     14  H6  non d ame     -11.689  13.529  65.947  0.00  0.00     0.086 H 
BRANCH  13  15
ATOM     15  N2  non d ame      -9.898  14.167  65.177  0.00  0.00    -0.343 N 
ATOM     16  C5  non d ame      -9.801  15.258  66.149  0.00  0.00     0.273 C 
ATOM     17  O2  non d ame     -10.751  15.582  66.774  0.00  0.00    -0.266 OA
ATOM     18  H5  non d ame      -9.092  13.885  64.637  0.00  0.00     0.163 HD
BRANCH  16  19
ATOM     19  C4  non d ame      -8.464  15.987  66.358  0.00  0.00     0.154 A 
ATOM     20  C1  non d ame      -7.356  15.551  67.151  0.00  0.00    -0.017 A 
ATOM     21  C2  non d ame      -6.386  16.568  67.010  0.00  0.00     0.077 A 
ATOM     22  H1  non d ame      -7.269  14.636  67.738  0.00  0.00     0.091 H 
ATOM     23  O1  non d ame      -6.888  17.476  66.226  0.00  0.00    -0.218 OA
ATOM     24  N1  non d ame      -8.100  17.160  65.832  0.00  0.00    -0.123 NA
BRANCH  21  25
ATOM     25  C3  non d ame      -5.007  16.594  67.657  0.00  0.00    -0.029 C 
ATOM     26  H2  non d ame      -4.592  17.600  67.587  0.00  0.00     0.036 H 
ATOM     27  H3  non d ame      -5.093  16.309  68.706  0.00  0.00     0.036 H 
ATOM     28  H4  non d ame      -4.350  15.893  67.142  0.00  0.00     0.036 H 
ENDBRANCH  21  25
ENDBRANCH  16  19
ENDBRANCH  13  15
BRANCH  13  29
ATOM     29  C8  non d ame     -11.992  14.203  63.953  0.00  0.00    -0.049 C 
ATOM     30  H7  non d ame     -13.001  13.789  63.940  0.00  0.00     0.030 H 
ATOM     31  H8  non d ame     -12.038  15.264  64.196  0.00  0.00     0.030 H 
ATOM     32  H9  non d ame     -11.534  14.073  62.973  0.00  0.00     0.030 H 
ENDBRANCH  13  29
ENDBRANCH  10  13
ENDBRANCH   7   9
BRANCH   7  33
ATOM     33  C11 non d ame      -8.002  10.028  63.483  0.00  0.00    -0.033 C 
ATOM     34  H12 non d ame      -7.885   9.020  63.086  0.00  0.00     0.042 H 
BRANCH  33  35
ATOM     35  C12 non d ame      -8.055  11.007  62.269  0.00  0.00    -0.071 C 
ATOM     36  H13 non d ame      -7.356  10.674  61.502  0.00  0.00     0.028 H 
ATOM     37  H14 non d ame      -9.065  11.021  61.858  0.00  0.00     0.028 H 
ATOM     38  H15 non d ame      -7.783  12.009  62.599  0.00  0.00     0.028 H 
ENDBRANCH  33  35
BRANCH  33  39
ATOM     39  C13 non d ame      -6.775  10.332  64.402  0.00  0.00    -0.071 C 
ATOM     40  H16 non d ame      -6.325  11.279  64.106  0.00  0.00     0.028 H 
ATOM     41  H17 non d ame      -7.105  10.394  65.440  0.00  0.00     0.028 H 
ATOM     42  H18 non d ame      -6.041   9.533  64.302  0.00  0.00     0.028 H 
ENDBRANCH  33  39
ENDBRANCH   7  33
ENDBRANCH   4   7
ENDBRANCH   1   3
BRANCH   1  43
ATOM     43  C15 non d ame      -9.871   9.589  69.245  0.00  0.00     0.240 C 
ATOM     44  O5  non d ame      -9.395   9.546  70.333  0.00  0.00    -0.271 OA
ATOM     45  N6  non d ame     -11.156  10.312  69.025  0.00  0.00    -0.355 N 
ATOM     46  H46 non d ame     -11.567  10.360  68.104  0.00  0.00     0.162 HD
BRANCH  45  47
ATOM     47  C20 non d ame     -11.834  10.964  70.167  0.00  0.00     0.013 C 
ATOM     48  H30 non d ame     -11.096  11.117  70.953  0.00  0.00     0.072 H 
BRANCH  47  49
ATOM     49  C21 non d ame     -12.944  10.067  70.667  0.00  0.00    -0.038 C 
ATOM     50  H31 non d ame     -13.831  10.697  70.721  0.00  0.00     0.036 H 
ATOM     51  H32 non d ame     -12.934   9.194  70.014  0.00  0.00     0.036 H 
BRANCH  49  52
ATOM     52  C22 non d ame     -12.692   9.544  72.098  0.00  0.00     0.018 C 
ATOM     53  H33 non d ame     -12.068  10.296  72.582  0.00  0.00     0.048 H 
ATOM     54  H34 non d ame     -13.676   9.309  72.504  0.00  0.00     0.048 H 
BRANCH  52  55
ATOM     55  C23 non d ame     -11.882   8.219  72.147  0.00  0.00     0.259 C 
ATOM     56  O7  non d ame     -11.208   7.958  73.090  0.00  0.00    -0.265 OA
BRANCH  55  57
ATOM     57  O8  non d ame     -11.944   7.323  71.044  0.00  0.00    -0.317 OA
BRANCH  57  58
ATOM     58  C29 non d ame     -11.193   6.119  71.228  0.00  0.00     0.052 C 
ATOM     59  H47 non d ame     -10.323   6.402  71.821  0.00  0.00     0.082 H 
ATOM     60  H48 non d ame     -11.900   5.386  71.615  0.00  0.00     0.082 H 
BRANCH  58  61
ATOM     61  C35 non d ame     -10.704   5.642  69.835  0.00  0.00    -0.034 A 
ATOM     62  C30 non d ame      -9.738   4.645  69.739  0.00  0.00    -0.075 A 
ATOM     63  C31 non d ame      -9.299   4.217  68.487  0.00  0.00    -0.082 A 
ATOM     64  H49 non d ame      -9.326   4.200  70.644  0.00  0.00     0.084 H 
ATOM     65  C32 non d ame      -9.828   4.790  67.328  0.00  0.00    -0.083 A 
ATOM     66  H50 non d ame      -8.544   3.434  68.416  0.00  0.00     0.083 H 
ATOM     67  C33 non d ame     -10.789   5.787  67.428  0.00  0.00    -0.082 A 
ATOM     68  H51 non d ame      -9.490   4.461  66.345  0.00  0.00     0.083 H 
ATOM     69  C34 non d ame     -11.233   6.217  68.677  0.00  0.00    -0.075 A 
ATOM     70  H52 non d ame     -11.198   6.234  66.522  0.00  0.00     0.083 H 
ATOM     71  H53 non d ame     -11.989   6.999  68.748  0.00  0.00     0.084 H 
ENDBRANCH  58  61
ENDBRANCH  57  58
ENDBRANCH  55  57
ENDBRANCH  52  55
ENDBRANCH  49  52
ENDBRANCH  47  49
BRANCH  47  72
ATOM     72  C24 non d ame     -12.422  12.302  69.723  0.00  0.00    -0.039 C 
ATOM     73  H35 non d ame     -11.821  12.613  68.868  0.00  0.00     0.036 H 
ATOM     74  H36 non d ame     -13.490  12.124  69.601  0.00  0.00     0.036 H 
BRANCH  72  75
ATOM     75  C25 non d ame     -12.256  13.426  70.852  0.00  0.00    -0.001 C 
ATOM     76  C26 non d ame     -13.486  13.315  71.938  0.00  0.00    -0.035 C 
ATOM     77  C27 non d ame     -14.050  14.538  72.084  0.00  0.00     0.085 C 
ATOM     78  H38 non d ame     -14.293  12.709  71.527  0.00  0.00     0.036 H 
ATOM     79  H39 non d ame     -13.091  13.097  72.930  0.00  0.00     0.036 H 
ATOM     80  N5  non d ame     -13.533  15.400  70.957  0.00  0.00    -0.049 N 
ATOM     81  H40 non d ame     -15.121  14.382  71.949  0.00  0.00     0.075 H 
ATOM     82  H41 non d ame     -13.670  14.923  73.029  0.00  0.00     0.075 H 
ATOM     83  C28 non d ame     -12.269  14.610  70.338  0.00  0.00     0.193 C 
ATOM     84  H42 non d ame     -14.265  15.431  70.262  0.00  0.00     0.280 HD
ATOM     85  H43 non d ame     -13.202  16.255  71.381  0.00  0.00     0.280 HD
ATOM     86  H44 non d ame     -11.251  14.934  70.560  0.00  0.00     0.129 H 
ATOM     87  H37 non d ame     -11.242  13.462  71.253  0.00  0.00     0.046 H 
BRANCH  83  88
ATOM     88  O6  non d ame     -12.358  14.578  68.913  0.00  0.00    -0.369 OA
ATOM     89  H45 non d ame     -12.544  13.682  68.624  0.00  0.00     0.212 HD
ENDBRANCH  83  88
ENDBRANCH  72  75
ENDBRANCH  47  72
ENDBRANCH  45  47
ENDBRANCH   1  43
BRANCH   1  90
ATOM     90  C16 non d ame      -7.673   8.715  68.392  0.00  0.00    -0.035 C 
ATOM     91  H21 non d ame      -7.129   9.265  67.624  0.00  0.00     0.037 H 
ATOM     92  H22 non d ame      -7.579   9.004  69.439  0.00  0.00     0.037 H 
BRANCH  90  93
ATOM     93  C17 non d ame      -7.190   7.232  68.299  0.00  0.00    -0.059 C 
ATOM     94  H23 non d ame      -8.059   6.616  68.068  0.00  0.00     0.038 H 
BRANCH  93  95
ATOM     95  C18 non d ame      -6.142   7.025  67.159  0.00  0.00    -0.073 C 
ATOM     96  H24 non d ame      -5.316   6.419  67.532  0.00  0.00     0.028 H 
ATOM     97  H25 non d ame      -6.615   6.517  66.319  0.00  0.00     0.028 H 
ATOM     98  H26 non d ame      -5.764   7.994  66.832  0.00  0.00     0.028 H 
ENDBRANCH  93  95
BRANCH  93  99
ATOM     99  C19 non d ame      -6.636   6.752  69.643  0.00  0.00    -0.073 C 
ATOM    100  H27 non d ame      -6.024   5.863  69.487  0.00  0.00     0.028 H 
ATOM    101  H28 non d ame      -6.027   7.540  70.087  0.00  0.00     0.028 H 
ATOM    102  H29 non d ame      -7.462   6.512  70.312  0.00  0.00     0.028 H 
ENDBRANCH  93  99
ENDBRANCH  90  93
ENDBRANCH   1  90
TORSDOF 26
ENDMDL
MODEL 14
REMARK VINA RESULT:      -6.2      2.854      7.186
REMARK  26 active torsions:
REMARK  status: ('A' for Active; 'I' for Inactive)
REMARK    1  A    between atoms: C2_2  and  C3_3 
REMARK    2  A    between atoms: C4_6  and  C5_7 
REMARK       I    between atoms: C5_7  and  N2_9 
REMARK    3  A    between atoms: N2_9  and  C6_10 
REMARK    4  A    between atoms: C6_10  and  C7_11 
REMARK    5  A    between atoms: C6_10  and  C8_13 
REMARK       I    between atoms: C7_11  and  N3_14 
REMARK    6  A    between atoms: N3_14  and  C9_15 
REMARK    7  A    between atoms: C9_15  and  C10_16 
REMARK    8  A    between atoms: C9_15  and  C11_18 
REMARK       I    between atoms: C10_16  and  N4_21 
REMARK    9  A    between atoms: C11_18  and  C12_19 
REMARK   10  A    between atoms: C11_18  and  C13_20 
REMARK   11  A    between atoms: N4_21  and  C14_22 
REMARK   12  A    between atoms: C14_22  and  C15_23 
REMARK   13  A    between atoms: C14_22  and  C16_25 
REMARK       I    between atoms: C15_23  and  N6_40 
REMARK   14  A    between atoms: C16_25  and  C17_26 
REMARK   15  A    between atoms: C17_26  and  C18_27 
REMARK   16  A    between atoms: C17_26  and  C19_28 
REMARK   17  A    between atoms: C20_29  and  C21_30 
REMARK   18  A    between atoms: C20_29  and  C24_33 
REMARK   19  A    between atoms: C20_29  and  N6_40 
REMARK   20  A    between atoms: C21_30  and  C22_31 
REMARK   21  A    between atoms: C22_31  and  C23_32 
REMARK   22  A    between atoms: C23_32  and  O8_43 
REMARK   23  A    between atoms: C24_33  and  C25_34 
REMARK   24  A    between atoms: C28_38  and  O6_39 
REMARK   25  A    between atoms: C29_42  and  O8_43 
REMARK   26  A    between atoms: C29_42  and  C35_49 
ROOT
ATOM      1  C14 non d ame     -11.089   8.998  69.618  0.00  0.00     0.089 C 
ATOM      2  H20 non d ame     -12.068   8.534  69.744  0.00  0.00     0.087 H 
ENDROOT
BRANCH   1   3
ATOM      3  N4  non d ame     -10.222   8.023  68.971  0.00  0.00    -0.346 N 
ATOM      4  C10 non d ame     -10.592   6.561  68.965  0.00  0.00     0.241 C 
ATOM      5  O4  non d ame     -11.590   6.192  69.489  0.00  0.00    -0.271 OA
ATOM      6  H19 non d ame      -9.376   8.358  68.533  0.00  0.00     0.163 HD
BRANCH   4   7
ATOM      7  C9  non d ame      -9.686   5.568  68.286  0.00  0.00     0.092 C 
ATOM      8  H11 non d ame     -10.283   4.911  67.654  0.00  0.00     0.088 H 
BRANCH   7   9
ATOM      9  N3  non d ame      -8.749   6.278  67.410  0.00  0.00    -0.346 N 
ATOM     10  C7  non d ame      -8.723   5.989  65.997  0.00  0.00     0.240 C 
ATOM     11  O3  non d ame      -9.447   5.186  65.549  0.00  0.00    -0.271 OA
ATOM     12  H10 non d ame      -8.117   6.972  67.783  0.00  0.00     0.163 HD
BRANCH  10  13
ATOM     13  C6  non d ame      -7.721   6.746  65.071  0.00  0.00     0.086 C 
ATOM     14  H6  non d ame      -7.289   6.104  64.303  0.00  0.00     0.086 H 
BRANCH  13  15
ATOM     15  N2  non d ame      -8.432   7.805  64.375  0.00  0.00    -0.343 N 
ATOM     16  C5  non d ame      -8.924   8.960  65.129  0.00  0.00     0.273 C 
ATOM     17  O2  non d ame      -8.745   9.026  66.296  0.00  0.00    -0.266 OA
ATOM     18  H5  non d ame      -8.583   7.740  63.378  0.00  0.00     0.163 HD
BRANCH  16  19
ATOM     19  C4  non d ame      -9.676  10.089  64.406  0.00  0.00     0.154 A 
ATOM     20  C1  non d ame     -10.458  11.128  65.003  0.00  0.00    -0.017 A 
ATOM     21  C2  non d ame     -10.929  11.899  63.916  0.00  0.00     0.077 A 
ATOM     22  H1  non d ame     -10.653  11.298  66.062  0.00  0.00     0.091 H 
ATOM     23  O1  non d ame     -10.465  11.357  62.828  0.00  0.00    -0.218 OA
ATOM     24  N1  non d ame      -9.732  10.300  63.088  0.00  0.00    -0.123 NA
BRANCH  21  25
ATOM     25  C3  non d ame     -11.814  13.134  64.004  0.00  0.00    -0.029 C 
ATOM     26  H2  non d ame     -12.567  12.989  64.780  0.00  0.00     0.036 H 
ATOM     27  H3  non d ame     -11.203  14.003  64.250  0.00  0.00     0.036 H 
ATOM     28  H4  non d ame     -12.308  13.297  63.046  0.00  0.00     0.036 H 
ENDBRANCH  21  25
ENDBRANCH  16  19
ENDBRANCH  13  15
BRANCH  13  29
ATOM     29  C8  non d ame      -6.608   7.331  65.902  0.00  0.00    -0.049 C 
ATOM     30  H7  non d ame      -5.711   7.430  65.289  0.00  0.00     0.030 H 
ATOM     31  H8  non d ame      -6.906   8.312  66.271  0.00  0.00     0.030 H 
ATOM     32  H9  non d ame      -6.400   6.672  66.745  0.00  0.00     0.030 H 
ENDBRANCH  13  29
ENDBRANCH  10  13
ENDBRANCH   7   9
BRANCH   7  33
ATOM     33  C11 non d ame      -8.886   4.776  69.362  0.00  0.00    -0.033 C 
ATOM     34  H12 non d ame      -7.978   4.403  68.888  0.00  0.00     0.042 H 
BRANCH  33  35
ATOM     35  C12 non d ame      -8.454   5.699  70.543  0.00  0.00    -0.071 C 
ATOM     36  H13 non d ame      -7.367   5.694  70.629  0.00  0.00     0.028 H 
ATOM     37  H14 non d ame      -8.797   6.716  70.353  0.00  0.00     0.028 H 
ATOM     38  H15 non d ame      -8.894   5.333  71.470  0.00  0.00     0.028 H 
ENDBRANCH  33  35
BRANCH  33  39
ATOM     39  C13 non d ame      -9.704   3.547  69.874  0.00  0.00    -0.071 C 
ATOM     40  H16 non d ame     -10.615   3.445  69.284  0.00  0.00     0.028 H 
ATOM     41  H17 non d ame      -9.103   2.642  69.773  0.00  0.00     0.028 H 
ATOM     42  H18 non d ame      -9.964   3.695  70.922  0.00  0.00     0.028 H 
ENDBRANCH  33  39
ENDBRANCH   7  33
ENDBRANCH   4   7
ENDBRANCH   1   3
BRANCH   1  43
ATOM     43  C15 non d ame     -11.153  10.272  68.727  0.00  0.00     0.240 C 
ATOM     44  O5  non d ame     -11.629  10.209  67.640  0.00  0.00    -0.271 OA
ATOM     45  N6  non d ame     -10.629  11.572  69.234  0.00  0.00    -0.355 N 
ATOM     46  H46 non d ame     -10.227  11.638  70.158  0.00  0.00     0.162 HD
BRANCH  45  47
ATOM     47  C20 non d ame     -10.698  12.774  68.376  0.00  0.00     0.013 C 
ATOM     48  H30 non d ame     -10.766  12.443  67.339  0.00  0.00     0.072 H 
BRANCH  47  49
ATOM     49  C21 non d ame      -9.448  13.602  68.573  0.00  0.00    -0.038 C 
ATOM     50  H31 non d ame      -9.795  14.604  68.827  0.00  0.00     0.036 H 
ATOM     51  H32 non d ame      -8.833  13.042  69.278  0.00  0.00     0.036 H 
BRANCH  49  52
ATOM     52  C22 non d ame      -8.613  13.743  67.282  0.00  0.00     0.018 C 
ATOM     53  H33 non d ame      -8.036  12.822  67.201  0.00  0.00     0.048 H 
ATOM     54  H34 non d ame      -9.323  14.012  66.499  0.00  0.00     0.048 H 
BRANCH  52  55
ATOM     55  C23 non d ame      -7.574  14.898  67.332  0.00  0.00     0.259 C 
ATOM     56  O7  non d ame      -6.639  14.836  68.062  0.00  0.00    -0.265 OA
BRANCH  55  57
ATOM     57  O8  non d ame      -7.759  16.038  66.502  0.00  0.00    -0.317 OA
BRANCH  57  58
ATOM     58  C29 non d ame      -9.128  16.333  66.214  0.00  0.00     0.052 C 
ATOM     59  H47 non d ame      -9.180  16.471  65.134  0.00  0.00     0.082 H 
ATOM     60  H48 non d ame      -9.707  15.541  66.690  0.00  0.00     0.082 H 
BRANCH  58  61
ATOM     61  C35 non d ame      -9.483  17.679  66.899  0.00  0.00    -0.034 A 
ATOM     62  C30 non d ame      -9.125  17.902  68.225  0.00  0.00    -0.075 A 
ATOM     63  C31 non d ame      -9.444  19.111  68.841  0.00  0.00    -0.082 A 
ATOM     64  H49 non d ame      -8.596  17.128  68.782  0.00  0.00     0.084 H 
ATOM     65  C32 non d ame     -10.125  20.100  68.125  0.00  0.00    -0.083 A 
ATOM     66  H50 non d ame      -9.160  19.283  69.879  0.00  0.00     0.083 H 
ATOM     67  C33 non d ame     -10.482  19.873  66.803  0.00  0.00    -0.082 A 
ATOM     68  H51 non d ame     -10.377  21.049  68.599  0.00  0.00     0.083 H 
ATOM     69  C34 non d ame     -10.164  18.666  66.183  0.00  0.00    -0.075 A 
ATOM     70  H52 non d ame     -11.015  20.645  66.249  0.00  0.00     0.083 H 
ATOM     71  H53 non d ame     -10.447  18.495  65.144  0.00  0.00     0.084 H 
ENDBRANCH  58  61
ENDBRANCH  57  58
ENDBRANCH  55  57
ENDBRANCH  52  55
ENDBRANCH  49  52
ENDBRANCH  47  49
BRANCH  47  72
ATOM     72  C24 non d ame     -11.924  13.605  68.749  0.00  0.00    -0.039 C 
ATOM     73  H35 non d ame     -11.895  14.476  68.094  0.00  0.00     0.036 H 
ATOM     74  H36 non d ame     -12.767  12.916  68.700  0.00  0.00     0.036 H 
BRANCH  72  75
ATOM     75  C25 non d ame     -11.839  14.143  70.255  0.00  0.00    -0.001 C 
ATOM     76  C26 non d ame     -12.872  13.294  71.212  0.00  0.00    -0.035 C 
ATOM     77  C27 non d ame     -13.644  14.167  71.903  0.00  0.00     0.085 C 
ATOM     78  H38 non d ame     -13.589  12.750  70.598  0.00  0.00     0.036 H 
ATOM     79  H39 non d ame     -12.316  12.773  71.992  0.00  0.00     0.036 H 
ATOM     80  N5  non d ame     -13.458  15.522  71.265  0.00  0.00    -0.049 N 
ATOM     81  H40 non d ame     -14.671  13.836  71.744  0.00  0.00     0.075 H 
ATOM     82  H41 non d ame     -13.228  14.189  72.910  0.00  0.00     0.075 H 
ATOM     83  C28 non d ame     -12.153  15.394  70.323  0.00  0.00     0.193 C 
ATOM     84  H42 non d ame     -14.265  15.674  70.677  0.00  0.00     0.280 HD
ATOM     85  H43 non d ame     -13.251  16.166  72.015  0.00  0.00     0.280 HD
ATOM     86  H44 non d ame     -11.200  15.821  70.636  0.00  0.00     0.129 H 
ATOM     87  H37 non d ame     -10.810  14.242  70.601  0.00  0.00     0.046 H 
BRANCH  83  88
ATOM     88  O6  non d ame     -12.418  15.954  69.036  0.00  0.00    -0.369 OA
ATOM     89  H45 non d ame     -12.990  16.719  69.131  0.00  0.00     0.212 HD
ENDBRANCH  83  88
ENDBRANCH  72  75
ENDBRANCH  47  72
ENDBRANCH  45  47
ENDBRANCH   1  43
BRANCH   1  90
ATOM     90  C16 non d ame     -10.509   9.353  70.977  0.00  0.00    -0.035 C 
ATOM     91  H21 non d ame      -9.564   8.813  71.038  0.00  0.00     0.037 H 
ATOM     92  H22 non d ame     -10.517  10.442  71.019  0.00  0.00     0.037 H 
BRANCH  90  93
ATOM     93  C17 non d ame     -11.377   8.859  72.178  0.00  0.00    -0.059 C 
ATOM     94  H23 non d ame     -11.284   9.593  72.978  0.00  0.00     0.038 H 
BRANCH  93  95
ATOM     95  C18 non d ame     -12.890   8.750  71.805  0.00  0.00    -0.073 C 
ATOM     96  H24 non d ame     -13.314   9.750  71.710  0.00  0.00     0.028 H 
ATOM     97  H25 non d ame     -12.994   8.220  70.858  0.00  0.00     0.028 H 
ATOM     98  H26 non d ame     -13.419   8.204  72.586  0.00  0.00     0.028 H 
ENDBRANCH  93  95
BRANCH  93  99
ATOM     99  C19 non d ame     -10.853   7.527  72.720  0.00  0.00    -0.073 C 
ATOM    100  H27 non d ame      -9.882   7.683  73.191  0.00  0.00     0.028 H 
ATOM    101  H28 non d ame     -11.555   7.132  73.455  0.00  0.00     0.028 H 
ATOM    102  H29 non d ame     -10.749   6.816  71.900  0.00  0.00     0.028 H 
ENDBRANCH  93  99
ENDBRANCH  90  93
ENDBRANCH   1  90
TORSDOF 26
ENDMDL
MODEL 15
REMARK VINA RESULT:      -6.2      3.170      8.319
REMARK  26 active torsions:
REMARK  status: ('A' for Active; 'I' for Inactive)
REMARK    1  A    between atoms: C2_2  and  C3_3 
REMARK    2  A    between atoms: C4_6  and  C5_7 
REMARK       I    between atoms: C5_7  and  N2_9 
REMARK    3  A    between atoms: N2_9  and  C6_10 
REMARK    4  A    between atoms: C6_10  and  C7_11 
REMARK    5  A    between atoms: C6_10  and  C8_13 
REMARK       I    between atoms: C7_11  and  N3_14 
REMARK    6  A    between atoms: N3_14  and  C9_15 
REMARK    7  A    between atoms: C9_15  and  C10_16 
REMARK    8  A    between atoms: C9_15  and  C11_18 
REMARK       I    between atoms: C10_16  and  N4_21 
REMARK    9  A    between atoms: C11_18  and  C12_19 
REMARK   10  A    between atoms: C11_18  and  C13_20 
REMARK   11  A    between atoms: N4_21  and  C14_22 
REMARK   12  A    between atoms: C14_22  and  C15_23 
REMARK   13  A    between atoms: C14_22  and  C16_25 
REMARK       I    between atoms: C15_23  and  N6_40 
REMARK   14  A    between atoms: C16_25  and  C17_26 
REMARK   15  A    between atoms: C17_26  and  C18_27 
REMARK   16  A    between atoms: C17_26  and  C19_28 
REMARK   17  A    between atoms: C20_29  and  C21_30 
REMARK   18  A    between atoms: C20_29  and  C24_33 
REMARK   19  A    between atoms: C20_29  and  N6_40 
REMARK   20  A    between atoms: C21_30  and  C22_31 
REMARK   21  A    between atoms: C22_31  and  C23_32 
REMARK   22  A    between atoms: C23_32  and  O8_43 
REMARK   23  A    between atoms: C24_33  and  C25_34 
REMARK   24  A    between atoms: C28_38  and  O6_39 
REMARK   25  A    between atoms: C29_42  and  O8_43 
REMARK   26  A    between atoms: C29_42  and  C35_49 
ROOT
ATOM      1  C14 non d ame      -9.028   7.072  66.644  0.00  0.00     0.089 C 
ATOM      2  H20 non d ame      -9.366   6.460  65.808  0.00  0.00     0.087 H 
ENDROOT
BRANCH   1   3
ATOM      3  N4  non d ame      -8.613   8.358  66.106  0.00  0.00    -0.346 N 
ATOM      4  C10 non d ame      -8.214   8.486  64.658  0.00  0.00     0.241 C 
ATOM      5  O4  non d ame      -8.233   7.537  63.944  0.00  0.00    -0.271 OA
ATOM      6  H19 non d ame      -8.602   9.153  66.730  0.00  0.00     0.163 HD
BRANCH   4   7
ATOM      7  C9  non d ame      -7.793   9.827  64.116  0.00  0.00     0.092 C 
ATOM      8  H11 non d ame      -7.870   9.815  63.029  0.00  0.00     0.088 H 
BRANCH   7   9
ATOM      9  N3  non d ame      -8.709  10.861  64.605  0.00  0.00    -0.346 N 
ATOM     10  C7  non d ame      -9.884  11.202  63.841  0.00  0.00     0.240 C 
ATOM     11  O3  non d ame     -10.107  10.654  62.830  0.00  0.00    -0.271 OA
ATOM     12  H10 non d ame      -8.530  11.343  65.474  0.00  0.00     0.163 HD
BRANCH  10  13
ATOM     13  C6  non d ame     -10.855  12.306  64.364  0.00  0.00     0.086 C 
ATOM     14  H6  non d ame     -11.303  12.052  65.324  0.00  0.00     0.086 H 
BRANCH  13  15
ATOM     15  N2  non d ame     -10.105  13.535  64.566  0.00  0.00    -0.343 N 
ATOM     16  C5  non d ame     -10.520  14.469  65.615  0.00  0.00     0.273 C 
ATOM     17  O2  non d ame     -11.460  14.223  66.289  0.00  0.00    -0.266 OA
ATOM     18  H5  non d ame      -9.305  13.737  63.984  0.00  0.00     0.163 HD
BRANCH  16  19
ATOM     19  C4  non d ame      -9.736  15.771  65.841  0.00  0.00     0.154 A 
ATOM     20  C1  non d ame      -8.466  15.914  66.484  0.00  0.00    -0.017 A 
ATOM     21  C2  non d ame      -8.188  17.299  66.434  0.00  0.00     0.077 A 
ATOM     22  H1  non d ame      -7.841  15.134  66.920  0.00  0.00     0.091 H 
ATOM     23  O1  non d ame      -9.187  17.873  65.830  0.00  0.00    -0.218 OA
ATOM     24  N1  non d ame     -10.103  17.002  65.475  0.00  0.00    -0.123 NA
BRANCH  21  25
ATOM     25  C3  non d ame      -6.947  17.989  66.984  0.00  0.00    -0.029 C 
ATOM     26  H2  non d ame      -6.672  18.817  66.331  0.00  0.00     0.036 H 
ATOM     27  H3  non d ame      -7.156  18.369  67.984  0.00  0.00     0.036 H 
ATOM     28  H4  non d ame      -6.124  17.275  67.032  0.00  0.00     0.036 H 
ENDBRANCH  21  25
ENDBRANCH  16  19
ENDBRANCH  13  15
BRANCH  13  29
ATOM     29  C8  non d ame     -11.954  12.531  63.357  0.00  0.00    -0.049 C 
ATOM     30  H7  non d ame     -11.516  12.788  62.393  0.00  0.00     0.030 H 
ATOM     31  H8  non d ame     -12.547  11.622  63.257  0.00  0.00     0.030 H 
ATOM     32  H9  non d ame     -12.593  13.347  63.694  0.00  0.00     0.030 H 
ENDBRANCH  13  29
ENDBRANCH  10  13
ENDBRANCH   7   9
BRANCH   7  33
ATOM     33  C11 non d ame      -6.348  10.149  64.597  0.00  0.00    -0.033 C 
ATOM     34  H12 non d ame      -6.417  10.951  65.331  0.00  0.00     0.042 H 
BRANCH  33  35
ATOM     35  C12 non d ame      -5.697   8.920  65.305  0.00  0.00    -0.071 C 
ATOM     36  H13 non d ame      -5.131   9.259  66.174  0.00  0.00     0.028 H 
ATOM     37  H14 non d ame      -6.478   8.231  65.628  0.00  0.00     0.028 H 
ATOM     38  H15 non d ame      -5.028   8.413  64.611  0.00  0.00     0.028 H 
ENDBRANCH  33  35
BRANCH  33  39
ATOM     39  C13 non d ame      -5.463  10.653  63.412  0.00  0.00    -0.071 C 
ATOM     40  H16 non d ame      -5.457  11.743  63.401  0.00  0.00     0.028 H 
ATOM     41  H17 non d ame      -4.444  10.285  63.536  0.00  0.00     0.028 H 
ATOM     42  H18 non d ame      -5.871  10.283  62.472  0.00  0.00     0.028 H 
ENDBRANCH  33  39
ENDBRANCH   7  33
ENDBRANCH   4   7
ENDBRANCH   1   3
BRANCH   1  43
ATOM     43  C15 non d ame     -10.155   7.312  67.690  0.00  0.00     0.240 C 
ATOM     44  O5  non d ame     -11.232   6.840  67.517  0.00  0.00    -0.271 OA
ATOM     45  N6  non d ame      -9.888   8.123  68.912  0.00  0.00    -0.355 N 
ATOM     46  H46 non d ame      -8.976   8.525  69.072  0.00  0.00     0.162 HD
BRANCH  45  47
ATOM     47  C20 non d ame     -10.969   8.341  69.897  0.00  0.00     0.013 C 
ATOM     48  H30 non d ame     -11.922   8.232  69.379  0.00  0.00     0.072 H 
BRANCH  47  49
ATOM     49  C21 non d ame     -10.849   9.735  70.470  0.00  0.00    -0.038 C 
ATOM     50  H31 non d ame     -11.305   9.687  71.459  0.00  0.00     0.036 H 
ATOM     51  H32 non d ame      -9.799  10.007  70.366  0.00  0.00     0.036 H 
BRANCH  49  52
ATOM     52  C22 non d ame     -11.653  10.783  69.670  0.00  0.00     0.018 C 
ATOM     53  H33 non d ame     -12.674  10.403  69.627  0.00  0.00     0.048 H 
ATOM     54  H34 non d ame     -11.447  11.741  70.148  0.00  0.00     0.048 H 
BRANCH  52  55
ATOM     55  C23 non d ame     -11.190  10.934  68.194  0.00  0.00     0.259 C 
ATOM     56  O7  non d ame     -11.982  11.139  67.332  0.00  0.00    -0.265 OA
BRANCH  55  57
ATOM     57  O8  non d ame      -9.808  10.811  67.881  0.00  0.00    -0.317 OA
BRANCH  57  58
ATOM     58  C29 non d ame      -9.086  12.044  67.938  0.00  0.00     0.052 C 
ATOM     59  H47 non d ame      -9.281  12.544  66.989  0.00  0.00     0.082 H 
ATOM     60  H48 non d ame      -9.383  12.517  68.874  0.00  0.00     0.082 H 
BRANCH  58  61
ATOM     61  C35 non d ame      -7.573  11.710  68.015  0.00  0.00    -0.034 A 
ATOM     62  C30 non d ame      -6.642  12.549  67.411  0.00  0.00    -0.075 A 
ATOM     63  C31 non d ame      -5.283  12.249  67.480  0.00  0.00    -0.082 A 
ATOM     64  H49 non d ame      -6.978  13.442  66.884  0.00  0.00     0.084 H 
ATOM     65  C32 non d ame      -4.854  11.103  68.155  0.00  0.00    -0.083 A 
ATOM     66  H50 non d ame      -4.556  12.910  67.008  0.00  0.00     0.083 H 
ATOM     67  C33 non d ame      -5.787  10.266  68.754  0.00  0.00    -0.082 A 
ATOM     68  H51 non d ame      -3.793  10.861  68.215  0.00  0.00     0.083 H 
ATOM     69  C34 non d ame      -7.147  10.564  68.689  0.00  0.00    -0.075 A 
ATOM     70  H52 non d ame      -5.450   9.371  69.278  0.00  0.00     0.083 H 
ATOM     71  H53 non d ame      -7.873   9.902  69.162  0.00  0.00     0.084 H 
ENDBRANCH  58  61
ENDBRANCH  57  58
ENDBRANCH  55  57
ENDBRANCH  52  55
ENDBRANCH  49  52
ENDBRANCH  47  49
BRANCH  47  72
ATOM     72  C24 non d ame     -10.857   7.315  71.023  0.00  0.00    -0.039 C 
ATOM     73  H35 non d ame     -11.817   7.344  71.538  0.00  0.00     0.036 H 
ATOM     74  H36 non d ame     -10.522   6.395  70.544  0.00  0.00     0.036 H 
BRANCH  72  75
ATOM     75  C25 non d ame      -9.736   7.727  72.090  0.00  0.00    -0.001 C 
ATOM     76  C26 non d ame      -8.439   6.724  71.956  0.00  0.00    -0.035 C 
ATOM     77  C27 non d ame      -8.138   6.235  73.183  0.00  0.00     0.085 C 
ATOM     78  H38 non d ame      -8.712   5.836  71.387  0.00  0.00     0.036 H 
ATOM     79  H39 non d ame      -7.551   7.295  71.685  0.00  0.00     0.036 H 
ATOM     80  N5  non d ame      -9.307   6.553  74.084  0.00  0.00    -0.049 N 
ATOM     81  H40 non d ame      -8.071   5.153  73.057  0.00  0.00     0.075 H 
ATOM     82  H41 non d ame      -7.269   6.800  73.516  0.00  0.00     0.075 H 
ATOM     83  C28 non d ame     -10.189   7.652  73.297  0.00  0.00     0.193 C 
ATOM     84  H42 non d ame      -9.847   5.703  74.163  0.00  0.00     0.280 HD
ATOM     85  H43 non d ame      -8.920   6.984  74.912  0.00  0.00     0.280 HD
ATOM     86  H44 non d ame     -10.154   8.702  73.588  0.00  0.00     0.129 H 
ATOM     87  H37 non d ame      -9.536   8.799  72.086  0.00  0.00     0.046 H 
BRANCH  83  88
ATOM     88  O6  non d ame     -11.571   7.292  73.332  0.00  0.00    -0.369 OA
ATOM     89  H45 non d ame     -12.075   7.998  73.741  0.00  0.00     0.212 HD
ENDBRANCH  83  88
ENDBRANCH  72  75
ENDBRANCH  47  72
ENDBRANCH  45  47
ENDBRANCH   1  43
BRANCH   1  90
ATOM     90  C16 non d ame      -7.838   6.409  67.319  0.00  0.00    -0.035 C 
ATOM     91  H21 non d ame      -6.997   7.082  67.149  0.00  0.00     0.037 H 
ATOM     92  H22 non d ame      -8.166   6.192  68.336  0.00  0.00     0.037 H 
BRANCH  90  93
ATOM     93  C17 non d ame      -7.440   5.039  66.683  0.00  0.00    -0.059 C 
ATOM     94  H23 non d ame      -7.128   4.377  67.490  0.00  0.00     0.038 H 
BRANCH  93  95
ATOM     95  C18 non d ame      -8.639   4.360  65.946  0.00  0.00    -0.073 C 
ATOM     96  H24 non d ame      -9.567   4.857  66.230  0.00  0.00     0.028 H 
ATOM     97  H25 non d ame      -8.497   4.443  64.868  0.00  0.00     0.028 H 
ATOM     98  H26 non d ame      -8.689   3.308  66.227  0.00  0.00     0.028 H 
ENDBRANCH  93  95
BRANCH  93  99
ATOM     99  C19 non d ame      -6.244   5.200  65.741  0.00  0.00    -0.073 C 
ATOM    100  H27 non d ame      -6.249   4.396  65.005  0.00  0.00     0.028 H 
ATOM    101  H28 non d ame      -6.311   6.161  65.230  0.00  0.00     0.028 H 
ATOM    102  H29 non d ame      -5.320   5.160  66.317  0.00  0.00     0.028 H 
ENDBRANCH  93  99
ENDBRANCH  90  93
ENDBRANCH   1  90
TORSDOF 26
ENDMDL
MODEL 16
REMARK VINA RESULT:      -6.2      3.413      9.464
REMARK  26 active torsions:
REMARK  status: ('A' for Active; 'I' for Inactive)
REMARK    1  A    between atoms: C2_2  and  C3_3 
REMARK    2  A    between atoms: C4_6  and  C5_7 
REMARK       I    between atoms: C5_7  and  N2_9 
REMARK    3  A    between atoms: N2_9  and  C6_10 
REMARK    4  A    between atoms: C6_10  and  C7_11 
REMARK    5  A    between atoms: C6_10  and  C8_13 
REMARK       I    between atoms: C7_11  and  N3_14 
REMARK    6  A    between atoms: N3_14  and  C9_15 
REMARK    7  A    between atoms: C9_15  and  C10_16 
REMARK    8  A    between atoms: C9_15  and  C11_18 
REMARK       I    between atoms: C10_16  and  N4_21 
REMARK    9  A    between atoms: C11_18  and  C12_19 
REMARK   10  A    between atoms: C11_18  and  C13_20 
REMARK   11  A    between atoms: N4_21  and  C14_22 
REMARK   12  A    between atoms: C14_22  and  C15_23 
REMARK   13  A    between atoms: C14_22  and  C16_25 
REMARK       I    between atoms: C15_23  and  N6_40 
REMARK   14  A    between atoms: C16_25  and  C17_26 
REMARK   15  A    between atoms: C17_26  and  C18_27 
REMARK   16  A    between atoms: C17_26  and  C19_28 
REMARK   17  A    between atoms: C20_29  and  C21_30 
REMARK   18  A    between atoms: C20_29  and  C24_33 
REMARK   19  A    between atoms: C20_29  and  N6_40 
REMARK   20  A    between atoms: C21_30  and  C22_31 
REMARK   21  A    between atoms: C22_31  and  C23_32 
REMARK   22  A    between atoms: C23_32  and  O8_43 
REMARK   23  A    between atoms: C24_33  and  C25_34 
REMARK   24  A    between atoms: C28_38  and  O6_39 
REMARK   25  A    between atoms: C29_42  and  O8_43 
REMARK   26  A    between atoms: C29_42  and  C35_49 
ROOT
ATOM      1  C14 non d ame      -9.076   6.908  66.611  0.00  0.00     0.089 C 
ATOM      2  H20 non d ame      -9.373   6.390  65.699  0.00  0.00     0.087 H 
ENDROOT
BRANCH   1   3
ATOM      3  N4  non d ame      -8.630   8.241  66.233  0.00  0.00    -0.346 N 
ATOM      4  C10 non d ame      -8.206   8.529  64.815  0.00  0.00     0.241 C 
ATOM      5  O4  non d ame      -8.230   7.670  63.996  0.00  0.00    -0.271 OA
ATOM      6  H19 non d ame      -8.616   8.957  66.946  0.00  0.00     0.163 HD
BRANCH   4   7
ATOM      7  C9  non d ame      -7.753   9.915  64.440  0.00  0.00     0.092 C 
ATOM      8  H11 non d ame      -7.660   9.981  63.356  0.00  0.00     0.088 H 
BRANCH   7   9
ATOM      9  N3  non d ame      -8.771  10.889  64.847  0.00  0.00    -0.346 N 
ATOM     10  C7  non d ame      -9.840  11.235  63.943  0.00  0.00     0.240 C 
ATOM     11  O3  non d ame      -9.896  10.740  62.884  0.00  0.00    -0.271 OA
ATOM     12  H10 non d ame      -8.735  11.325  65.757  0.00  0.00     0.163 HD
BRANCH  10  13
ATOM     13  C6  non d ame     -10.919  12.274  64.381  0.00  0.00     0.086 C 
ATOM     14  H6  non d ame     -11.461  11.967  65.275  0.00  0.00     0.086 H 
BRANCH  13  15
ATOM     15  N2  non d ame     -10.260  13.529  64.704  0.00  0.00    -0.343 N 
ATOM     16  C5  non d ame     -10.831  14.398  65.736  0.00  0.00     0.273 C 
ATOM     17  O2  non d ame     -11.821  14.080  66.297  0.00  0.00    -0.266 OA
ATOM     18  H5  non d ame      -9.415  13.794  64.217  0.00  0.00     0.163 HD
BRANCH  16  19
ATOM     19  C4  non d ame     -10.144  15.726  66.089  0.00  0.00     0.154 A 
ATOM     20  C1  non d ame     -10.481  16.616  67.158  0.00  0.00    -0.017 A 
ATOM     21  C2  non d ame      -9.557  17.680  67.050  0.00  0.00     0.077 A 
ATOM     22  H1  non d ame     -11.273  16.507  67.898  0.00  0.00     0.091 H 
ATOM     23  O1  non d ame      -8.784  17.420  66.036  0.00  0.00    -0.218 OA
ATOM     24  N1  non d ame      -9.108  16.286  65.459  0.00  0.00    -0.123 NA
BRANCH  21  25
ATOM     25  C3  non d ame      -9.480  18.902  67.955  0.00  0.00    -0.029 C 
ATOM     26  H2  non d ame      -9.458  19.805  67.345  0.00  0.00     0.036 H 
ATOM     27  H3  non d ame     -10.352  18.926  68.609  0.00  0.00     0.036 H 
ATOM     28  H4  non d ame      -8.574  18.850  68.560  0.00  0.00     0.036 H 
ENDBRANCH  21  25
ENDBRANCH  16  19
ENDBRANCH  13  15
BRANCH  13  29
ATOM     29  C8  non d ame     -11.905  12.482  63.260  0.00  0.00    -0.049 C 
ATOM     30  H7  non d ame     -11.520  12.025  62.348  0.00  0.00     0.030 H 
ATOM     31  H8  non d ame     -12.857  12.022  63.523  0.00  0.00     0.030 H 
ATOM     32  H9  non d ame     -12.049  13.550  63.097  0.00  0.00     0.030 H 
ENDBRANCH  13  29
ENDBRANCH  10  13
ENDBRANCH   7   9
BRANCH   7  33
ATOM     33  C11 non d ame      -6.413  10.237  65.164  0.00  0.00    -0.033 C 
ATOM     34  H12 non d ame      -6.079   9.324  65.657  0.00  0.00     0.042 H 
BRANCH  33  35
ATOM     35  C12 non d ame      -5.304  10.653  64.148  0.00  0.00    -0.071 C 
ATOM     36  H13 non d ame      -4.806   9.760  63.768  0.00  0.00     0.028 H 
ATOM     37  H14 non d ame      -5.757  11.196  63.319  0.00  0.00     0.028 H 
ATOM     38  H15 non d ame      -4.576  11.291  64.647  0.00  0.00     0.028 H 
ENDBRANCH  33  35
BRANCH  33  39
ATOM     39  C13 non d ame      -6.618  11.332  66.259  0.00  0.00    -0.071 C 
ATOM     40  H16 non d ame      -7.590  11.196  66.732  0.00  0.00     0.028 H 
ATOM     41  H17 non d ame      -5.833  11.244  67.011  0.00  0.00     0.028 H 
ATOM     42  H18 non d ame      -6.572  12.318  65.799  0.00  0.00     0.028 H 
ENDBRANCH  33  39
ENDBRANCH   7  33
ENDBRANCH   4   7
ENDBRANCH   1   3
BRANCH   1  43
ATOM     43  C15 non d ame     -10.253   7.046  67.618  0.00  0.00     0.240 C 
ATOM     44  O5  non d ame     -11.368   6.856  67.253  0.00  0.00    -0.271 OA
ATOM     45  N6  non d ame      -9.990   7.407  69.040  0.00  0.00    -0.355 N 
ATOM     46  H46 non d ame      -9.046   7.567  69.363  0.00  0.00     0.162 HD
BRANCH  45  47
ATOM     47  C20 non d ame     -11.120   7.534  69.986  0.00  0.00     0.013 C 
ATOM     48  H30 non d ame     -11.984   7.896  69.429  0.00  0.00     0.072 H 
BRANCH  47  49
ATOM     49  C21 non d ame     -10.755   8.519  71.072  0.00  0.00    -0.038 C 
ATOM     50  H31 non d ame      -9.837   8.138  71.520  0.00  0.00     0.036 H 
ATOM     51  H32 non d ame     -10.763   9.499  70.595  0.00  0.00     0.036 H 
BRANCH  49  52
ATOM     52  C22 non d ame     -11.802   8.577  72.206  0.00  0.00     0.018 C 
ATOM     53  H33 non d ame     -12.118   7.546  72.369  0.00  0.00     0.048 H 
ATOM     54  H34 non d ame     -11.331   9.137  73.015  0.00  0.00     0.048 H 
BRANCH  52  55
ATOM     55  C23 non d ame     -13.087   9.366  71.831  0.00  0.00     0.259 C 
ATOM     56  O7  non d ame     -14.044   8.797  71.416  0.00  0.00    -0.265 OA
BRANCH  55  57
ATOM     57  O8  non d ame     -13.104  10.780  71.978  0.00  0.00    -0.317 OA
BRANCH  57  58
ATOM     58  C29 non d ame     -12.693  11.492  70.808  0.00  0.00     0.052 C 
ATOM     59  H47 non d ame     -11.656  11.203  70.636  0.00  0.00     0.082 H 
ATOM     60  H48 non d ame     -13.450  11.281  70.053  0.00  0.00     0.082 H 
BRANCH  58  61
ATOM     61  C35 non d ame     -12.732  13.010  71.132  0.00  0.00    -0.034 A 
ATOM     62  C30 non d ame     -12.032  13.910  70.336  0.00  0.00    -0.075 A 
ATOM     63  C31 non d ame     -12.067  15.273  70.627  0.00  0.00    -0.082 A 
ATOM     64  H49 non d ame     -11.456  13.548  69.484  0.00  0.00     0.084 H 
ATOM     65  C32 non d ame     -12.804  15.734  71.721  0.00  0.00    -0.083 A 
ATOM     66  H50 non d ame     -11.519  15.977  70.000  0.00  0.00     0.083 H 
ATOM     67  C33 non d ame     -13.499  14.832  72.514  0.00  0.00    -0.082 A 
ATOM     68  H51 non d ame     -12.837  16.798  71.955  0.00  0.00     0.083 H 
ATOM     69  C34 non d ame     -13.468  13.469  72.226  0.00  0.00    -0.075 A 
ATOM     70  H52 non d ame     -14.072  15.195  73.368  0.00  0.00     0.083 H 
ATOM     71  H53 non d ame     -14.018  12.766  72.853  0.00  0.00     0.084 H 
ENDBRANCH  58  61
ENDBRANCH  57  58
ENDBRANCH  55  57
ENDBRANCH  52  55
ENDBRANCH  49  52
ENDBRANCH  47  49
BRANCH  47  72
ATOM     72  C24 non d ame     -11.424   6.174  70.612  0.00  0.00    -0.039 C 
ATOM     73  H35 non d ame     -12.032   6.389  71.491  0.00  0.00     0.036 H 
ATOM     74  H36 non d ame     -11.832   5.567  69.803  0.00  0.00     0.036 H 
BRANCH  72  75
ATOM     75  C25 non d ame     -10.092   5.446  71.124  0.00  0.00    -0.001 C 
ATOM     76  C26 non d ame      -9.725   4.188  70.132  0.00  0.00    -0.035 C 
ATOM     77  C27 non d ame      -9.536   3.078  70.886  0.00  0.00     0.085 C 
ATOM     78  H38 non d ame     -10.587   3.933  69.516  0.00  0.00     0.036 H 
ATOM     79  H39 non d ame      -8.751   4.349  69.668  0.00  0.00     0.036 H 
ATOM     80  N5  non d ame     -10.060   3.388  72.267  0.00  0.00    -0.049 N 
ATOM     81  H40 non d ame     -10.161   2.308  70.433  0.00  0.00     0.075 H 
ATOM     82  H41 non d ame      -8.456   2.942  70.938  0.00  0.00     0.075 H 
ATOM     83  C28 non d ame     -10.240   4.992  72.324  0.00  0.00     0.193 C 
ATOM     84  H42 non d ame     -10.973   2.960  72.329  0.00  0.00     0.280 HD
ATOM     85  H43 non d ame      -9.332   3.124  72.915  0.00  0.00     0.280 HD
ATOM     86  H44 non d ame      -9.520   5.611  72.860  0.00  0.00     0.129 H 
ATOM     87  H37 non d ame      -9.293   6.154  71.344  0.00  0.00     0.046 H 
BRANCH  83  88
ATOM     88  O6  non d ame     -11.515   5.326  72.873  0.00  0.00    -0.369 OA
ATOM     89  H45 non d ame     -12.116   5.567  72.165  0.00  0.00     0.212 HD
ENDBRANCH  83  88
ENDBRANCH  72  75
ENDBRANCH  47  72
ENDBRANCH  45  47
ENDBRANCH   1  43
BRANCH   1  90
ATOM     90  C16 non d ame      -7.923   6.168  67.271  0.00  0.00    -0.035 C 
ATOM     91  H21 non d ame      -7.019   6.591  66.832  0.00  0.00     0.037 H 
ATOM     92  H22 non d ame      -8.100   6.255  68.343  0.00  0.00     0.037 H 
BRANCH  90  93
ATOM     93  C17 non d ame      -7.895   4.639  66.951  0.00  0.00    -0.059 C 
ATOM     94  H23 non d ame      -8.189   4.107  67.856  0.00  0.00     0.038 H 
BRANCH  93  95
ATOM     95  C18 non d ame      -8.904   4.255  65.823  0.00  0.00    -0.073 C 
ATOM     96  H24 non d ame      -8.963   3.169  65.743  0.00  0.00     0.028 H 
ATOM     97  H25 non d ame      -9.889   4.655  66.064  0.00  0.00     0.028 H 
ATOM     98  H26 non d ame      -8.565   4.671  64.874  0.00  0.00     0.028 H 
ENDBRANCH  93  95
BRANCH  93  99
ATOM     99  C19 non d ame      -6.478   4.182  66.594  0.00  0.00    -0.073 C 
ATOM    100  H27 non d ame      -5.898   5.035  66.243  0.00  0.00     0.028 H 
ATOM    101  H28 non d ame      -6.001   3.756  67.478  0.00  0.00     0.028 H 
ATOM    102  H29 non d ame      -6.527   3.427  65.809  0.00  0.00     0.028 H 
ENDBRANCH  93  99
ENDBRANCH  90  93
ENDBRANCH   1  90
TORSDOF 26
ENDMDL
MODEL 17
REMARK VINA RESULT:      -6.1      4.031      9.989
REMARK  26 active torsions:
REMARK  status: ('A' for Active; 'I' for Inactive)
REMARK    1  A    between atoms: C2_2  and  C3_3 
REMARK    2  A    between atoms: C4_6  and  C5_7 
REMARK       I    between atoms: C5_7  and  N2_9 
REMARK    3  A    between atoms: N2_9  and  C6_10 
REMARK    4  A    between atoms: C6_10  and  C7_11 
REMARK    5  A    between atoms: C6_10  and  C8_13 
REMARK       I    between atoms: C7_11  and  N3_14 
REMARK    6  A    between atoms: N3_14  and  C9_15 
REMARK    7  A    between atoms: C9_15  and  C10_16 
REMARK    8  A    between atoms: C9_15  and  C11_18 
REMARK       I    between atoms: C10_16  and  N4_21 
REMARK    9  A    between atoms: C11_18  and  C12_19 
REMARK   10  A    between atoms: C11_18  and  C13_20 
REMARK   11  A    between atoms: N4_21  and  C14_22 
REMARK   12  A    between atoms: C14_22  and  C15_23 
REMARK   13  A    between atoms: C14_22  and  C16_25 
REMARK       I    between atoms: C15_23  and  N6_40 
REMARK   14  A    between atoms: C16_25  and  C17_26 
REMARK   15  A    between atoms: C17_26  and  C18_27 
REMARK   16  A    between atoms: C17_26  and  C19_28 
REMARK   17  A    between atoms: C20_29  and  C21_30 
REMARK   18  A    between atoms: C20_29  and  C24_33 
REMARK   19  A    between atoms: C20_29  and  N6_40 
REMARK   20  A    between atoms: C21_30  and  C22_31 
REMARK   21  A    between atoms: C22_31  and  C23_32 
REMARK   22  A    between atoms: C23_32  and  O8_43 
REMARK   23  A    between atoms: C24_33  and  C25_34 
REMARK   24  A    between atoms: C28_38  and  O6_39 
REMARK   25  A    between atoms: C29_42  and  O8_43 
REMARK   26  A    between atoms: C29_42  and  C35_49 
ROOT
ATOM      1  C14 non d ame      -8.157   6.137  63.198  0.00  0.00     0.089 C 
ATOM      2  H20 non d ame      -8.590   6.331  62.216  0.00  0.00     0.087 H 
ENDROOT
BRANCH   1   3
ATOM      3  N4  non d ame      -8.017   7.417  63.875  0.00  0.00    -0.346 N 
ATOM      4  C10 non d ame      -8.075   8.704  63.092  0.00  0.00     0.241 C 
ATOM      5  O4  non d ame      -8.232   8.684  61.915  0.00  0.00    -0.271 OA
ATOM      6  H19 non d ame      -7.881   7.413  64.876  0.00  0.00     0.163 HD
BRANCH   4   7
ATOM      7  C9  non d ame      -7.933  10.021  63.810  0.00  0.00     0.092 C 
ATOM      8  H11 non d ame      -7.701  10.801  63.086  0.00  0.00     0.088 H 
BRANCH   7   9
ATOM      9  N3  non d ame      -9.210  10.376  64.437  0.00  0.00    -0.346 N 
ATOM     10  C7  non d ame     -10.062  11.366  63.825  0.00  0.00     0.240 C 
ATOM     11  O3  non d ame      -9.735  11.888  62.830  0.00  0.00    -0.271 OA
ATOM     12  H10 non d ame      -9.505   9.935  65.296  0.00  0.00     0.163 HD
BRANCH  10  13
ATOM     13  C6  non d ame     -11.418  11.742  64.498  0.00  0.00     0.086 C 
ATOM     14  H6  non d ame     -11.735  11.014  65.245  0.00  0.00     0.086 H 
BRANCH  13  15
ATOM     15  N2  non d ame     -11.264  13.009  65.193  0.00  0.00    -0.343 N 
ATOM     16  C5  non d ame     -11.592  13.095  66.618  0.00  0.00     0.273 C 
ATOM     17  O2  non d ame     -11.982  12.140  67.195  0.00  0.00    -0.266 OA
ATOM     18  H5  non d ame     -10.933  13.821  64.692  0.00  0.00     0.163 HD
BRANCH  16  19
ATOM     19  C4  non d ame     -11.433  14.428  67.366  0.00  0.00     0.154 A 
ATOM     20  C1  non d ame     -10.669  15.565  66.952  0.00  0.00    -0.017 A 
ATOM     21  C2  non d ame     -10.850  16.518  67.980  0.00  0.00     0.077 A 
ATOM     22  H1  non d ame     -10.076  15.682  66.046  0.00  0.00     0.091 H 
ATOM     23  O1  non d ame     -11.629  15.980  68.873  0.00  0.00    -0.218 OA
ATOM     24  N1  non d ame     -11.981  14.761  68.538  0.00  0.00    -0.123 NA
BRANCH  21  25
ATOM     25  C3  non d ame     -10.246  17.915  68.031  0.00  0.00    -0.029 C 
ATOM     26  H2  non d ame     -11.037  18.657  67.925  0.00  0.00     0.036 H 
ATOM     27  H3  non d ame      -9.740  18.057  68.986  0.00  0.00     0.036 H 
ATOM     28  H4  non d ame      -9.528  18.031  67.219  0.00  0.00     0.036 H 
ENDBRANCH  21  25
ENDBRANCH  16  19
ENDBRANCH  13  15
BRANCH  13  29
ATOM     29  C8  non d ame     -12.490  11.858  63.445  0.00  0.00    -0.049 C 
ATOM     30  H7  non d ame     -12.407  12.823  62.946  0.00  0.00     0.030 H 
ATOM     31  H8  non d ame     -12.368  11.059  62.713  0.00  0.00     0.030 H 
ATOM     32  H9  non d ame     -13.470  11.775  63.914  0.00  0.00     0.030 H 
ENDBRANCH  13  29
ENDBRANCH  10  13
ENDBRANCH   7   9
BRANCH   7  33
ATOM     33  C11 non d ame      -6.836   9.897  64.908  0.00  0.00    -0.033 C 
ATOM     34  H12 non d ame      -6.677   8.835  65.096  0.00  0.00     0.042 H 
BRANCH  33  35
ATOM     35  C12 non d ame      -5.479  10.496  64.425  0.00  0.00    -0.071 C 
ATOM     36  H13 non d ame      -4.669   9.808  64.673  0.00  0.00     0.028 H 
ATOM     37  H14 non d ame      -5.510  10.644  63.346  0.00  0.00     0.028 H 
ATOM     38  H15 non d ame      -5.308  11.452  64.920  0.00  0.00     0.028 H 
ENDBRANCH  33  35
BRANCH  33  39
ATOM     39  C13 non d ame      -7.305  10.558  66.244  0.00  0.00    -0.071 C 
ATOM     40  H16 non d ame      -7.063   9.902  67.079  0.00  0.00     0.028 H 
ATOM     41  H17 non d ame      -6.796  11.514  66.374  0.00  0.00     0.028 H 
ATOM     42  H18 non d ame      -8.382  10.722  66.210  0.00  0.00     0.028 H 
ENDBRANCH  33  39
ENDBRANCH   7  33
ENDBRANCH   4   7
ENDBRANCH   1   3
BRANCH   1  43
ATOM     43  C15 non d ame      -9.060   5.214  64.066  0.00  0.00     0.240 C 
ATOM     44  O5  non d ame      -9.605   4.283  63.567  0.00  0.00    -0.271 OA
ATOM     45  N6  non d ame      -9.237   5.485  65.521  0.00  0.00    -0.355 N 
ATOM     46  H46 non d ame      -8.775   6.271  65.956  0.00  0.00     0.162 HD
BRANCH  45  47
ATOM     47  C20 non d ame     -10.097   4.597  66.332  0.00  0.00     0.013 C 
ATOM     48  H30 non d ame     -10.859   4.177  65.676  0.00  0.00     0.072 H 
BRANCH  47  49
ATOM     49  C21 non d ame     -10.749   5.403  67.433  0.00  0.00    -0.038 C 
ATOM     50  H31 non d ame     -11.643   4.846  67.716  0.00  0.00     0.036 H 
ATOM     51  H32 non d ame      -9.965   5.586  68.168  0.00  0.00     0.036 H 
BRANCH  49  52
ATOM     52  C22 non d ame     -11.232   6.790  66.955  0.00  0.00     0.018 C 
ATOM     53  H33 non d ame     -11.301   6.720  65.869  0.00  0.00     0.048 H 
ATOM     54  H34 non d ame     -12.123   7.011  67.544  0.00  0.00     0.048 H 
BRANCH  52  55
ATOM     55  C23 non d ame     -10.228   7.938  67.249  0.00  0.00     0.259 C 
ATOM     56  O7  non d ame     -10.442   9.041  66.862  0.00  0.00    -0.265 OA
BRANCH  55  57
ATOM     57  O8  non d ame      -9.039   7.655  67.977  0.00  0.00    -0.317 OA
BRANCH  57  58
ATOM     58  C29 non d ame      -8.811   8.532  69.084  0.00  0.00     0.052 C 
ATOM     59  H47 non d ame      -7.801   8.313  69.430  0.00  0.00     0.082 H 
ATOM     60  H48 non d ame      -9.061   9.530  68.726  0.00  0.00     0.082 H 
BRANCH  58  61
ATOM     61  C35 non d ame      -9.810   8.151  70.210  0.00  0.00    -0.034 A 
ATOM     62  C30 non d ame     -10.645   9.119  70.757  0.00  0.00    -0.075 A 
ATOM     63  C31 non d ame     -11.541   8.777  71.768  0.00  0.00    -0.082 A 
ATOM     64  H49 non d ame     -10.597  10.146  70.394  0.00  0.00     0.084 H 
ATOM     65  C32 non d ame     -11.599   7.461  72.234  0.00  0.00    -0.083 A 
ATOM     66  H50 non d ame     -12.196   9.538  72.194  0.00  0.00     0.083 H 
ATOM     67  C33 non d ame     -10.761   6.499  71.687  0.00  0.00    -0.082 A 
ATOM     68  H51 non d ame     -12.297   7.185  73.024  0.00  0.00     0.083 H 
ATOM     69  C34 non d ame      -9.865   6.836  70.675  0.00  0.00    -0.075 A 
ATOM     70  H52 non d ame     -10.807   5.473  72.054  0.00  0.00     0.083 H 
ATOM     71  H53 non d ame      -9.211   6.074  70.249  0.00  0.00     0.084 H 
ENDBRANCH  58  61
ENDBRANCH  57  58
ENDBRANCH  55  57
ENDBRANCH  52  55
ENDBRANCH  49  52
ENDBRANCH  47  49
BRANCH  47  72
ATOM     72  C24 non d ame      -9.253   3.483  66.948  0.00  0.00    -0.039 C 
ATOM     73  H35 non d ame      -9.968   2.787  67.388  0.00  0.00     0.036 H 
ATOM     74  H36 non d ame      -8.589   3.148  66.151  0.00  0.00     0.036 H 
BRANCH  72  75
ATOM     75  C25 non d ame      -8.329   4.027  68.137  0.00  0.00    -0.001 C 
ATOM     76  C26 non d ame      -6.758   4.067  67.652  0.00  0.00    -0.035 C 
ATOM     77  C27 non d ame      -6.001   3.424  68.573  0.00  0.00     0.085 C 
ATOM     78  H38 non d ame      -6.629   3.467  66.752  0.00  0.00     0.036 H 
ATOM     79  H39 non d ame      -6.383   5.090  67.684  0.00  0.00     0.036 H 
ATOM     80  N5  non d ame      -6.948   2.667  69.473  0.00  0.00    -0.049 N 
ATOM     81  H40 non d ame      -5.400   2.710  68.009  0.00  0.00     0.075 H 
ATOM     82  H41 non d ame      -5.514   4.209  69.150  0.00  0.00     0.075 H 
ATOM     83  C28 non d ame      -8.416   3.271  69.180  0.00  0.00     0.193 C 
ATOM     84  H42 non d ame      -6.928   1.705  69.165  0.00  0.00     0.280 HD
ATOM     85  H43 non d ame      -6.688   2.899  70.421  0.00  0.00     0.280 HD
ATOM     86  H44 non d ame      -8.882   3.959  69.886  0.00  0.00     0.129 H 
ATOM     87  H37 non d ame      -8.731   4.933  68.591  0.00  0.00     0.046 H 
BRANCH  83  88
ATOM     88  O6  non d ame      -9.358   2.212  69.001  0.00  0.00    -0.369 OA
ATOM     89  H45 non d ame     -10.206   2.472  69.367  0.00  0.00     0.212 HD
ENDBRANCH  83  88
ENDBRANCH  72  75
ENDBRANCH  47  72
ENDBRANCH  45  47
ENDBRANCH   1  43
BRANCH   1  90
ATOM     90  C16 non d ame      -6.783   5.506  63.039  0.00  0.00    -0.035 C 
ATOM     91  H21 non d ame      -6.904   4.468  63.349  0.00  0.00     0.037 H 
ATOM     92  H22 non d ame      -6.476   5.737  62.019  0.00  0.00     0.037 H 
BRANCH  90  93
ATOM     93  C17 non d ame      -5.698   6.124  63.977  0.00  0.00    -0.059 C 
ATOM     94  H23 non d ame      -6.214   6.708  64.740  0.00  0.00     0.038 H 
BRANCH  93  95
ATOM     95  C18 non d ame      -4.856   5.028  64.705  0.00  0.00    -0.073 C 
ATOM     96  H24 non d ame      -4.020   5.497  65.224  0.00  0.00     0.028 H 
ATOM     97  H25 non d ame      -5.485   4.506  65.427  0.00  0.00     0.028 H 
ATOM     98  H26 non d ame      -4.476   4.315  63.973  0.00  0.00     0.028 H 
ENDBRANCH  93  95
BRANCH  93  99
ATOM     99  C19 non d ame      -4.790   7.085  63.205  0.00  0.00    -0.073 C 
ATOM    100  H27 non d ame      -4.430   7.864  63.878  0.00  0.00     0.028 H 
ATOM    101  H28 non d ame      -3.941   6.534  62.799  0.00  0.00     0.028 H 
ATOM    102  H29 non d ame      -5.352   7.539  62.390  0.00  0.00     0.028 H 
ENDBRANCH  93  99
ENDBRANCH  90  93
ENDBRANCH   1  90
TORSDOF 26
ENDMDL
MODEL 18
REMARK VINA RESULT:      -6.1      2.882      7.460
REMARK  26 active torsions:
REMARK  status: ('A' for Active; 'I' for Inactive)
REMARK    1  A    between atoms: C2_2  and  C3_3 
REMARK    2  A    between atoms: C4_6  and  C5_7 
REMARK       I    between atoms: C5_7  and  N2_9 
REMARK    3  A    between atoms: N2_9  and  C6_10 
REMARK    4  A    between atoms: C6_10  and  C7_11 
REMARK    5  A    between atoms: C6_10  and  C8_13 
REMARK       I    between atoms: C7_11  and  N3_14 
REMARK    6  A    between atoms: N3_14  and  C9_15 
REMARK    7  A    between atoms: C9_15  and  C10_16 
REMARK    8  A    between atoms: C9_15  and  C11_18 
REMARK       I    between atoms: C10_16  and  N4_21 
REMARK    9  A    between atoms: C11_18  and  C12_19 
REMARK   10  A    between atoms: C11_18  and  C13_20 
REMARK   11  A    between atoms: N4_21  and  C14_22 
REMARK   12  A    between atoms: C14_22  and  C15_23 
REMARK   13  A    between atoms: C14_22  and  C16_25 
REMARK       I    between atoms: C15_23  and  N6_40 
REMARK   14  A    between atoms: C16_25  and  C17_26 
REMARK   15  A    between atoms: C17_26  and  C18_27 
REMARK   16  A    between atoms: C17_26  and  C19_28 
REMARK   17  A    between atoms: C20_29  and  C21_30 
REMARK   18  A    between atoms: C20_29  and  C24_33 
REMARK   19  A    between atoms: C20_29  and  N6_40 
REMARK   20  A    between atoms: C21_30  and  C22_31 
REMARK   21  A    between atoms: C22_31  and  C23_32 
REMARK   22  A    between atoms: C23_32  and  O8_43 
REMARK   23  A    between atoms: C24_33  and  C25_34 
REMARK   24  A    between atoms: C28_38  and  O6_39 
REMARK   25  A    between atoms: C29_42  and  O8_43 
REMARK   26  A    between atoms: C29_42  and  C35_49 
ROOT
ATOM      1  C14 non d ame      -8.980  10.294  66.849  0.00  0.00     0.089 C 
ATOM      2  H20 non d ame      -9.643   9.623  66.302  0.00  0.00     0.087 H 
ENDROOT
BRANCH   1   3
ATOM      3  N4  non d ame      -9.668  11.569  66.992  0.00  0.00    -0.346 N 
ATOM      4  C10 non d ame     -11.146  11.607  67.285  0.00  0.00     0.241 C 
ATOM      5  O4  non d ame     -11.762  10.599  67.399  0.00  0.00    -0.271 OA
ATOM      6  H19 non d ame      -9.126  12.415  66.889  0.00  0.00     0.163 HD
BRANCH   4   7
ATOM      7  C9  non d ame     -11.841  12.935  67.436  0.00  0.00     0.092 C 
ATOM      8  H11 non d ame     -12.801  12.784  67.930  0.00  0.00     0.088 H 
BRANCH   7   9
ATOM      9  N3  non d ame     -11.042  13.810  68.299  0.00  0.00    -0.346 N 
ATOM     10  C7  non d ame     -11.668  14.508  69.395  0.00  0.00     0.240 C 
ATOM     11  O3  non d ame     -12.814  14.378  69.595  0.00  0.00    -0.271 OA
ATOM     12  H10 non d ame     -10.053  13.933  68.138  0.00  0.00     0.163 HD
BRANCH  10  13
ATOM     13  C6  non d ame     -10.813  15.440  70.309  0.00  0.00     0.086 C 
ATOM     14  H6  non d ame      -9.876  14.980  70.621  0.00  0.00     0.086 H 
BRANCH  13  15
ATOM     15  N2  non d ame     -10.461  16.637  69.563  0.00  0.00    -0.343 N 
ATOM     16  C5  non d ame      -9.180  16.694  68.854  0.00  0.00     0.273 C 
ATOM     17  O2  non d ame      -8.440  15.773  68.893  0.00  0.00    -0.266 OA
ATOM     18  H5  non d ame     -11.098  17.420  69.537  0.00  0.00     0.163 HD
BRANCH  16  19
ATOM     19  C4  non d ame      -8.795  17.952  68.061  0.00  0.00     0.154 A 
ATOM     20  C1  non d ame      -7.895  18.032  66.951  0.00  0.00    -0.017 A 
ATOM     21  C2  non d ame      -7.888  19.397  66.586  0.00  0.00     0.077 A 
ATOM     22  H1  non d ame      -7.333  17.224  66.482  0.00  0.00     0.091 H 
ATOM     23  O1  non d ame      -8.694  20.019  67.397  0.00  0.00    -0.218 OA
ATOM     24  N1  non d ame      -9.235  19.197  68.267  0.00  0.00    -0.123 NA
BRANCH  21  25
ATOM     25  C3  non d ame      -7.087  20.024  65.453  0.00  0.00    -0.029 C 
ATOM     26  H2  non d ame      -6.060  20.190  65.782  0.00  0.00     0.036 H 
ATOM     27  H3  non d ame      -7.089  19.354  64.593  0.00  0.00     0.036 H 
ATOM     28  H4  non d ame      -7.537  20.977  65.173  0.00  0.00     0.036 H 
ENDBRANCH  21  25
ENDBRANCH  16  19
ENDBRANCH  13  15
BRANCH  13  29
ATOM     29  C8  non d ame     -11.607  15.811  71.535  0.00  0.00    -0.049 C 
ATOM     30  H7  non d ame     -12.469  15.150  71.625  0.00  0.00     0.030 H 
ATOM     31  H8  non d ame     -10.978  15.710  72.420  0.00  0.00     0.030 H 
ATOM     32  H9  non d ame     -11.949  16.842  71.448  0.00  0.00     0.030 H 
ENDBRANCH  13  29
ENDBRANCH  10  13
ENDBRANCH   7   9
BRANCH   7  33
ATOM     33  C11 non d ame     -12.001  13.598  66.036  0.00  0.00    -0.033 C 
ATOM     34  H12 non d ame     -12.862  14.265  66.085  0.00  0.00     0.042 H 
BRANCH  33  35
ATOM     35  C12 non d ame     -10.756  14.466  65.672  0.00  0.00    -0.071 C 
ATOM     36  H13 non d ame     -10.815  14.766  64.626  0.00  0.00     0.028 H 
ATOM     37  H14 non d ame     -10.736  15.354  66.304  0.00  0.00     0.028 H 
ATOM     38  H15 non d ame      -9.849  13.884  65.833  0.00  0.00     0.028 H 
ENDBRANCH  33  35
BRANCH  33  39
ATOM     39  C13 non d ame     -12.284  12.524  64.937  0.00  0.00    -0.071 C 
ATOM     40  H16 non d ame     -11.412  12.428  64.290  0.00  0.00     0.028 H 
ATOM     41  H17 non d ame     -12.491  11.564  65.412  0.00  0.00     0.028 H 
ATOM     42  H18 non d ame     -13.145  12.830  64.344  0.00  0.00     0.028 H 
ENDBRANCH  33  39
ENDBRANCH   7  33
ENDBRANCH   4   7
ENDBRANCH   1   3
BRANCH   1  43
ATOM     43  C15 non d ame      -8.636   9.755  68.267  0.00  0.00     0.240 C 
ATOM     44  O5  non d ame      -7.581  10.002  68.753  0.00  0.00    -0.271 OA
ATOM     45  N6  non d ame      -9.627   8.936  69.022  0.00  0.00    -0.355 N 
ATOM     46  H46 non d ame     -10.529   8.723  68.621  0.00  0.00     0.162 HD
BRANCH  45  47
ATOM     47  C20 non d ame      -9.286   8.432  70.370  0.00  0.00     0.013 C 
ATOM     48  H30 non d ame      -8.235   8.656  70.555  0.00  0.00     0.072 H 
BRANCH  47  49
ATOM     49  C21 non d ame      -9.512   6.938  70.416  0.00  0.00    -0.038 C 
ATOM     50  H31 non d ame      -9.303   6.640  71.444  0.00  0.00     0.036 H 
ATOM     51  H32 non d ame     -10.504   6.777  69.993  0.00  0.00     0.036 H 
BRANCH  49  52
ATOM     52  C22 non d ame      -8.524   6.154  69.525  0.00  0.00     0.018 C 
ATOM     53  H33 non d ame      -7.879   6.905  69.068  0.00  0.00     0.048 H 
ATOM     54  H34 non d ame      -8.095   5.384  70.167  0.00  0.00     0.048 H 
BRANCH  52  55
ATOM     55  C23 non d ame      -9.204   5.400  68.349  0.00  0.00     0.259 C 
ATOM     56  O7  non d ame      -9.719   4.344  68.526  0.00  0.00    -0.265 OA
BRANCH  55  57
ATOM     57  O8  non d ame      -9.195   5.982  67.051  0.00  0.00    -0.317 OA
BRANCH  57  58
ATOM     58  C29 non d ame      -9.211   5.028  65.985  0.00  0.00     0.052 C 
ATOM     59  H47 non d ame      -8.967   4.069  66.444  0.00  0.00     0.082 H 
ATOM     60  H48 non d ame     -10.169   5.163  65.483  0.00  0.00     0.082 H 
BRANCH  58  61
ATOM     61  C35 non d ame      -8.079   5.400  64.991  0.00  0.00    -0.034 A 
ATOM     62  C30 non d ame      -8.337   5.442  63.625  0.00  0.00    -0.075 A 
ATOM     63  C31 non d ame      -7.320   5.775  62.732  0.00  0.00    -0.082 A 
ATOM     64  H49 non d ame      -9.336   5.213  63.254  0.00  0.00     0.084 H 
ATOM     65  C32 non d ame      -6.039   6.066  63.210  0.00  0.00    -0.083 A 
ATOM     66  H50 non d ame      -7.526   5.810  61.662  0.00  0.00     0.083 H 
ATOM     67  C33 non d ame      -5.785   6.019  64.574  0.00  0.00    -0.082 A 
ATOM     68  H51 non d ame      -5.238   6.328  62.519  0.00  0.00     0.083 H 
ATOM     69  C34 non d ame      -6.799   5.688  65.470  0.00  0.00    -0.075 A 
ATOM     70  H52 non d ame      -4.784   6.244  64.944  0.00  0.00     0.083 H 
ATOM     71  H53 non d ame      -6.593   5.655  66.540  0.00  0.00     0.084 H 
ENDBRANCH  58  61
ENDBRANCH  57  58
ENDBRANCH  55  57
ENDBRANCH  52  55
ENDBRANCH  49  52
ENDBRANCH  47  49
BRANCH  47  72
ATOM     72  C24 non d ame     -10.166   9.114  71.415  0.00  0.00    -0.039 C 
ATOM     73  H35 non d ame     -10.238   8.406  72.241  0.00  0.00     0.036 H 
ATOM     74  H36 non d ame      -9.719  10.095  71.576  0.00  0.00     0.036 H 
BRANCH  72  75
ATOM     75  C25 non d ame     -11.653   9.357  70.870  0.00  0.00    -0.001 C 
ATOM     76  C26 non d ame     -11.972  10.969  70.810  0.00  0.00    -0.035 C 
ATOM     77  C27 non d ame     -13.141  11.207  71.453  0.00  0.00     0.085 C 
ATOM     78  H38 non d ame     -11.239  11.517  71.403  0.00  0.00     0.036 H 
ATOM     79  H39 non d ame     -12.179  11.272  69.784  0.00  0.00     0.036 H 
ATOM     80  N5  non d ame     -13.482   9.955  72.225  0.00  0.00    -0.049 N 
ATOM     81  H40 non d ame     -12.928  12.012  72.157  0.00  0.00     0.075 H 
ATOM     82  H41 non d ame     -13.881  11.351  70.666  0.00  0.00     0.075 H 
ATOM     83  C28 non d ame     -12.529   8.794  71.634  0.00  0.00     0.193 C 
ATOM     84  H42 non d ame     -13.219  10.131  73.184  0.00  0.00     0.280 HD
ATOM     85  H43 non d ame     -14.440   9.731  71.998  0.00  0.00     0.280 HD
ATOM     86  H44 non d ame     -12.929   8.041  70.956  0.00  0.00     0.129 H 
ATOM     87  H37 non d ame     -11.863   8.776  69.971  0.00  0.00     0.046 H 
BRANCH  83  88
ATOM     88  O6  non d ame     -11.922   8.064  72.702  0.00  0.00    -0.369 OA
ATOM     89  H45 non d ame     -10.985   8.265  72.735  0.00  0.00     0.212 HD
ENDBRANCH  83  88
ENDBRANCH  72  75
ENDBRANCH  47  72
ENDBRANCH  45  47
ENDBRANCH   1  43
BRANCH   1  90
ATOM     90  C16 non d ame      -7.699  10.508  66.059  0.00  0.00    -0.035 C 
ATOM     91  H21 non d ame      -7.851  11.436  65.508  0.00  0.00     0.037 H 
ATOM     92  H22 non d ame      -6.893  10.434  66.789  0.00  0.00     0.037 H 
BRANCH  90  93
ATOM     93  C17 non d ame      -7.429   9.400  64.991  0.00  0.00    -0.059 C 
ATOM     94  H23 non d ame      -7.206   8.475  65.522  0.00  0.00     0.038 H 
BRANCH  93  95
ATOM     95  C18 non d ame      -8.674   9.140  64.084  0.00  0.00    -0.073 C 
ATOM     96  H24 non d ame      -8.622   9.781  63.204  0.00  0.00     0.028 H 
ATOM     97  H25 non d ame      -8.685   8.095  63.773  0.00  0.00     0.028 H 
ATOM     98  H26 non d ame      -9.583   9.363  64.643  0.00  0.00     0.028 H 
ENDBRANCH  93  95
BRANCH  93  99
ATOM     99  C19 non d ame      -6.201   9.745  64.144  0.00  0.00    -0.073 C 
ATOM    100  H27 non d ame      -6.362  10.699  63.641  0.00  0.00     0.028 H 
ATOM    101  H28 non d ame      -5.324   9.817  64.788  0.00  0.00     0.028 H 
ATOM    102  H29 non d ame      -6.042   8.964  63.401  0.00  0.00     0.028 H 
ENDBRANCH  93  99
ENDBRANCH  90  93
ENDBRANCH   1  90
TORSDOF 26
ENDMDL
MODEL 19
REMARK VINA RESULT:      -6.1      2.363      7.124
REMARK  26 active torsions:
REMARK  status: ('A' for Active; 'I' for Inactive)
REMARK    1  A    between atoms: C2_2  and  C3_3 
REMARK    2  A    between atoms: C4_6  and  C5_7 
REMARK       I    between atoms: C5_7  and  N2_9 
REMARK    3  A    between atoms: N2_9  and  C6_10 
REMARK    4  A    between atoms: C6_10  and  C7_11 
REMARK    5  A    between atoms: C6_10  and  C8_13 
REMARK       I    between atoms: C7_11  and  N3_14 
REMARK    6  A    between atoms: N3_14  and  C9_15 
REMARK    7  A    between atoms: C9_15  and  C10_16 
REMARK    8  A    between atoms: C9_15  and  C11_18 
REMARK       I    between atoms: C10_16  and  N4_21 
REMARK    9  A    between atoms: C11_18  and  C12_19 
REMARK   10  A    between atoms: C11_18  and  C13_20 
REMARK   11  A    between atoms: N4_21  and  C14_22 
REMARK   12  A    between atoms: C14_22  and  C15_23 
REMARK   13  A    between atoms: C14_22  and  C16_25 
REMARK       I    between atoms: C15_23  and  N6_40 
REMARK   14  A    between atoms: C16_25  and  C17_26 
REMARK   15  A    between atoms: C17_26  and  C18_27 
REMARK   16  A    between atoms: C17_26  and  C19_28 
REMARK   17  A    between atoms: C20_29  and  C21_30 
REMARK   18  A    between atoms: C20_29  and  C24_33 
REMARK   19  A    between atoms: C20_29  and  N6_40 
REMARK   20  A    between atoms: C21_30  and  C22_31 
REMARK   21  A    between atoms: C22_31  and  C23_32 
REMARK   22  A    between atoms: C23_32  and  O8_43 
REMARK   23  A    between atoms: C24_33  and  C25_34 
REMARK   24  A    between atoms: C28_38  and  O6_39 
REMARK   25  A    between atoms: C29_42  and  O8_43 
REMARK   26  A    between atoms: C29_42  and  C35_49 
ROOT
ATOM      1  C14 non d ame      -6.875  13.278  68.242  0.00  0.00     0.089 C 
ATOM      2  H20 non d ame      -6.090  13.110  67.504  0.00  0.00     0.087 H 
ENDROOT
BRANCH   1   3
ATOM      3  N4  non d ame      -7.127  14.711  68.295  0.00  0.00    -0.346 N 
ATOM      4  C10 non d ame      -6.096  15.685  67.783  0.00  0.00     0.241 C 
ATOM      5  O4  non d ame      -5.069  15.292  67.335  0.00  0.00    -0.271 OA
ATOM      6  H19 non d ame      -8.006  15.025  68.682  0.00  0.00     0.163 HD
BRANCH   4   7
ATOM      7  C9  non d ame      -6.376  17.163  67.840  0.00  0.00     0.092 C 
ATOM      8  H11 non d ame      -6.108  17.616  66.885  0.00  0.00     0.088 H 
BRANCH   7   9
ATOM      9  N3  non d ame      -7.812  17.382  68.037  0.00  0.00    -0.346 N 
ATOM     10  C7  non d ame      -8.659  17.666  66.904  0.00  0.00     0.240 C 
ATOM     11  O3  non d ame      -8.202  17.723  65.828  0.00  0.00    -0.271 OA
ATOM     12  H10 non d ame      -8.220  17.338  68.959  0.00  0.00     0.163 HD
BRANCH  10  13
ATOM     13  C6  non d ame     -10.186  17.901  67.120  0.00  0.00     0.086 C 
ATOM     14  H6  non d ame     -10.800  17.404  66.370  0.00  0.00     0.086 H 
BRANCH  13  15
ATOM     15  N2  non d ame     -10.571  17.345  68.407  0.00  0.00    -0.343 N 
ATOM     16  C5  non d ame     -11.233  16.039  68.460  0.00  0.00     0.273 C 
ATOM     17  O2  non d ame     -11.453  15.446  67.462  0.00  0.00    -0.266 OA
ATOM     18  H5  non d ame     -10.382  17.860  69.255  0.00  0.00     0.163 HD
BRANCH  16  19
ATOM     19  C4  non d ame     -11.644  15.439  69.813  0.00  0.00     0.154 A 
ATOM     20  C1  non d ame     -11.685  16.106  71.078  0.00  0.00    -0.017 A 
ATOM     21  C2  non d ame     -12.125  15.123  71.993  0.00  0.00     0.077 A 
ATOM     22  H1  non d ame     -11.434  17.144  71.299  0.00  0.00     0.091 H 
ATOM     23  O1  non d ame     -12.313  14.025  71.322  0.00  0.00    -0.218 OA
ATOM     24  N1  non d ame     -12.038  14.184  70.047  0.00  0.00    -0.123 NA
BRANCH  21  25
ATOM     25  C3  non d ame     -12.340  15.315  73.489  0.00  0.00    -0.029 C 
ATOM     26  H2  non d ame     -12.022  16.318  73.776  0.00  0.00     0.036 H 
ATOM     27  H3  non d ame     -13.397  15.188  73.723  0.00  0.00     0.036 H 
ATOM     28  H4  non d ame     -11.755  14.577  74.038  0.00  0.00     0.036 H 
ENDBRANCH  21  25
ENDBRANCH  16  19
ENDBRANCH  13  15
BRANCH  13  29
ATOM     29  C8  non d ame     -10.479  19.379  67.088  0.00  0.00    -0.049 C 
ATOM     30  H7  non d ame     -11.415  19.576  67.612  0.00  0.00     0.030 H 
ATOM     31  H8  non d ame      -9.669  19.921  67.576  0.00  0.00     0.030 H 
ATOM     32  H9  non d ame     -10.567  19.709  66.053  0.00  0.00     0.030 H 
ENDBRANCH  13  29
ENDBRANCH  10  13
ENDBRANCH   7   9
BRANCH   7  33
ATOM     33  C11 non d ame      -5.590  17.794  69.027  0.00  0.00    -0.033 C 
ATOM     34  H12 non d ame      -4.556  17.919  68.707  0.00  0.00     0.042 H 
BRANCH  33  35
ATOM     35  C12 non d ame      -6.144  19.208  69.387  0.00  0.00    -0.071 C 
ATOM     36  H13 non d ame      -7.150  19.318  68.983  0.00  0.00     0.028 H 
ATOM     37  H14 non d ame      -6.174  19.320  70.471  0.00  0.00     0.028 H 
ATOM     38  H15 non d ame      -5.494  19.972  68.960  0.00  0.00     0.028 H 
ENDBRANCH  33  35
BRANCH  33  39
ATOM     39  C13 non d ame      -5.600  16.848  70.270  0.00  0.00    -0.071 C 
ATOM     40  H16 non d ame      -6.362  17.181  70.974  0.00  0.00     0.028 H 
ATOM     41  H17 non d ame      -5.823  15.829  69.950  0.00  0.00     0.028 H 
ATOM     42  H18 non d ame      -4.623  16.872  70.752  0.00  0.00     0.028 H 
ENDBRANCH  33  39
ENDBRANCH   7  33
ENDBRANCH   4   7
ENDBRANCH   1   3
BRANCH   1  43
ATOM     43  C15 non d ame      -8.200  12.556  67.865  0.00  0.00     0.240 C 
ATOM     44  O5  non d ame      -9.243  13.038  68.167  0.00  0.00    -0.271 OA
ATOM     45  N6  non d ame      -8.169  11.266  67.118  0.00  0.00    -0.355 N 
ATOM     46  H46 non d ame      -7.289  10.849  66.851  0.00  0.00     0.162 HD
BRANCH  45  47
ATOM     47  C20 non d ame      -9.438  10.593  66.765  0.00  0.00     0.013 C 
ATOM     48  H30 non d ame     -10.257  11.196  67.155  0.00  0.00     0.072 H 
BRANCH  47  49
ATOM     49  C21 non d ame      -9.464   9.217  67.393  0.00  0.00    -0.038 C 
ATOM     50  H31 non d ame      -8.463   8.810  67.255  0.00  0.00     0.036 H 
ATOM     51  H32 non d ame      -9.861   9.361  68.399  0.00  0.00     0.036 H 
BRANCH  49  52
ATOM     52  C22 non d ame     -10.431   8.250  66.677  0.00  0.00     0.018 C 
ATOM     53  H33 non d ame     -11.388   8.355  67.190  0.00  0.00     0.048 H 
ATOM     54  H34 non d ame     -10.354   8.487  65.615  0.00  0.00     0.048 H 
BRANCH  52  55
ATOM     55  C23 non d ame     -10.034   6.754  66.812  0.00  0.00     0.259 C 
ATOM     56  O7  non d ame     -10.400   6.114  67.744  0.00  0.00    -0.265 OA
BRANCH  55  57
ATOM     57  O8  non d ame      -9.216   6.157  65.812  0.00  0.00    -0.317 OA
BRANCH  57  58
ATOM     58  C29 non d ame      -7.813   6.269  66.066  0.00  0.00     0.052 C 
ATOM     59  H47 non d ame      -7.725   6.841  66.989  0.00  0.00     0.082 H 
ATOM     60  H48 non d ame      -7.422   5.253  66.015  0.00  0.00     0.082 H 
BRANCH  58  61
ATOM     61  C35 non d ame      -7.183   7.096  64.913  0.00  0.00    -0.034 A 
ATOM     62  C30 non d ame      -5.868   7.541  65.013  0.00  0.00    -0.075 A 
ATOM     63  C31 non d ame      -5.302   8.284  63.978  0.00  0.00    -0.082 A 
ATOM     64  H49 non d ame      -5.282   7.307  65.902  0.00  0.00     0.084 H 
ATOM     65  C32 non d ame      -6.057   8.584  62.841  0.00  0.00    -0.083 A 
ATOM     66  H50 non d ame      -4.271   8.629  64.059  0.00  0.00     0.083 H 
ATOM     67  C33 non d ame      -7.369   8.141  62.747  0.00  0.00    -0.082 A 
ATOM     68  H51 non d ame      -5.621   9.164  62.027  0.00  0.00     0.083 H 
ATOM     69  C34 non d ame      -7.938   7.396  63.778  0.00  0.00    -0.075 A 
ATOM     70  H52 non d ame      -7.956   8.379  61.860  0.00  0.00     0.083 H 
ATOM     71  H53 non d ame      -8.969   7.051  63.697  0.00  0.00     0.084 H 
ENDBRANCH  58  61
ENDBRANCH  57  58
ENDBRANCH  55  57
ENDBRANCH  52  55
ENDBRANCH  49  52
ENDBRANCH  47  49
BRANCH  47  72
ATOM     72  C24 non d ame      -9.549  10.462  65.248  0.00  0.00    -0.039 C 
ATOM     73  H35 non d ame      -8.526  10.331  64.892  0.00  0.00     0.036 H 
ATOM     74  H36 non d ame     -10.289   9.681  65.077  0.00  0.00     0.036 H 
BRANCH  72  75
ATOM     75  C25 non d ame     -10.114  11.803  64.578  0.00  0.00    -0.001 C 
ATOM     76  C26 non d ame     -11.439  12.324  65.400  0.00  0.00    -0.035 C 
ATOM     77  C27 non d ame     -12.444  12.538  64.517  0.00  0.00     0.085 C 
ATOM     78  H38 non d ame     -11.823  11.526  66.035  0.00  0.00     0.036 H 
ATOM     79  H39 non d ame     -11.254  13.314  65.819  0.00  0.00     0.036 H 
ATOM     80  N5  non d ame     -12.030  11.899  63.214  0.00  0.00    -0.049 N 
ATOM     81  H40 non d ame     -13.304  12.000  64.919  0.00  0.00     0.075 H 
ATOM     82  H41 non d ame     -12.491  13.618  64.385  0.00  0.00     0.075 H 
ATOM     83  C28 non d ame     -10.448  11.606  63.346  0.00  0.00     0.193 C 
ATOM     84  H42 non d ame     -12.518  11.017  63.159  0.00  0.00     0.280 HD
ATOM     85  H43 non d ame     -12.168  12.598  62.497  0.00  0.00     0.280 HD
ATOM     86  H44 non d ame      -9.722  12.242  62.839  0.00  0.00     0.129 H 
ATOM     87  H37 non d ame      -9.327  12.534  64.390  0.00  0.00     0.046 H 
BRANCH  83  88
ATOM     88  O6  non d ame     -10.156  10.275  62.915  0.00  0.00    -0.369 OA
ATOM     89  H45 non d ame      -9.458  10.298  62.257  0.00  0.00     0.212 HD
ENDBRANCH  83  88
ENDBRANCH  72  75
ENDBRANCH  47  72
ENDBRANCH  45  47
ENDBRANCH   1  43
BRANCH   1  90
ATOM     90  C16 non d ame      -6.407  12.806  69.609  0.00  0.00    -0.035 C 
ATOM     91  H21 non d ame      -6.446  13.689  70.248  0.00  0.00     0.037 H 
ATOM     92  H22 non d ame      -7.024  11.938  69.842  0.00  0.00     0.037 H 
BRANCH  90  93
ATOM     93  C17 non d ame      -4.925  12.313  69.628  0.00  0.00    -0.059 C 
ATOM     94  H23 non d ame      -4.862  11.484  70.333  0.00  0.00     0.038 H 
BRANCH  93  95
ATOM     95  C18 non d ame      -4.461  11.786  68.232  0.00  0.00    -0.073 C 
ATOM     96  H24 non d ame      -4.751  10.742  68.123  0.00  0.00     0.028 H 
ATOM     97  H25 non d ame      -4.932  12.378  67.446  0.00  0.00     0.028 H 
ATOM     98  H26 non d ame      -3.378  11.874  68.153  0.00  0.00     0.028 H 
ENDBRANCH  93  95
BRANCH  93  99
ATOM     99  C19 non d ame      -3.989  13.413  70.134  0.00  0.00    -0.073 C 
ATOM    100  H27 non d ame      -4.062  14.282  69.479  0.00  0.00     0.028 H 
ATOM    101  H28 non d ame      -4.275  13.696  71.147  0.00  0.00     0.028 H 
ATOM    102  H29 non d ame      -2.963  13.045  70.136  0.00  0.00     0.028 H 
ENDBRANCH  93  99
ENDBRANCH  90  93
ENDBRANCH   1  90
TORSDOF 26
ENDMDL
MODEL 20
REMARK VINA RESULT:      -6.1      3.585      9.423
REMARK  26 active torsions:
REMARK  status: ('A' for Active; 'I' for Inactive)
REMARK    1  A    between atoms: C2_2  and  C3_3 
REMARK    2  A    between atoms: C4_6  and  C5_7 
REMARK       I    between atoms: C5_7  and  N2_9 
REMARK    3  A    between atoms: N2_9  and  C6_10 
REMARK    4  A    between atoms: C6_10  and  C7_11 
REMARK    5  A    between atoms: C6_10  and  C8_13 
REMARK       I    between atoms: C7_11  and  N3_14 
REMARK    6  A    between atoms: N3_14  and  C9_15 
REMARK    7  A    between atoms: C9_15  and  C10_16 
REMARK    8  A    between atoms: C9_15  and  C11_18 
REMARK       I    between atoms: C10_16  and  N4_21 
REMARK    9  A    between atoms: C11_18  and  C12_19 
REMARK   10  A    between atoms: C11_18  and  C13_20 
REMARK   11  A    between atoms: N4_21  and  C14_22 
REMARK   12  A    between atoms: C14_22  and  C15_23 
REMARK   13  A    between atoms: C14_22  and  C16_25 
REMARK       I    between atoms: C15_23  and  N6_40 
REMARK   14  A    between atoms: C16_25  and  C17_26 
REMARK   15  A    between atoms: C17_26  and  C18_27 
REMARK   16  A    between atoms: C17_26  and  C19_28 
REMARK   17  A    between atoms: C20_29  and  C21_30 
REMARK   18  A    between atoms: C20_29  and  C24_33 
REMARK   19  A    between atoms: C20_29  and  N6_40 
REMARK   20  A    between atoms: C21_30  and  C22_31 
REMARK   21  A    between atoms: C22_31  and  C23_32 
REMARK   22  A    between atoms: C23_32  and  O8_43 
REMARK   23  A    between atoms: C24_33  and  C25_34 
REMARK   24  A    between atoms: C28_38  and  O6_39 
REMARK   25  A    between atoms: C29_42  and  O8_43 
REMARK   26  A    between atoms: C29_42  and  C35_49 
ROOT
ATOM      1  C14 non d ame      -8.642   6.089  65.101  0.00  0.00     0.089 C 
ATOM      2  H20 non d ame      -9.099   5.944  64.122  0.00  0.00     0.087 H 
ENDROOT
BRANCH   1   3
ATOM      3  N4  non d ame      -8.311   7.501  65.225  0.00  0.00    -0.346 N 
ATOM      4  C10 non d ame      -8.259   8.381  64.002  0.00  0.00     0.241 C 
ATOM      5  O4  non d ame      -8.486   7.930  62.928  0.00  0.00    -0.271 OA
ATOM      6  H19 non d ame      -8.119   7.864  66.148  0.00  0.00     0.163 HD
BRANCH   4   7
ATOM      7  C9  non d ame      -7.920   9.841  64.150  0.00  0.00     0.092 C 
ATOM      8  H11 non d ame      -7.644  10.245  63.176  0.00  0.00     0.088 H 
BRANCH   7   9
ATOM      9  N3  non d ame      -9.105  10.575  64.604  0.00  0.00    -0.346 N 
ATOM     10  C7  non d ame      -9.961  11.226  63.643  0.00  0.00     0.240 C 
ATOM     11  O3  non d ame      -9.711  11.170  62.501  0.00  0.00    -0.271 OA
ATOM     12  H10 non d ame      -9.333  10.634  65.586  0.00  0.00     0.163 HD
BRANCH  10  13
ATOM     13  C6  non d ame     -11.219  12.008  64.132  0.00  0.00     0.086 C 
ATOM     14  H6  non d ame     -11.521  11.732  65.142  0.00  0.00     0.086 H 
BRANCH  13  15
ATOM     15  N2  non d ame     -10.908  13.428  64.165  0.00  0.00    -0.343 N 
ATOM     16  C5  non d ame     -11.406  14.250  65.270  0.00  0.00     0.273 C 
ATOM     17  O2  non d ame     -12.057  13.761  66.126  0.00  0.00    -0.266 OA
ATOM     18  H5  non d ame     -10.353  13.838  63.427  0.00  0.00     0.163 HD
BRANCH  16  19
ATOM     19  C4  non d ame     -11.083  15.752  65.318  0.00  0.00     0.154 A 
ATOM     20  C1  non d ame     -10.555  16.488  66.426  0.00  0.00    -0.017 A 
ATOM     21  C2  non d ame     -10.443  17.816  65.959  0.00  0.00     0.077 A 
ATOM     22  H1  non d ame     -10.294  16.115  67.417  0.00  0.00     0.091 H 
ATOM     23  O1  non d ame     -10.859  17.830  64.727  0.00  0.00    -0.218 OA
ATOM     24  N1  non d ame     -11.238  16.637  64.330  0.00  0.00    -0.123 NA
BRANCH  21  25
ATOM     25  C3  non d ame      -9.929  19.010  66.753  0.00  0.00    -0.029 C 
ATOM     26  H2  non d ame      -8.955  19.312  66.367  0.00  0.00     0.036 H 
ATOM     27  H3  non d ame     -10.631  19.839  66.657  0.00  0.00     0.036 H 
ATOM     28  H4  non d ame      -9.834  18.735  67.804  0.00  0.00     0.036 H 
ENDBRANCH  21  25
ENDBRANCH  16  19
ENDBRANCH  13  15
BRANCH  13  29
ATOM     29  C8  non d ame     -12.370  11.753  63.192  0.00  0.00    -0.049 C 
ATOM     30  H7  non d ame     -12.723  10.730  63.319  0.00  0.00     0.030 H 
ATOM     31  H8  non d ame     -13.181  12.447  63.414  0.00  0.00     0.030 H 
ATOM     32  H9  non d ame     -12.038  11.897  62.164  0.00  0.00     0.030 H 
ENDBRANCH  13  29
ENDBRANCH  10  13
ENDBRANCH   7   9
BRANCH   7  33
ATOM     33  C11 non d ame      -6.779  10.005  65.197  0.00  0.00    -0.033 C 
ATOM     34  H12 non d ame      -6.542   9.014  65.582  0.00  0.00     0.042 H 
BRANCH  33  35
ATOM     35  C12 non d ame      -5.483  10.576  64.540  0.00  0.00    -0.071 C 
ATOM     36  H13 non d ame      -4.691   9.829  64.591  0.00  0.00     0.028 H 
ATOM     37  H14 non d ame      -5.683  10.823  63.498  0.00  0.00     0.028 H 
ATOM     38  H15 non d ame      -5.171  11.473  65.074  0.00  0.00     0.028 H 
ENDBRANCH  33  35
BRANCH  33  39
ATOM     39  C13 non d ame      -7.244  10.891  66.397  0.00  0.00    -0.071 C 
ATOM     40  H16 non d ame      -6.707  11.839  66.378  0.00  0.00     0.028 H 
ATOM     41  H17 non d ame      -8.315  11.079  66.316  0.00  0.00     0.028 H 
ATOM     42  H18 non d ame      -7.035  10.373  67.332  0.00  0.00     0.028 H 
ENDBRANCH  33  39
ENDBRANCH   7  33
ENDBRANCH   4   7
ENDBRANCH   1   3
BRANCH   1  43
ATOM     43  C15 non d ame      -9.604   5.702  66.261  0.00  0.00     0.240 C 
ATOM     44  O5  non d ame     -10.416   4.850  66.097  0.00  0.00    -0.271 OA
ATOM     45  N6  non d ame      -9.507   6.389  67.581  0.00  0.00    -0.355 N 
ATOM     46  H46 non d ame      -8.819   7.111  67.734  0.00  0.00     0.162 HD
BRANCH  45  47
ATOM     47  C20 non d ame     -10.428   6.009  68.674  0.00  0.00     0.013 C 
ATOM     48  H30 non d ame     -11.296   5.522  68.228  0.00  0.00     0.072 H 
BRANCH  47  49
ATOM     49  C21 non d ame     -10.860   7.252  69.419  0.00  0.00    -0.038 C 
ATOM     50  H31 non d ame     -11.893   7.432  69.119  0.00  0.00     0.036 H 
ATOM     51  H32 non d ame     -10.620   7.066  70.466  0.00  0.00     0.036 H 
BRANCH  49  52
ATOM     52  C22 non d ame     -10.061   8.507  69.004  0.00  0.00     0.018 C 
ATOM     53  H33 non d ame     -10.006   9.131  69.897  0.00  0.00     0.048 H 
ATOM     54  H34 non d ame      -9.145   8.135  68.543  0.00  0.00     0.048 H 
BRANCH  52  55
ATOM     55  C23 non d ame     -10.766   9.370  67.921  0.00  0.00     0.259 C 
ATOM     56  O7  non d ame     -10.597   9.145  66.767  0.00  0.00    -0.265 OA
BRANCH  55  57
ATOM     57  O8  non d ame     -11.609  10.442  68.325  0.00  0.00    -0.317 OA
BRANCH  57  58
ATOM     58  C29 non d ame     -11.746  10.573  69.743  0.00  0.00     0.052 C 
ATOM     59  H47 non d ame     -12.647  10.018  70.004  0.00  0.00     0.082 H 
ATOM     60  H48 non d ame     -10.784  10.278  70.161  0.00  0.00     0.082 H 
BRANCH  58  61
ATOM     61  C35 non d ame     -11.982  12.073  70.065  0.00  0.00    -0.034 A 
ATOM     62  C30 non d ame     -11.407  13.056  69.267  0.00  0.00    -0.075 A 
ATOM     63  C31 non d ame     -11.618  14.403  69.556  0.00  0.00    -0.082 A 
ATOM     64  H49 non d ame     -10.790  12.771  68.414  0.00  0.00     0.084 H 
ATOM     65  C32 non d ame     -12.407  14.766  70.651  0.00  0.00    -0.083 A 
ATOM     66  H50 non d ame     -11.168  15.171  68.927  0.00  0.00     0.083 H 
ATOM     67  C33 non d ame     -12.977  13.781  71.447  0.00  0.00    -0.082 A 
ATOM     68  H51 non d ame     -12.579  15.817  70.884  0.00  0.00     0.083 H 
ATOM     69  C34 non d ame     -12.770  12.434  71.160  0.00  0.00    -0.075 A 
ATOM     70  H52 non d ame     -13.590  14.068  72.302  0.00  0.00     0.083 H 
ATOM     71  H53 non d ame     -13.221  11.666  71.789  0.00  0.00     0.084 H 
ENDBRANCH  58  61
ENDBRANCH  57  58
ENDBRANCH  55  57
ENDBRANCH  52  55
ENDBRANCH  49  52
ENDBRANCH  47  49
BRANCH  47  72
ATOM     72  C24 non d ame      -9.722   5.057  69.637  0.00  0.00    -0.039 C 
ATOM     73  H35 non d ame     -10.491   4.360  69.971  0.00  0.00     0.036 H 
ATOM     74  H36 non d ame      -8.851   4.689  69.094  0.00  0.00     0.036 H 
BRANCH  72  75
ATOM     75  C25 non d ame      -9.181   5.822  70.936  0.00  0.00    -0.001 C 
ATOM     76  C26 non d ame      -7.559   6.062  70.809  0.00  0.00    -0.035 C 
ATOM     77  C27 non d ame      -6.961   5.611  71.938  0.00  0.00     0.085 C 
ATOM     78  H38 non d ame      -7.146   5.422  70.030  0.00  0.00     0.036 H 
ATOM     79  H39 non d ame      -7.337   7.129  70.813  0.00  0.00     0.036 H 
ATOM     80  N5  non d ame      -7.987   4.790  72.682  0.00  0.00    -0.049 N 
ATOM     81  H40 non d ame      -6.158   4.955  71.601  0.00  0.00     0.075 H 
ATOM     82  H41 non d ame      -6.730   6.502  72.521  0.00  0.00     0.075 H 
ATOM     83  C28 non d ame      -9.411   5.142  72.009  0.00  0.00     0.193 C 
ATOM     84  H42 non d ame      -7.771   3.822  72.492  0.00  0.00     0.280 HD
ATOM     85  H43 non d ame      -7.989   5.129  73.634  0.00  0.00     0.280 HD
ATOM     86  H44 non d ame     -10.115   5.803  72.515  0.00  0.00     0.129 H 
ATOM     87  H37 non d ame      -9.791   6.689  71.190  0.00  0.00     0.046 H 
BRANCH  83  88
ATOM     88  O6  non d ame     -10.139   3.942  71.741  0.00  0.00    -0.369 OA
ATOM     89  H45 non d ame     -10.370   3.910  70.810  0.00  0.00     0.212 HD
ENDBRANCH  83  88
ENDBRANCH  72  75
ENDBRANCH  47  72
ENDBRANCH  45  47
ENDBRANCH   1  43
BRANCH   1  90
ATOM     90  C16 non d ame      -7.366   5.269  65.201  0.00  0.00    -0.035 C 
ATOM     91  H21 non d ame      -7.459   4.700  66.126  0.00  0.00     0.037 H 
ATOM     92  H22 non d ame      -7.283   4.747  64.247  0.00  0.00     0.037 H 
BRANCH  90  93
ATOM     93  C17 non d ame      -6.074   6.135  65.344  0.00  0.00    -0.059 C 
ATOM     94  H23 non d ame      -6.384   7.173  65.467  0.00  0.00     0.038 H 
BRANCH  93  95
ATOM     95  C18 non d ame      -5.233   5.736  66.598  0.00  0.00    -0.073 C 
ATOM     96  H24 non d ame      -5.890   5.650  67.463  0.00  0.00     0.028 H 
ATOM     97  H25 non d ame      -4.742   4.779  66.417  0.00  0.00     0.028 H 
ATOM     98  H26 non d ame      -4.479   6.500  66.788  0.00  0.00     0.028 H 
ENDBRANCH  93  95
BRANCH  93  99
ATOM     99  C19 non d ame      -5.224   6.063  64.072  0.00  0.00    -0.073 C 
ATOM    100  H27 non d ame      -5.764   5.506  63.306  0.00  0.00     0.028 H 
ATOM    101  H28 non d ame      -5.022   7.072  63.713  0.00  0.00     0.028 H 
ATOM    102  H29 non d ame      -4.283   5.560  64.292  0.00  0.00     0.028 H 
ENDBRANCH  93  99
ENDBRANCH  90  93
ENDBRANCH   1  90
TORSDOF 26
ENDMDL
