MODEL 1
REMARK VINA RESULT:      -7.3      0.000      0.000
REMARK  26 active torsions:
REMARK  status: ('A' for Active; 'I' for Inactive)
REMARK    1  A    between atoms: C2_2  and  C3_3 
REMARK    2  A    between atoms: C4_6  and  C5_7 
REMARK       I    between atoms: C5_7  and  N2_9 
REMARK    3  A    between atoms: N2_9  and  C6_10 
REMARK    4  A    between atoms: C6_10  and  C7_11 
REMARK    5  A    between atoms: C6_10  and  C8_13 
REMARK       I    between atoms: C7_11  and  N3_14 
REMARK    6  A    between atoms: N3_14  and  C9_15 
REMARK    7  A    between atoms: C9_15  and  C10_16 
REMARK    8  A    between atoms: C9_15  and  C11_18 
REMARK       I    between atoms: C10_16  and  N4_21 
REMARK    9  A    between atoms: C11_18  and  C12_19 
REMARK   10  A    between atoms: C11_18  and  C13_20 
REMARK   11  A    between atoms: N4_21  and  C14_22 
REMARK   12  A    between atoms: C14_22  and  C15_23 
REMARK   13  A    between atoms: C14_22  and  C16_25 
REMARK       I    between atoms: C15_23  and  N6_40 
REMARK   14  A    between atoms: C16_25  and  C17_26 
REMARK   15  A    between atoms: C17_26  and  C18_27 
REMARK   16  A    between atoms: C17_26  and  C19_28 
REMARK   17  A    between atoms: C20_29  and  C21_30 
REMARK   18  A    between atoms: C20_29  and  C24_33 
REMARK   19  A    between atoms: C20_29  and  N6_40 
REMARK   20  A    between atoms: C21_30  and  C22_31 
REMARK   21  A    between atoms: C22_31  and  C23_32 
REMARK   22  A    between atoms: C23_32  and  O8_43 
REMARK   23  A    between atoms: C24_33  and  C25_34 
REMARK   24  A    between atoms: C28_38  and  O6_39 
REMARK   25  A    between atoms: C29_42  and  O8_43 
REMARK   26  A    between atoms: C29_42  and  C35_49 
ROOT
ATOM      1  C14 non d ame     -12.268  14.402  70.346  0.00  0.00     0.089 C 
ATOM      2  H20 non d ame     -13.353  14.394  70.458  0.00  0.00     0.087 H 
ENDROOT
BRANCH   1   3
ATOM      3  N4  non d ame     -11.847  13.037  70.067  0.00  0.00    -0.346 N 
ATOM      4  C10 non d ame     -12.419  11.886  70.857  0.00  0.00     0.241 C 
ATOM      5  O4  non d ame     -13.215  12.085  71.716  0.00  0.00    -0.271 OA
ATOM      6  H19 non d ame     -11.167  12.889  69.334  0.00  0.00     0.163 HD
BRANCH   4   7
ATOM      7  C9  non d ame     -11.976  10.480  70.552  0.00  0.00     0.092 C 
ATOM      8  H11 non d ame     -12.490  10.127  69.658  0.00  0.00     0.088 H 
BRANCH   7   9
ATOM      9  N3  non d ame     -10.540  10.472  70.256  0.00  0.00    -0.346 N 
ATOM     10  C7  non d ame     -10.085  10.523  68.889  0.00  0.00     0.240 C 
ATOM     11  O3  non d ame     -10.860  10.568  68.013  0.00  0.00    -0.271 OA
ATOM     12  H10 non d ame      -9.858  10.432  71.002  0.00  0.00     0.163 HD
BRANCH  10  13
ATOM     13  C6  non d ame      -8.555  10.512  68.581  0.00  0.00     0.086 C 
ATOM     14  H6  non d ame      -8.338  10.317  67.531  0.00  0.00     0.086 H 
BRANCH  13  15
ATOM     15  N2  non d ame      -8.004  11.822  68.883  0.00  0.00    -0.343 N 
ATOM     16  C5  non d ame      -7.112  12.470  67.920  0.00  0.00     0.273 C 
ATOM     17  O2  non d ame      -6.842  11.927  66.906  0.00  0.00    -0.266 OA
ATOM     18  H5  non d ame      -8.239  12.278  69.754  0.00  0.00     0.163 HD
BRANCH  16  19
ATOM     19  C4  non d ame      -6.524  13.856  68.226  0.00  0.00     0.154 A 
ATOM     20  C1  non d ame      -6.646  14.598  69.444  0.00  0.00    -0.017 A 
ATOM     21  C2  non d ame      -5.932  15.794  69.214  0.00  0.00     0.077 A 
ATOM     22  H1  non d ame      -7.171  14.311  70.355  0.00  0.00     0.091 H 
ATOM     23  O1  non d ame      -5.457  15.736  68.005  0.00  0.00    -0.218 OA
ATOM     24  N1  non d ame      -5.790  14.615  67.408  0.00  0.00    -0.123 NA
BRANCH  21  25
ATOM     25  C3  non d ame      -5.750  16.939  70.202  0.00  0.00    -0.029 C 
ATOM     26  H2  non d ame      -5.983  16.592  71.209  0.00  0.00     0.036 H 
ATOM     27  H3  non d ame      -4.718  17.288  70.169  0.00  0.00     0.036 H 
ATOM     28  H4  non d ame      -6.419  17.759  69.937  0.00  0.00     0.036 H 
ENDBRANCH  21  25
ENDBRANCH  16  19
ENDBRANCH  13  15
BRANCH  13  29
ATOM     29  C8  non d ame      -7.878   9.460  69.423  0.00  0.00    -0.049 C 
ATOM     30  H7  non d ame      -7.973   8.489  68.936  0.00  0.00     0.030 H 
ATOM     31  H8  non d ame      -6.823   9.708  69.535  0.00  0.00     0.030 H 
ATOM     32  H9  non d ame      -8.350   9.422  70.405  0.00  0.00     0.030 H 
ENDBRANCH  13  29
ENDBRANCH  10  13
ENDBRANCH   7   9
BRANCH   7  33
ATOM     33  C11 non d ame     -12.254   9.570  71.784  0.00  0.00    -0.033 C 
ATOM     34  H12 non d ame     -12.359  10.216  72.654  0.00  0.00     0.042 H 
BRANCH  33  35
ATOM     35  C12 non d ame     -13.592   8.783  71.619  0.00  0.00    -0.071 C 
ATOM     36  H13 non d ame     -14.207   9.267  70.860  0.00  0.00     0.028 H 
ATOM     37  H14 non d ame     -13.377   7.760  71.314  0.00  0.00     0.028 H 
ATOM     38  H15 non d ame     -14.127   8.776  72.568  0.00  0.00     0.028 H 
ENDBRANCH  33  35
BRANCH  33  39
ATOM     39  C13 non d ame     -11.057   8.599  72.044  0.00  0.00    -0.071 C 
ATOM     40  H16 non d ame     -10.161   9.179  72.265  0.00  0.00     0.028 H 
ATOM     41  H17 non d ame     -11.290   7.954  72.892  0.00  0.00     0.028 H 
ATOM     42  H18 non d ame     -10.886   7.988  71.159  0.00  0.00     0.028 H 
ENDBRANCH  33  39
ENDBRANCH   7  33
ENDBRANCH   4   7
ENDBRANCH   1   3
BRANCH   1  43
ATOM     43  C15 non d ame     -11.805  15.311  69.172  0.00  0.00     0.240 C 
ATOM     44  O5  non d ame     -12.059  16.472  69.188  0.00  0.00    -0.271 OA
ATOM     45  N6  non d ame     -11.035  14.736  68.032  0.00  0.00    -0.355 N 
ATOM     46  H46 non d ame     -10.809  13.752  68.011  0.00  0.00     0.162 HD
BRANCH  45  47
ATOM     47  C20 non d ame     -10.601  15.614  66.925  0.00  0.00     0.013 C 
ATOM     48  H30 non d ame     -11.264  16.478  66.901  0.00  0.00     0.072 H 
BRANCH  47  49
ATOM     49  C21 non d ame     -10.694  14.857  65.619  0.00  0.00    -0.038 C 
ATOM     50  H31 non d ame     -11.724  14.976  65.283  0.00  0.00     0.036 H 
ATOM     51  H32 non d ame      -9.873  15.227  65.005  0.00  0.00     0.036 H 
BRANCH  49  52
ATOM     52  C22 non d ame     -10.463  13.339  65.790  0.00  0.00     0.018 C 
ATOM     53  H33 non d ame      -9.510  13.129  65.303  0.00  0.00     0.048 H 
ATOM     54  H34 non d ame     -10.586  13.139  66.854  0.00  0.00     0.048 H 
BRANCH  52  55
ATOM     55  C23 non d ame     -11.518  12.459  65.063  0.00  0.00     0.259 C 
ATOM     56  O7  non d ame     -12.672  12.555  65.332  0.00  0.00    -0.265 OA
BRANCH  55  57
ATOM     57  O8  non d ame     -11.088  11.526  64.080  0.00  0.00    -0.317 OA
BRANCH  57  58
ATOM     58  C29 non d ame     -10.211  10.514  64.583  0.00  0.00     0.052 C 
ATOM     59  H47 non d ame      -9.663  10.979  65.401  0.00  0.00     0.082 H 
ATOM     60  H48 non d ame     -10.841   9.645  64.773  0.00  0.00     0.082 H 
BRANCH  58  61
ATOM     61  C35 non d ame      -9.203  10.152  63.459  0.00  0.00    -0.034 A 
ATOM     62  C30 non d ame      -8.645   8.879  63.407  0.00  0.00    -0.075 A 
ATOM     63  C31 non d ame      -7.740   8.555  62.397  0.00  0.00    -0.082 A 
ATOM     64  H49 non d ame      -8.916   8.135  64.156  0.00  0.00     0.084 H 
ATOM     65  C32 non d ame      -7.391   9.511  61.439  0.00  0.00    -0.083 A 
ATOM     66  H50 non d ame      -7.306   7.555  62.357  0.00  0.00     0.083 H 
ATOM     67  C33 non d ame      -7.948  10.781  61.498  0.00  0.00    -0.082 A 
ATOM     68  H51 non d ame      -6.685   9.265  60.646  0.00  0.00     0.083 H 
ATOM     69  C34 non d ame      -8.855  11.108  62.504  0.00  0.00    -0.075 A 
ATOM     70  H52 non d ame      -7.672  11.525  60.749  0.00  0.00     0.083 H 
ATOM     71  H53 non d ame      -9.289  12.108  62.542  0.00  0.00     0.084 H 
ENDBRANCH  58  61
ENDBRANCH  57  58
ENDBRANCH  55  57
ENDBRANCH  52  55
ENDBRANCH  49  52
ENDBRANCH  47  49
BRANCH  47  72
ATOM     72  C24 non d ame      -9.158  16.059  67.154  0.00  0.00    -0.039 C 
ATOM     73  H35 non d ame      -8.811  15.485  68.014  0.00  0.00     0.036 H 
ATOM     74  H36 non d ame      -8.662  15.947  66.189  0.00  0.00     0.036 H 
BRANCH  72  75
ATOM     75  C25 non d ame      -9.071  17.608  67.554  0.00  0.00    -0.001 C 
ATOM     76  C26 non d ame     -10.395  18.406  66.994  0.00  0.00    -0.035 C 
ATOM     77  C27 non d ame      -9.986  19.496  66.300  0.00  0.00     0.085 C 
ATOM     78  H38 non d ame     -10.905  17.803  66.243  0.00  0.00     0.036 H 
ATOM     79  H39 non d ame     -10.956  18.829  67.826  0.00  0.00     0.036 H 
ATOM     80  N5  non d ame      -8.504  19.335  66.059  0.00  0.00    -0.049 N 
ATOM     81  H40 non d ame     -10.510  19.446  65.345  0.00  0.00     0.075 H 
ATOM     82  H41 non d ame     -10.148  20.342  66.967  0.00  0.00     0.075 H 
ATOM     83  C28 non d ame      -8.016  18.162  67.055  0.00  0.00     0.193 C 
ATOM     84  H42 non d ame      -8.403  19.012  65.108  0.00  0.00     0.280 HD
ATOM     85  H43 non d ame      -8.072  20.201  66.347  0.00  0.00     0.280 HD
ATOM     86  H44 non d ame      -7.467  18.400  67.965  0.00  0.00     0.129 H 
ATOM     87  H37 non d ame      -8.814  17.749  68.604  0.00  0.00     0.046 H 
BRANCH  83  88
ATOM     88  O6  non d ame      -7.199  17.225  66.350  0.00  0.00    -0.369 OA
ATOM     89  H45 non d ame      -7.659  16.930  65.561  0.00  0.00     0.212 HD
ENDBRANCH  83  88
ENDBRANCH  72  75
ENDBRANCH  47  72
ENDBRANCH  45  47
ENDBRANCH   1  43
BRANCH   1  90
ATOM     90  C16 non d ame     -11.620  14.866  71.640  0.00  0.00    -0.035 C 
ATOM     91  H21 non d ame     -11.343  13.952  72.168  0.00  0.00     0.037 H 
ATOM     92  H22 non d ame     -10.849  15.575  71.338  0.00  0.00     0.037 H 
BRANCH  90  93
ATOM     93  C17 non d ame     -12.591  15.643  72.584  0.00  0.00    -0.059 C 
ATOM     94  H23 non d ame     -12.372  16.706  72.480  0.00  0.00     0.038 H 
BRANCH  93  95
ATOM     95  C18 non d ame     -14.089  15.425  72.199  0.00  0.00    -0.073 C 
ATOM     96  H24 non d ame     -14.451  16.291  71.644  0.00  0.00     0.028 H 
ATOM     97  H25 non d ame     -14.178  14.533  71.578  0.00  0.00     0.028 H 
ATOM     98  H26 non d ame     -14.682  15.299  73.104  0.00  0.00     0.028 H 
ENDBRANCH  93  95
BRANCH  93  99
ATOM     99  C19 non d ame     -12.345  15.271  74.049  0.00  0.00    -0.073 C 
ATOM    100  H27 non d ame     -13.233  14.782  74.453  0.00  0.00     0.028 H 
ATOM    101  H28 non d ame     -11.495  14.591  74.112  0.00  0.00     0.028 H 
ATOM    102  H29 non d ame     -12.132  16.172  74.622  0.00  0.00     0.028 H 
ENDBRANCH  93  99
ENDBRANCH  90  93
ENDBRANCH   1  90
TORSDOF 26
ENDMDL
MODEL 2
REMARK VINA RESULT:      -6.7      3.245      8.042
REMARK  26 active torsions:
REMARK  status: ('A' for Active; 'I' for Inactive)
REMARK    1  A    between atoms: C2_2  and  C3_3 
REMARK    2  A    between atoms: C4_6  and  C5_7 
REMARK       I    between atoms: C5_7  and  N2_9 
REMARK    3  A    between atoms: N2_9  and  C6_10 
REMARK    4  A    between atoms: C6_10  and  C7_11 
REMARK    5  A    between atoms: C6_10  and  C8_13 
REMARK       I    between atoms: C7_11  and  N3_14 
REMARK    6  A    between atoms: N3_14  and  C9_15 
REMARK    7  A    between atoms: C9_15  and  C10_16 
REMARK    8  A    between atoms: C9_15  and  C11_18 
REMARK       I    between atoms: C10_16  and  N4_21 
REMARK    9  A    between atoms: C11_18  and  C12_19 
REMARK   10  A    between atoms: C11_18  and  C13_20 
REMARK   11  A    between atoms: N4_21  and  C14_22 
REMARK   12  A    between atoms: C14_22  and  C15_23 
REMARK   13  A    between atoms: C14_22  and  C16_25 
REMARK       I    between atoms: C15_23  and  N6_40 
REMARK   14  A    between atoms: C16_25  and  C17_26 
REMARK   15  A    between atoms: C17_26  and  C18_27 
REMARK   16  A    between atoms: C17_26  and  C19_28 
REMARK   17  A    between atoms: C20_29  and  C21_30 
REMARK   18  A    between atoms: C20_29  and  C24_33 
REMARK   19  A    between atoms: C20_29  and  N6_40 
REMARK   20  A    between atoms: C21_30  and  C22_31 
REMARK   21  A    between atoms: C22_31  and  C23_32 
REMARK   22  A    between atoms: C23_32  and  O8_43 
REMARK   23  A    between atoms: C24_33  and  C25_34 
REMARK   24  A    between atoms: C28_38  and  O6_39 
REMARK   25  A    between atoms: C29_42  and  O8_43 
REMARK   26  A    between atoms: C29_42  and  C35_49 
ROOT
ATOM      1  C14 non d ame     -12.049  13.723  69.413  0.00  0.00     0.089 C 
ATOM      2  H20 non d ame     -12.922  13.309  68.907  0.00  0.00     0.087 H 
ENDROOT
BRANCH   1   3
ATOM      3  N4  non d ame     -11.406  12.636  70.136  0.00  0.00    -0.346 N 
ATOM      4  C10 non d ame     -11.558  11.211  69.663  0.00  0.00     0.241 C 
ATOM      5  O4  non d ame     -12.205  10.965  68.699  0.00  0.00    -0.271 OA
ATOM      6  H19 non d ame     -10.863  12.865  70.956  0.00  0.00     0.163 HD
BRANCH   4   7
ATOM      7  C9  non d ame     -10.882  10.099  70.421  0.00  0.00     0.092 C 
ATOM      8  H11 non d ame     -10.825  10.366  71.476  0.00  0.00     0.088 H 
BRANCH   7   9
ATOM      9  N3  non d ame     -11.692   8.880  70.326  0.00  0.00    -0.346 N 
ATOM     10  C7  non d ame     -12.484   8.452  71.453  0.00  0.00     0.240 C 
ATOM     11  O3  non d ame     -12.481   9.075  72.444  0.00  0.00    -0.271 OA
ATOM     12  H10 non d ame     -11.705   8.332  69.478  0.00  0.00     0.163 HD
BRANCH  10  13
ATOM     13  C6  non d ame     -13.341   7.152  71.347  0.00  0.00     0.086 C 
ATOM     14  H6  non d ame     -13.232   6.652  70.385  0.00  0.00     0.086 H 
BRANCH  13  15
ATOM     15  N2  non d ame     -12.895   6.209  72.359  0.00  0.00    -0.343 N 
ATOM     16  C5  non d ame     -11.554   5.628  72.263  0.00  0.00     0.273 C 
ATOM     17  O2  non d ame     -10.844   5.924  71.366  0.00  0.00    -0.266 OA
ATOM     18  H5  non d ame     -13.509   5.960  73.121  0.00  0.00     0.163 HD
BRANCH  16  19
ATOM     19  C4  non d ame     -11.068   4.631  73.326  0.00  0.00     0.154 A 
ATOM     20  C1  non d ame     -10.951   3.211  73.191  0.00  0.00    -0.017 A 
ATOM     21  C2  non d ame     -10.464   2.766  74.440  0.00  0.00     0.077 A 
ATOM     22  H1  non d ame     -11.183   2.598  72.320  0.00  0.00     0.091 H 
ATOM     23  O1  non d ame     -10.320   3.815  75.196  0.00  0.00    -0.218 OA
ATOM     24  N1  non d ame     -10.667   4.915  74.568  0.00  0.00    -0.123 NA
BRANCH  21  25
ATOM     25  C3  non d ame     -10.162   1.325  74.828  0.00  0.00    -0.029 C 
ATOM     26  H2  non d ame     -11.057   0.716  74.692  0.00  0.00     0.036 H 
ATOM     27  H3  non d ame      -9.362   0.939  74.198  0.00  0.00     0.036 H 
ATOM     28  H4  non d ame      -9.852   1.287  75.873  0.00  0.00     0.036 H 
ENDBRANCH  21  25
ENDBRANCH  16  19
ENDBRANCH  13  15
BRANCH  13  29
ATOM     29  C8  non d ame     -14.795   7.488  71.560  0.00  0.00    -0.049 C 
ATOM     30  H7  non d ame     -14.875   8.431  72.101  0.00  0.00     0.030 H 
ATOM     31  H8  non d ame     -15.294   7.578  70.595  0.00  0.00     0.030 H 
ATOM     32  H9  non d ame     -15.269   6.696  72.141  0.00  0.00     0.030 H 
ENDBRANCH  13  29
ENDBRANCH  10  13
ENDBRANCH   7   9
BRANCH   7  33
ATOM     33  C11 non d ame      -9.476   9.833  69.807  0.00  0.00    -0.033 C 
ATOM     34  H12 non d ame      -8.999  10.799  69.648  0.00  0.00     0.042 H 
BRANCH  33  35
ATOM     35  C12 non d ame      -8.574   9.018  70.785  0.00  0.00    -0.071 C 
ATOM     36  H13 non d ame      -8.361   8.040  70.354  0.00  0.00     0.028 H 
ATOM     37  H14 non d ame      -7.640   9.554  70.950  0.00  0.00     0.028 H 
ATOM     38  H15 non d ame      -9.092   8.891  71.735  0.00  0.00     0.028 H 
ENDBRANCH  33  35
BRANCH  33  39
ATOM     39  C13 non d ame      -9.597   9.120  68.422  0.00  0.00    -0.071 C 
ATOM     40  H16 non d ame      -9.740   8.051  68.575  0.00  0.00     0.028 H 
ATOM     41  H17 non d ame     -10.449   9.526  67.877  0.00  0.00     0.028 H 
ATOM     42  H18 non d ame      -8.686   9.286  67.847  0.00  0.00     0.028 H 
ENDBRANCH  33  39
ENDBRANCH   7  33
ENDBRANCH   4   7
ENDBRANCH   1   3
BRANCH   1  43
ATOM     43  C15 non d ame     -11.022  14.326  68.413  0.00  0.00     0.240 C 
ATOM     44  O5  non d ame      -9.972  14.719  68.808  0.00  0.00    -0.271 OA
ATOM     45  N6  non d ame     -11.343  14.405  66.959  0.00  0.00    -0.355 N 
ATOM     46  H46 non d ame     -12.230  14.070  66.611  0.00  0.00     0.162 HD
BRANCH  45  47
ATOM     47  C20 non d ame     -10.356  14.980  66.021  0.00  0.00     0.013 C 
ATOM     48  H30 non d ame      -9.367  14.871  66.466  0.00  0.00     0.072 H 
BRANCH  47  49
ATOM     49  C21 non d ame     -10.665  16.444  65.804  0.00  0.00    -0.038 C 
ATOM     50  H31 non d ame     -10.665  16.589  64.724  0.00  0.00     0.036 H 
ATOM     51  H32 non d ame     -11.570  16.643  66.381  0.00  0.00     0.036 H 
BRANCH  49  52
ATOM     52  C22 non d ame      -9.573  17.378  66.370  0.00  0.00     0.018 C 
ATOM     53  H33 non d ame      -8.805  16.720  66.780  0.00  0.00     0.048 H 
ATOM     54  H34 non d ame      -9.326  18.067  65.563  0.00  0.00     0.048 H 
BRANCH  52  55
ATOM     55  C23 non d ame     -10.056  18.261  67.555  0.00  0.00     0.259 C 
ATOM     56  O7  non d ame     -11.150  18.724  67.555  0.00  0.00    -0.265 OA
BRANCH  55  57
ATOM     57  O8  non d ame      -9.169  18.521  68.636  0.00  0.00    -0.317 OA
BRANCH  57  58
ATOM     58  C29 non d ame      -8.169  19.503  68.344  0.00  0.00     0.052 C 
ATOM     59  H47 non d ame      -7.974  19.416  67.276  0.00  0.00     0.082 H 
ATOM     60  H48 non d ame      -8.546  20.439  68.755  0.00  0.00     0.082 H 
BRANCH  58  61
ATOM     61  C35 non d ame      -6.878  19.114  69.113  0.00  0.00    -0.034 A 
ATOM     62  C30 non d ame      -6.231  20.053  69.910  0.00  0.00    -0.075 A 
ATOM     63  C31 non d ame      -5.072  19.703  70.601  0.00  0.00    -0.082 A 
ATOM     64  H49 non d ame      -6.634  21.063  69.995  0.00  0.00     0.084 H 
ATOM     65  C32 non d ame      -4.557  18.409  70.489  0.00  0.00    -0.083 A 
ATOM     66  H50 non d ame      -4.570  20.441  71.227  0.00  0.00     0.083 H 
ATOM     67  C33 non d ame      -5.203  17.476  69.689  0.00  0.00    -0.082 A 
ATOM     68  H51 non d ame      -3.651  18.127  71.026  0.00  0.00     0.083 H 
ATOM     69  C34 non d ame      -6.364  17.821  68.999  0.00  0.00    -0.075 A 
ATOM     70  H52 non d ame      -4.797  16.467  69.603  0.00  0.00     0.083 H 
ATOM     71  H53 non d ame      -6.866  17.082  68.374  0.00  0.00     0.084 H 
ENDBRANCH  58  61
ENDBRANCH  57  58
ENDBRANCH  55  57
ENDBRANCH  52  55
ENDBRANCH  49  52
ENDBRANCH  47  49
BRANCH  47  72
ATOM     72  C24 non d ame     -10.422  14.242  64.686  0.00  0.00    -0.039 C 
ATOM     73  H35 non d ame     -11.102  14.825  64.065  0.00  0.00     0.036 H 
ATOM     74  H36 non d ame      -9.385  14.107  64.377  0.00  0.00     0.036 H 
BRANCH  72  75
ATOM     75  C25 non d ame     -11.061  12.782  64.846  0.00  0.00    -0.001 C 
ATOM     76  C26 non d ame      -9.882  11.640  64.745  0.00  0.00    -0.035 C 
ATOM     77  C27 non d ame     -10.252  10.711  63.831  0.00  0.00     0.085 C 
ATOM     78  H38 non d ame      -8.978  12.073  64.318  0.00  0.00     0.036 H 
ATOM     79  H39 non d ame      -9.829  11.075  65.675  0.00  0.00     0.036 H 
ATOM     80  N5  non d ame     -11.419  11.286  63.064  0.00  0.00    -0.049 N 
ATOM     81  H40 non d ame      -9.400  10.609  63.158  0.00  0.00     0.075 H 
ATOM     82  H41 non d ame     -10.595   9.855  64.410  0.00  0.00     0.075 H 
ATOM     83  C28 non d ame     -11.936  12.550  63.925  0.00  0.00     0.193 C 
ATOM     84  H42 non d ame     -11.047  11.624  62.189  0.00  0.00     0.280 HD
ATOM     85  H43 non d ame     -12.140  10.579  63.067  0.00  0.00     0.280 HD
ATOM     86  H44 non d ame     -12.843  12.479  64.525  0.00  0.00     0.129 H 
ATOM     87  H37 non d ame     -11.740  12.720  65.697  0.00  0.00     0.046 H 
BRANCH  83  88
ATOM     88  O6  non d ame     -12.132  13.680  63.072  0.00  0.00    -0.369 OA
ATOM     89  H45 non d ame     -11.428  13.715  62.421  0.00  0.00     0.212 HD
ENDBRANCH  83  88
ENDBRANCH  72  75
ENDBRANCH  47  72
ENDBRANCH  45  47
ENDBRANCH   1  43
BRANCH   1  90
ATOM     90  C16 non d ame     -12.485  14.789  70.404  0.00  0.00    -0.035 C 
ATOM     91  H21 non d ame     -11.687  15.533  70.397  0.00  0.00     0.037 H 
ATOM     92  H22 non d ame     -13.493  15.069  70.102  0.00  0.00     0.037 H 
BRANCH  90  93
ATOM     93  C17 non d ame     -12.592  14.272  71.874  0.00  0.00    -0.059 C 
ATOM     94  H23 non d ame     -11.987  13.369  71.952  0.00  0.00     0.038 H 
BRANCH  93  95
ATOM     95  C18 non d ame     -12.036  15.306  72.905  0.00  0.00    -0.073 C 
ATOM     96  H24 non d ame     -11.768  14.791  73.827  0.00  0.00     0.028 H 
ATOM     97  H25 non d ame     -11.154  15.794  72.491  0.00  0.00     0.028 H 
ATOM     98  H26 non d ame     -12.800  16.055  73.116  0.00  0.00     0.028 H 
ENDBRANCH  93  95
BRANCH  93  99
ATOM     99  C19 non d ame     -14.034  13.884  72.215  0.00  0.00    -0.073 C 
ATOM    100  H27 non d ame     -14.079  13.522  73.242  0.00  0.00     0.028 H 
ATOM    101  H28 non d ame     -14.678  14.757  72.107  0.00  0.00     0.028 H 
ATOM    102  H29 non d ame     -14.369  13.100  71.537  0.00  0.00     0.028 H 
ENDBRANCH  93  99
ENDBRANCH  90  93
ENDBRANCH   1  90
TORSDOF 26
ENDMDL
MODEL 3
REMARK VINA RESULT:      -6.6      1.957      5.592
REMARK  26 active torsions:
REMARK  status: ('A' for Active; 'I' for Inactive)
REMARK    1  A    between atoms: C2_2  and  C3_3 
REMARK    2  A    between atoms: C4_6  and  C5_7 
REMARK       I    between atoms: C5_7  and  N2_9 
REMARK    3  A    between atoms: N2_9  and  C6_10 
REMARK    4  A    between atoms: C6_10  and  C7_11 
REMARK    5  A    between atoms: C6_10  and  C8_13 
REMARK       I    between atoms: C7_11  and  N3_14 
REMARK    6  A    between atoms: N3_14  and  C9_15 
REMARK    7  A    between atoms: C9_15  and  C10_16 
REMARK    8  A    between atoms: C9_15  and  C11_18 
REMARK       I    between atoms: C10_16  and  N4_21 
REMARK    9  A    between atoms: C11_18  and  C12_19 
REMARK   10  A    between atoms: C11_18  and  C13_20 
REMARK   11  A    between atoms: N4_21  and  C14_22 
REMARK   12  A    between atoms: C14_22  and  C15_23 
REMARK   13  A    between atoms: C14_22  and  C16_25 
REMARK       I    between atoms: C15_23  and  N6_40 
REMARK   14  A    between atoms: C16_25  and  C17_26 
REMARK   15  A    between atoms: C17_26  and  C18_27 
REMARK   16  A    between atoms: C17_26  and  C19_28 
REMARK   17  A    between atoms: C20_29  and  C21_30 
REMARK   18  A    between atoms: C20_29  and  C24_33 
REMARK   19  A    between atoms: C20_29  and  N6_40 
REMARK   20  A    between atoms: C21_30  and  C22_31 
REMARK   21  A    between atoms: C22_31  and  C23_32 
REMARK   22  A    between atoms: C23_32  and  O8_43 
REMARK   23  A    between atoms: C24_33  and  C25_34 
REMARK   24  A    between atoms: C28_38  and  O6_39 
REMARK   25  A    between atoms: C29_42  and  O8_43 
REMARK   26  A    between atoms: C29_42  and  C35_49 
ROOT
ATOM      1  C14 non d ame     -12.056  13.800  69.449  0.00  0.00     0.089 C 
ATOM      2  H20 non d ame     -13.016  13.586  68.977  0.00  0.00     0.087 H 
ENDROOT
BRANCH   1   3
ATOM      3  N4  non d ame     -11.603  12.576  70.094  0.00  0.00    -0.346 N 
ATOM      4  C10 non d ame     -11.752  11.247  69.396  0.00  0.00     0.241 C 
ATOM      5  O4  non d ame     -12.242  11.188  68.316  0.00  0.00    -0.271 OA
ATOM      6  H19 non d ame     -11.192  12.647  71.014  0.00  0.00     0.163 HD
BRANCH   4   7
ATOM      7  C9  non d ame     -11.274   9.991  70.075  0.00  0.00     0.092 C 
ATOM      8  H11 non d ame     -11.415   9.144  69.404  0.00  0.00     0.088 H 
BRANCH   7   9
ATOM      9  N3  non d ame      -9.835  10.097  70.342  0.00  0.00    -0.346 N 
ATOM     10  C7  non d ame      -8.913   9.208  69.681  0.00  0.00     0.240 C 
ATOM     11  O3  non d ame      -9.309   8.400  68.931  0.00  0.00    -0.271 OA
ATOM     12  H10 non d ame      -9.478  10.788  70.986  0.00  0.00     0.163 HD
BRANCH  10  13
ATOM     13  C6  non d ame      -7.384   9.323  69.971  0.00  0.00     0.086 C 
ATOM     14  H6  non d ame      -6.776   8.767  69.257  0.00  0.00     0.086 H 
BRANCH  13  15
ATOM     15  N2  non d ame      -6.987  10.717  69.857  0.00  0.00    -0.343 N 
ATOM     16  C5  non d ame      -6.439  11.211  68.592  0.00  0.00     0.273 C 
ATOM     17  O2  non d ame      -6.319  10.479  67.673  0.00  0.00    -0.266 OA
ATOM     18  H5  non d ame      -7.090  11.335  70.650  0.00  0.00     0.163 HD
BRANCH  16  19
ATOM     19  C4  non d ame      -6.016  12.682  68.459  0.00  0.00     0.154 A 
ATOM     20  C1  non d ame      -5.506  13.533  69.491  0.00  0.00    -0.017 A 
ATOM     21  C2  non d ame      -5.274  14.774  68.857  0.00  0.00     0.077 A 
ATOM     22  H1  non d ame      -5.330  13.287  70.538  0.00  0.00     0.091 H 
ATOM     23  O1  non d ame      -5.612  14.640  67.608  0.00  0.00    -0.218 OA
ATOM     24  N1  non d ame      -6.048  13.429  67.351  0.00  0.00    -0.123 NA
BRANCH  21  25
ATOM     25  C3  non d ame      -4.726  16.033  69.515  0.00  0.00    -0.029 C 
ATOM     26  H2  non d ame      -4.745  16.855  68.800  0.00  0.00     0.036 H 
ATOM     27  H3  non d ame      -5.340  16.289  70.378  0.00  0.00     0.036 H 
ATOM     28  H4  non d ame      -3.700  15.857  69.840  0.00  0.00     0.036 H 
ENDBRANCH  21  25
ENDBRANCH  16  19
ENDBRANCH  13  15
BRANCH  13  29
ATOM     29  C8  non d ame      -7.093   8.815  71.359  0.00  0.00    -0.049 C 
ATOM     30  H7  non d ame      -6.415   9.504  71.864  0.00  0.00     0.030 H 
ATOM     31  H8  non d ame      -8.022   8.741  71.923  0.00  0.00     0.030 H 
ATOM     32  H9  non d ame      -6.627   7.831  71.296  0.00  0.00     0.030 H 
ENDBRANCH  13  29
ENDBRANCH  10  13
ENDBRANCH   7   9
BRANCH   7  33
ATOM     33  C11 non d ame     -12.036   9.807  71.420  0.00  0.00    -0.033 C 
ATOM     34  H12 non d ame     -11.841  10.686  72.032  0.00  0.00     0.042 H 
BRANCH  33  35
ATOM     35  C12 non d ame     -13.578   9.724  71.193  0.00  0.00    -0.071 C 
ATOM     36  H13 non d ame     -13.778   9.305  70.207  0.00  0.00     0.028 H 
ATOM     37  H14 non d ame     -14.024   9.088  71.956  0.00  0.00     0.028 H 
ATOM     38  H15 non d ame     -14.006  10.724  71.256  0.00  0.00     0.028 H 
ENDBRANCH  33  35
BRANCH  33  39
ATOM     39  C13 non d ame     -11.510   8.554  72.193  0.00  0.00    -0.071 C 
ATOM     40  H16 non d ame     -10.577   8.216  71.745  0.00  0.00     0.028 H 
ATOM     41  H17 non d ame     -11.338   8.818  73.237  0.00  0.00     0.028 H 
ATOM     42  H18 non d ame     -12.251   7.756  72.138  0.00  0.00     0.028 H 
ENDBRANCH  33  39
ENDBRANCH   7  33
ENDBRANCH   4   7
ENDBRANCH   1   3
BRANCH   1  43
ATOM     43  C15 non d ame     -10.979  14.243  68.419  0.00  0.00     0.240 C 
ATOM     44  O5  non d ame      -9.837  14.298  68.743  0.00  0.00    -0.271 OA
ATOM     45  N6  non d ame     -11.370  14.590  67.022  0.00  0.00    -0.355 N 
ATOM     46  H46 non d ame     -12.337  14.543  66.734  0.00  0.00     0.162 HD
BRANCH  45  47
ATOM     47  C20 non d ame     -10.335  15.009  66.054  0.00  0.00     0.013 C 
ATOM     48  H30 non d ame      -9.361  14.748  66.469  0.00  0.00     0.072 H 
BRANCH  47  49
ATOM     49  C21 non d ame     -10.421  16.503  65.843  0.00  0.00    -0.038 C 
ATOM     50  H31 non d ame     -10.212  16.664  64.786  0.00  0.00     0.036 H 
ATOM     51  H32 non d ame     -11.383  16.804  66.261  0.00  0.00     0.036 H 
BRANCH  49  52
ATOM     52  C22 non d ame      -9.342  17.282  66.626  0.00  0.00     0.018 C 
ATOM     53  H33 non d ame      -8.669  16.527  67.033  0.00  0.00     0.048 H 
ATOM     54  H34 non d ame      -8.962  18.035  65.936  0.00  0.00     0.048 H 
BRANCH  52  55
ATOM     55  C23 non d ame      -9.897  18.064  67.850  0.00  0.00     0.259 C 
ATOM     56  O7  non d ame     -10.823  17.642  68.465  0.00  0.00    -0.265 OA
BRANCH  55  57
ATOM     57  O8  non d ame      -9.295  19.298  68.219  0.00  0.00    -0.317 OA
BRANCH  57  58
ATOM     58  C29 non d ame      -8.027  19.156  68.867  0.00  0.00     0.052 C 
ATOM     59  H47 non d ame      -8.034  19.870  69.689  0.00  0.00     0.082 H 
ATOM     60  H48 non d ame      -7.919  18.091  69.071  0.00  0.00     0.082 H 
BRANCH  58  61
ATOM     61  C35 non d ame      -6.925  19.577  67.859  0.00  0.00    -0.034 A 
ATOM     62  C30 non d ame      -6.923  20.860  67.323  0.00  0.00    -0.075 A 
ATOM     63  C31 non d ame      -5.933  21.238  66.417  0.00  0.00    -0.082 A 
ATOM     64  H49 non d ame      -7.698  21.571  67.613  0.00  0.00     0.084 H 
ATOM     65  C32 non d ame      -4.943  20.324  66.045  0.00  0.00    -0.083 A 
ATOM     66  H50 non d ame      -5.933  22.246  66.002  0.00  0.00     0.083 H 
ATOM     67  C33 non d ame      -4.951  19.043  66.579  0.00  0.00    -0.082 A 
ATOM     68  H51 non d ame      -4.165  20.612  65.338  0.00  0.00     0.083 H 
ATOM     69  C34 non d ame      -5.938  18.662  67.486  0.00  0.00    -0.075 A 
ATOM     70  H52 non d ame      -4.178  18.332  66.285  0.00  0.00     0.083 H 
ATOM     71  H53 non d ame      -5.936  17.654  67.903  0.00  0.00     0.084 H 
ENDBRANCH  58  61
ENDBRANCH  57  58
ENDBRANCH  55  57
ENDBRANCH  52  55
ENDBRANCH  49  52
ENDBRANCH  47  49
BRANCH  47  72
ATOM     72  C24 non d ame     -10.553  14.292  64.723  0.00  0.00    -0.039 C 
ATOM     73  H35 non d ame     -11.284  14.896  64.185  0.00  0.00     0.036 H 
ATOM     74  H36 non d ame      -9.556  14.144  64.306  0.00  0.00     0.036 H 
BRANCH  72  75
ATOM     75  C25 non d ame     -11.199  12.841  64.929  0.00  0.00    -0.001 C 
ATOM     76  C26 non d ame     -10.015  11.700  64.953  0.00  0.00    -0.035 C 
ATOM     77  C27 non d ame     -10.336  10.720  64.073  0.00  0.00     0.085 C 
ATOM     78  H38 non d ame      -9.091  12.111  64.550  0.00  0.00     0.036 H 
ATOM     79  H39 non d ame     -10.009  11.186  65.914  0.00  0.00     0.036 H 
ATOM     80  N5  non d ame     -11.462  11.249  63.216  0.00  0.00    -0.049 N 
ATOM     81  H40 non d ame      -9.450  10.585  63.452  0.00  0.00     0.075 H 
ATOM     82  H41 non d ame     -10.709   9.896  64.679  0.00  0.00     0.075 H 
ATOM     83  C28 non d ame     -12.025  12.556  63.978  0.00  0.00     0.193 C 
ATOM     84  H42 non d ame     -11.045  11.539  62.344  0.00  0.00     0.280 HD
ATOM     85  H43 non d ame     -12.182  10.540  63.221  0.00  0.00     0.280 HD
ATOM     86  H44 non d ame     -12.961  12.514  64.534  0.00  0.00     0.129 H 
ATOM     87  H37 non d ame     -11.921  12.823  65.746  0.00  0.00     0.046 H 
BRANCH  83  88
ATOM     88  O6  non d ame     -12.177  13.637  63.056  0.00  0.00    -0.369 OA
ATOM     89  H45 non d ame     -12.579  14.385  63.505  0.00  0.00     0.212 HD
ENDBRANCH  83  88
ENDBRANCH  72  75
ENDBRANCH  47  72
ENDBRANCH  45  47
ENDBRANCH   1  43
BRANCH   1  90
ATOM     90  C16 non d ame     -12.231  14.880  70.504  0.00  0.00    -0.035 C 
ATOM     91  H21 non d ame     -11.228  15.074  70.888  0.00  0.00     0.037 H 
ATOM     92  H22 non d ame     -12.788  15.677  70.011  0.00  0.00     0.037 H 
BRANCH  90  93
ATOM     93  C17 non d ame     -13.091  14.430  71.727  0.00  0.00    -0.059 C 
ATOM     94  H23 non d ame     -13.058  13.342  71.771  0.00  0.00     0.038 H 
BRANCH  93  95
ATOM     95  C18 non d ame     -12.529  14.979  73.077  0.00  0.00    -0.073 C 
ATOM     96  H24 non d ame     -12.723  16.050  73.142  0.00  0.00     0.028 H 
ATOM     97  H25 non d ame     -13.019  14.470  73.907  0.00  0.00     0.028 H 
ATOM     98  H26 non d ame     -11.455  14.799  73.123  0.00  0.00     0.028 H 
ENDBRANCH  93  95
BRANCH  93  99
ATOM     99  C19 non d ame     -14.557  14.833  71.543  0.00  0.00    -0.073 C 
ATOM    100  H27 non d ame     -14.632  15.578  70.750  0.00  0.00     0.028 H 
ATOM    101  H28 non d ame     -15.143  13.954  71.274  0.00  0.00     0.028 H 
ATOM    102  H29 non d ame     -14.939  15.251  72.474  0.00  0.00     0.028 H 
ENDBRANCH  93  99
ENDBRANCH  90  93
ENDBRANCH   1  90
TORSDOF 26
ENDMDL
MODEL 4
REMARK VINA RESULT:      -6.6      1.988      8.692
REMARK  26 active torsions:
REMARK  status: ('A' for Active; 'I' for Inactive)
REMARK    1  A    between atoms: C2_2  and  C3_3 
REMARK    2  A    between atoms: C4_6  and  C5_7 
REMARK       I    between atoms: C5_7  and  N2_9 
REMARK    3  A    between atoms: N2_9  and  C6_10 
REMARK    4  A    between atoms: C6_10  and  C7_11 
REMARK    5  A    between atoms: C6_10  and  C8_13 
REMARK       I    between atoms: C7_11  and  N3_14 
REMARK    6  A    between atoms: N3_14  and  C9_15 
REMARK    7  A    between atoms: C9_15  and  C10_16 
REMARK    8  A    between atoms: C9_15  and  C11_18 
REMARK       I    between atoms: C10_16  and  N4_21 
REMARK    9  A    between atoms: C11_18  and  C12_19 
REMARK   10  A    between atoms: C11_18  and  C13_20 
REMARK   11  A    between atoms: N4_21  and  C14_22 
REMARK   12  A    between atoms: C14_22  and  C15_23 
REMARK   13  A    between atoms: C14_22  and  C16_25 
REMARK       I    between atoms: C15_23  and  N6_40 
REMARK   14  A    between atoms: C16_25  and  C17_26 
REMARK   15  A    between atoms: C17_26  and  C18_27 
REMARK   16  A    between atoms: C17_26  and  C19_28 
REMARK   17  A    between atoms: C20_29  and  C21_30 
REMARK   18  A    between atoms: C20_29  and  C24_33 
REMARK   19  A    between atoms: C20_29  and  N6_40 
REMARK   20  A    between atoms: C21_30  and  C22_31 
REMARK   21  A    between atoms: C22_31  and  C23_32 
REMARK   22  A    between atoms: C23_32  and  O8_43 
REMARK   23  A    between atoms: C24_33  and  C25_34 
REMARK   24  A    between atoms: C28_38  and  O6_39 
REMARK   25  A    between atoms: C29_42  and  O8_43 
REMARK   26  A    between atoms: C29_42  and  C35_49 
ROOT
ATOM      1  C14 non d ame      -5.607  13.796  69.223  0.00  0.00     0.089 C 
ATOM      2  H20 non d ame      -4.546  13.841  68.973  0.00  0.00     0.087 H 
ENDROOT
BRANCH   1   3
ATOM      3  N4  non d ame      -6.209  15.053  68.802  0.00  0.00    -0.346 N 
ATOM      4  C10 non d ame      -5.475  15.970  67.855  0.00  0.00     0.241 C 
ATOM      5  O4  non d ame      -4.400  15.676  67.447  0.00  0.00    -0.271 OA
ATOM      6  H19 non d ame      -7.123  15.287  69.162  0.00  0.00     0.163 HD
BRANCH   4   7
ATOM      7  C9  non d ame      -6.115  17.264  67.426  0.00  0.00     0.092 C 
ATOM      8  H11 non d ame      -5.825  17.485  66.399  0.00  0.00     0.088 H 
BRANCH   7   9
ATOM      9  N3  non d ame      -7.574  17.117  67.441  0.00  0.00    -0.346 N 
ATOM     10  C7  non d ame      -8.382  17.855  66.503  0.00  0.00     0.240 C 
ATOM     11  O3  non d ame      -7.877  18.574  65.730  0.00  0.00    -0.271 OA
ATOM     12  H10 non d ame      -8.025  16.501  68.102  0.00  0.00     0.163 HD
BRANCH  10  13
ATOM     13  C6  non d ame      -9.935  17.696  66.525  0.00  0.00     0.086 C 
ATOM     14  H6  non d ame     -10.430  18.279  65.749  0.00  0.00     0.086 H 
BRANCH  13  15
ATOM     15  N2  non d ame     -10.269  16.303  66.278  0.00  0.00    -0.343 N 
ATOM     16  C5  non d ame     -10.937  15.933  65.028  0.00  0.00     0.273 C 
ATOM     17  O2  non d ame     -11.203  16.763  64.230  0.00  0.00    -0.266 OA
ATOM     18  H5  non d ame     -10.040  15.601  66.967  0.00  0.00     0.163 HD
BRANCH  16  19
ATOM     19  C4  non d ame     -11.295  14.464  64.753  0.00  0.00     0.154 A 
ATOM     20  C1  non d ame     -10.391  13.393  64.463  0.00  0.00    -0.017 A 
ATOM     21  C2  non d ame     -11.215  12.258  64.293  0.00  0.00     0.077 A 
ATOM     22  H1  non d ame      -9.304  13.433  64.389  0.00  0.00     0.091 H 
ATOM     23  O1  non d ame     -12.445  12.642  64.469  0.00  0.00    -0.218 OA
ATOM     24  N1  non d ame     -12.517  13.926  64.738  0.00  0.00    -0.123 NA
BRANCH  21  25
ATOM     25  C3  non d ame     -10.747  10.846  63.967  0.00  0.00    -0.029 C 
ATOM     26  H2  non d ame      -9.687  10.862  63.715  0.00  0.00     0.036 H 
ATOM     27  H3  non d ame     -10.905  10.202  64.832  0.00  0.00     0.036 H 
ATOM     28  H4  non d ame     -11.316  10.461  63.119  0.00  0.00     0.036 H 
ENDBRANCH  21  25
ENDBRANCH  16  19
ENDBRANCH  13  15
BRANCH  13  29
ATOM     29  C8  non d ame     -10.467  18.124  67.869  0.00  0.00    -0.049 C 
ATOM     30  H7  non d ame     -11.397  18.677  67.732  0.00  0.00     0.030 H 
ATOM     31  H8  non d ame     -10.655  17.244  68.484  0.00  0.00     0.030 H 
ATOM     32  H9  non d ame      -9.735  18.763  68.363  0.00  0.00     0.030 H 
ENDBRANCH  13  29
ENDBRANCH  10  13
ENDBRANCH   7   9
BRANCH   7  33
ATOM     33  C11 non d ame      -5.701  18.398  68.409  0.00  0.00    -0.033 C 
ATOM     34  H12 non d ame      -6.473  19.165  68.371  0.00  0.00     0.042 H 
BRANCH  33  35
ATOM     35  C12 non d ame      -5.628  17.878  69.879  0.00  0.00    -0.071 C 
ATOM     36  H13 non d ame      -5.589  16.789  69.877  0.00  0.00     0.028 H 
ATOM     37  H14 non d ame      -4.733  18.272  70.359  0.00  0.00     0.028 H 
ATOM     38  H15 non d ame      -6.510  18.209  70.424  0.00  0.00     0.028 H 
ENDBRANCH  33  35
BRANCH  33  39
ATOM     39  C13 non d ame      -4.350  19.051  67.972  0.00  0.00    -0.071 C 
ATOM     40  H16 non d ame      -3.972  19.677  68.779  0.00  0.00     0.028 H 
ATOM     41  H17 non d ame      -3.624  18.268  67.749  0.00  0.00     0.028 H 
ATOM     42  H18 non d ame      -4.511  19.660  67.083  0.00  0.00     0.028 H 
ENDBRANCH  33  39
ENDBRANCH   7  33
ENDBRANCH   4   7
ENDBRANCH   1   3
BRANCH   1  43
ATOM     43  C15 non d ame      -6.333  12.632  68.492  0.00  0.00     0.240 C 
ATOM     44  O5  non d ame      -5.936  12.256  67.437  0.00  0.00    -0.271 OA
ATOM     45  N6  non d ame      -7.521  11.977  69.113  0.00  0.00    -0.355 N 
ATOM     46  H46 non d ame      -7.864  12.285  70.011  0.00  0.00     0.162 HD
BRANCH  45  47
ATOM     47  C20 non d ame      -8.200  10.870  68.407  0.00  0.00     0.013 C 
ATOM     48  H30 non d ame      -7.474  10.398  67.745  0.00  0.00     0.072 H 
BRANCH  47  49
ATOM     49  C21 non d ame      -9.350  11.424  67.597  0.00  0.00    -0.038 C 
ATOM     50  H31 non d ame      -8.962  11.559  66.588  0.00  0.00     0.036 H 
ATOM     51  H32 non d ame     -10.188  10.749  67.774  0.00  0.00     0.036 H 
BRANCH  49  52
ATOM     52  C22 non d ame      -9.805  12.819  68.080  0.00  0.00     0.018 C 
ATOM     53  H33 non d ame      -9.504  12.883  69.126  0.00  0.00     0.048 H 
ATOM     54  H34 non d ame      -9.406  13.527  67.355  0.00  0.00     0.048 H 
BRANCH  52  55
ATOM     55  C23 non d ame     -11.347  13.015  68.066  0.00  0.00     0.259 C 
ATOM     56  O7  non d ame     -12.062  12.143  67.690  0.00  0.00    -0.265 OA
BRANCH  55  57
ATOM     57  O8  non d ame     -11.896  14.255  68.495  0.00  0.00    -0.317 OA
BRANCH  57  58
ATOM     58  C29 non d ame     -11.087  14.949  69.451  0.00  0.00     0.052 C 
ATOM     59  H47 non d ame     -10.183  14.352  69.560  0.00  0.00     0.082 H 
ATOM     60  H48 non d ame     -11.023  15.976  69.091  0.00  0.00     0.082 H 
BRANCH  58  61
ATOM     61  C35 non d ame     -11.843  14.950  70.806  0.00  0.00    -0.034 A 
ATOM     62  C30 non d ame     -12.620  13.856  71.173  0.00  0.00    -0.075 A 
ATOM     63  C31 non d ame     -13.298  13.858  72.391  0.00  0.00    -0.082 A 
ATOM     64  H49 non d ame     -12.695  12.996  70.506  0.00  0.00     0.084 H 
ATOM     65  C32 non d ame     -13.201  14.962  73.241  0.00  0.00    -0.083 A 
ATOM     66  H50 non d ame     -13.903  12.997  72.676  0.00  0.00     0.083 H 
ATOM     67  C33 non d ame     -12.428  16.054  72.870  0.00  0.00    -0.082 A 
ATOM     68  H51 non d ame     -13.728  14.971  74.196  0.00  0.00     0.083 H 
ATOM     69  C34 non d ame     -11.747  16.055  71.655  0.00  0.00    -0.075 A 
ATOM     70  H52 non d ame     -12.357  16.914  73.536  0.00  0.00     0.083 H 
ATOM     71  H53 non d ame     -11.140  16.916  71.371  0.00  0.00     0.084 H 
ENDBRANCH  58  61
ENDBRANCH  57  58
ENDBRANCH  55  57
ENDBRANCH  52  55
ENDBRANCH  49  52
ENDBRANCH  47  49
BRANCH  47  72
ATOM     72  C24 non d ame      -8.730   9.859  69.421  0.00  0.00    -0.039 C 
ATOM     73  H35 non d ame      -8.198   8.931  69.211  0.00  0.00     0.036 H 
ATOM     74  H36 non d ame      -8.622  10.340  70.394  0.00  0.00     0.036 H 
BRANCH  72  75
ATOM     75  C25 non d ame     -10.291   9.567  69.208  0.00  0.00    -0.001 C 
ATOM     76  C26 non d ame     -11.141  10.094  70.513  0.00  0.00    -0.035 C 
ATOM     77  C27 non d ame     -11.940   9.090  70.948  0.00  0.00     0.085 C 
ATOM     78  H38 non d ame     -10.469  10.267  71.353  0.00  0.00     0.036 H 
ATOM     79  H39 non d ame     -11.847  10.868  70.212  0.00  0.00     0.036 H 
ATOM     80  N5  non d ame     -11.472   7.827  70.264  0.00  0.00    -0.049 N 
ATOM     81  H40 non d ame     -11.747   9.007  72.018  0.00  0.00     0.075 H 
ATOM     82  H41 non d ame     -12.939   9.338  70.591  0.00  0.00     0.075 H 
ATOM     83  C28 non d ame     -10.515   8.305  69.055  0.00  0.00     0.193 C 
ATOM     84  H42 non d ame     -10.913   7.327  70.939  0.00  0.00     0.280 HD
ATOM     85  H43 non d ame     -12.295   7.394  69.870  0.00  0.00     0.280 HD
ATOM     86  H44 non d ame     -10.872   8.290  68.026  0.00  0.00     0.129 H 
ATOM     87  H37 non d ame     -10.640   9.888  68.226  0.00  0.00     0.046 H 
BRANCH  83  88
ATOM     88  O6  non d ame      -9.308   7.541  69.050  0.00  0.00    -0.369 OA
ATOM     89  H45 non d ame      -8.789   7.768  68.275  0.00  0.00     0.212 HD
ENDBRANCH  83  88
ENDBRANCH  72  75
ENDBRANCH  47  72
ENDBRANCH  45  47
ENDBRANCH   1  43
BRANCH   1  90
ATOM     90  C16 non d ame      -5.777  13.643  70.725  0.00  0.00    -0.035 C 
ATOM     91  H21 non d ame      -6.820  13.894  70.925  0.00  0.00     0.037 H 
ATOM     92  H22 non d ame      -5.402  12.647  70.958  0.00  0.00     0.037 H 
BRANCH  90  93
ATOM     93  C17 non d ame      -4.917  14.645  71.559  0.00  0.00    -0.059 C 
ATOM     94  H23 non d ame      -5.316  15.645  71.389  0.00  0.00     0.038 H 
BRANCH  93  95
ATOM     95  C18 non d ame      -4.994  14.355  73.092  0.00  0.00    -0.073 C 
ATOM     96  H24 non d ame      -5.101  13.282  73.253  0.00  0.00     0.028 H 
ATOM     97  H25 non d ame      -4.082  14.706  73.574  0.00  0.00     0.028 H 
ATOM     98  H26 non d ame      -5.853  14.874  73.517  0.00  0.00     0.028 H 
ENDBRANCH  93  95
BRANCH  93  99
ATOM     99  C19 non d ame      -3.463  14.650  71.078  0.00  0.00    -0.073 C 
ATOM    100  H27 non d ame      -3.062  13.637  71.123  0.00  0.00     0.028 H 
ATOM    101  H28 non d ame      -3.422  15.013  70.051  0.00  0.00     0.028 H 
ATOM    102  H29 non d ame      -2.871  15.304  71.718  0.00  0.00     0.028 H 
ENDBRANCH  93  99
ENDBRANCH  90  93
ENDBRANCH   1  90
TORSDOF 26
ENDMDL
MODEL 5
REMARK VINA RESULT:      -6.6      2.622      6.014
REMARK  26 active torsions:
REMARK  status: ('A' for Active; 'I' for Inactive)
REMARK    1  A    between atoms: C2_2  and  C3_3 
REMARK    2  A    between atoms: C4_6  and  C5_7 
REMARK       I    between atoms: C5_7  and  N2_9 
REMARK    3  A    between atoms: N2_9  and  C6_10 
REMARK    4  A    between atoms: C6_10  and  C7_11 
REMARK    5  A    between atoms: C6_10  and  C8_13 
REMARK       I    between atoms: C7_11  and  N3_14 
REMARK    6  A    between atoms: N3_14  and  C9_15 
REMARK    7  A    between atoms: C9_15  and  C10_16 
REMARK    8  A    between atoms: C9_15  and  C11_18 
REMARK       I    between atoms: C10_16  and  N4_21 
REMARK    9  A    between atoms: C11_18  and  C12_19 
REMARK   10  A    between atoms: C11_18  and  C13_20 
REMARK   11  A    between atoms: N4_21  and  C14_22 
REMARK   12  A    between atoms: C14_22  and  C15_23 
REMARK   13  A    between atoms: C14_22  and  C16_25 
REMARK       I    between atoms: C15_23  and  N6_40 
REMARK   14  A    between atoms: C16_25  and  C17_26 
REMARK   15  A    between atoms: C17_26  and  C18_27 
REMARK   16  A    between atoms: C17_26  and  C19_28 
REMARK   17  A    between atoms: C20_29  and  C21_30 
REMARK   18  A    between atoms: C20_29  and  C24_33 
REMARK   19  A    between atoms: C20_29  and  N6_40 
REMARK   20  A    between atoms: C21_30  and  C22_31 
REMARK   21  A    between atoms: C22_31  and  C23_32 
REMARK   22  A    between atoms: C23_32  and  O8_43 
REMARK   23  A    between atoms: C24_33  and  C25_34 
REMARK   24  A    between atoms: C28_38  and  O6_39 
REMARK   25  A    between atoms: C29_42  and  O8_43 
REMARK   26  A    between atoms: C29_42  and  C35_49 
ROOT
ATOM      1  C14 non d ame      -9.397   8.911  67.541  0.00  0.00     0.089 C 
ATOM      2  H20 non d ame      -8.383   9.181  67.838  0.00  0.00     0.087 H 
ENDROOT
BRANCH   1   3
ATOM      3  N4  non d ame     -10.026   8.253  68.677  0.00  0.00    -0.346 N 
ATOM      4  C10 non d ame      -9.191   7.784  69.843  0.00  0.00     0.241 C 
ATOM      5  O4  non d ame      -8.015   7.945  69.842  0.00  0.00    -0.271 OA
ATOM      6  H19 non d ame     -11.027   8.123  68.657  0.00  0.00     0.163 HD
BRANCH   4   7
ATOM      7  C9  non d ame      -9.858   7.110  71.013  0.00  0.00     0.092 C 
ATOM      8  H11 non d ame      -9.397   7.457  71.938  0.00  0.00     0.088 H 
BRANCH   7   9
ATOM      9  N3  non d ame     -11.271   7.499  71.061  0.00  0.00    -0.346 N 
ATOM     10  C7  non d ame     -11.844   7.979  72.294  0.00  0.00     0.240 C 
ATOM     11  O3  non d ame     -11.185   8.058  73.257  0.00  0.00    -0.271 OA
ATOM     12  H10 non d ame     -11.854   7.436  70.238  0.00  0.00     0.163 HD
BRANCH  10  13
ATOM     13  C6  non d ame     -13.350   8.389  72.339  0.00  0.00     0.086 C 
ATOM     14  H6  non d ame     -13.860   8.023  73.230  0.00  0.00     0.086 H 
BRANCH  13  15
ATOM     15  N2  non d ame     -13.442   9.840  72.374  0.00  0.00    -0.343 N 
ATOM     16  C5  non d ame     -12.773  10.631  71.339  0.00  0.00     0.273 C 
ATOM     17  O2  non d ame     -12.160  10.091  70.485  0.00  0.00    -0.266 OA
ATOM     18  H5  non d ame     -13.966  10.293  73.110  0.00  0.00     0.163 HD
BRANCH  16  19
ATOM     19  C4  non d ame     -12.863  12.164  71.363  0.00  0.00     0.154 A 
ATOM     20  C1  non d ame     -13.639  12.971  72.255  0.00  0.00    -0.017 A 
ATOM     21  C2  non d ame     -13.374  14.302  71.864  0.00  0.00     0.077 A 
ATOM     22  H1  non d ame     -14.292  12.641  73.063  0.00  0.00     0.091 H 
ATOM     23  O1  non d ame     -12.542  14.255  70.866  0.00  0.00    -0.218 OA
ATOM     24  N1  non d ame     -12.229  13.018  70.555  0.00  0.00    -0.123 NA
BRANCH  21  25
ATOM     25  C3  non d ame     -13.955  15.560  72.497  0.00  0.00    -0.029 C 
ATOM     26  H2  non d ame     -15.027  15.428  72.650  0.00  0.00     0.036 H 
ATOM     27  H3  non d ame     -13.471  15.742  73.455  0.00  0.00     0.036 H 
ATOM     28  H4  non d ame     -13.785  16.411  71.836  0.00  0.00     0.036 H 
ENDBRANCH  21  25
ENDBRANCH  16  19
ENDBRANCH  13  15
BRANCH  13  29
ATOM     29  C8  non d ame     -14.056   7.856  71.119  0.00  0.00    -0.049 C 
ATOM     30  H7  non d ame     -15.078   8.236  71.096  0.00  0.00     0.030 H 
ATOM     31  H8  non d ame     -13.528   8.178  70.223  0.00  0.00     0.030 H 
ATOM     32  H9  non d ame     -14.076   6.767  71.158  0.00  0.00     0.030 H 
ENDBRANCH  13  29
ENDBRANCH  10  13
ENDBRANCH   7   9
BRANCH   7  33
ATOM     33  C11 non d ame      -9.754   5.565  70.849  0.00  0.00    -0.033 C 
ATOM     34  H12 non d ame      -8.704   5.322  70.689  0.00  0.00     0.042 H 
BRANCH  33  35
ATOM     35  C12 non d ame     -10.216   4.825  72.143  0.00  0.00    -0.071 C 
ATOM     36  H13 non d ame     -11.213   5.165  72.420  0.00  0.00     0.028 H 
ATOM     37  H14 non d ame     -10.236   3.751  71.959  0.00  0.00     0.028 H 
ATOM     38  H15 non d ame      -9.520   5.042  72.953  0.00  0.00     0.028 H 
ENDBRANCH  33  35
BRANCH  33  39
ATOM     39  C13 non d ame     -10.559   5.079  69.601  0.00  0.00    -0.071 C 
ATOM     40  H16 non d ame     -10.942   5.942  69.058  0.00  0.00     0.028 H 
ATOM     41  H17 non d ame      -9.903   4.501  68.949  0.00  0.00     0.028 H 
ATOM     42  H18 non d ame     -11.390   4.454  69.926  0.00  0.00     0.028 H 
ENDBRANCH  33  39
ENDBRANCH   7  33
ENDBRANCH   4   7
ENDBRANCH   1   3
BRANCH   1  43
ATOM     43  C15 non d ame     -10.248  10.155  67.158  0.00  0.00     0.240 C 
ATOM     44  O5  non d ame     -11.385  10.222  67.496  0.00  0.00    -0.271 OA
ATOM     45  N6  non d ame      -9.641  11.271  66.376  0.00  0.00    -0.355 N 
ATOM     46  H46 non d ame      -8.675  11.228  66.087  0.00  0.00     0.162 HD
BRANCH  45  47
ATOM     47  C20 non d ame     -10.463  12.448  66.020  0.00  0.00     0.013 C 
ATOM     48  H30 non d ame     -11.475  12.274  66.385  0.00  0.00     0.072 H 
BRANCH  47  49
ATOM     49  C21 non d ame     -10.478  12.612  64.518  0.00  0.00    -0.038 C 
ATOM     50  H31 non d ame     -11.403  13.140  64.288  0.00  0.00     0.036 H 
ATOM     51  H32 non d ame      -9.517  13.059  64.261  0.00  0.00     0.036 H 
BRANCH  49  52
ATOM     52  C22 non d ame     -10.547  11.263  63.768  0.00  0.00     0.018 C 
ATOM     53  H33 non d ame     -10.751  10.511  64.531  0.00  0.00     0.048 H 
ATOM     54  H34 non d ame     -11.252  11.415  62.951  0.00  0.00     0.048 H 
BRANCH  52  55
ATOM     55  C23 non d ame      -9.205  10.846  63.104  0.00  0.00     0.259 C 
ATOM     56  O7  non d ame      -9.016  11.048  61.949  0.00  0.00    -0.265 OA
BRANCH  55  57
ATOM     57  O8  non d ame      -8.208  10.205  63.891  0.00  0.00    -0.317 OA
BRANCH  57  58
ATOM     58  C29 non d ame      -7.005   9.908  63.176  0.00  0.00     0.052 C 
ATOM     59  H47 non d ame      -7.164  10.279  62.165  0.00  0.00     0.082 H 
ATOM     60  H48 non d ame      -6.195  10.310  63.783  0.00  0.00     0.082 H 
BRANCH  58  61
ATOM     61  C35 non d ame      -6.854   8.364  63.116  0.00  0.00    -0.034 A 
ATOM     62  C30 non d ame      -7.963   7.564  62.867  0.00  0.00    -0.075 A 
ATOM     63  C31 non d ame      -7.826   6.177  62.813  0.00  0.00    -0.082 A 
ATOM     64  H49 non d ame      -8.940   8.023  62.712  0.00  0.00     0.084 H 
ATOM     65  C32 non d ame      -6.574   5.592  63.014  0.00  0.00    -0.083 A 
ATOM     66  H50 non d ame      -8.698   5.553  62.614  0.00  0.00     0.083 H 
ATOM     67  C33 non d ame      -5.469   6.394  63.267  0.00  0.00    -0.082 A 
ATOM     68  H51 non d ame      -6.458   4.509  62.973  0.00  0.00     0.083 H 
ATOM     69  C34 non d ame      -5.602   7.780  63.319  0.00  0.00    -0.075 A 
ATOM     70  H52 non d ame      -4.494   5.933  63.425  0.00  0.00     0.083 H 
ATOM     71  H53 non d ame      -4.729   8.404  63.516  0.00  0.00     0.084 H 
ENDBRANCH  58  61
ENDBRANCH  57  58
ENDBRANCH  55  57
ENDBRANCH  52  55
ENDBRANCH  49  52
ENDBRANCH  47  49
BRANCH  47  72
ATOM     72  C24 non d ame      -9.875  13.701  66.665  0.00  0.00    -0.039 C 
ATOM     73  H35 non d ame      -9.764  13.459  67.722  0.00  0.00     0.036 H 
ATOM     74  H36 non d ame      -8.996  13.949  66.069  0.00  0.00     0.036 H 
BRANCH  72  75
ATOM     75  C25 non d ame     -10.878  14.946  66.568  0.00  0.00    -0.001 C 
ATOM     76  C26 non d ame     -10.196  16.146  65.674  0.00  0.00    -0.035 C 
ATOM     77  C27 non d ame     -10.269  17.304  66.372  0.00  0.00     0.085 C 
ATOM     78  H38 non d ame      -9.125  15.975  65.574  0.00  0.00     0.036 H 
ATOM     79  H39 non d ame     -10.801  16.343  64.789  0.00  0.00     0.036 H 
ATOM     80  N5  non d ame     -10.641  16.942  67.790  0.00  0.00    -0.049 N 
ATOM     81  H40 non d ame      -9.258  17.714  66.363  0.00  0.00     0.075 H 
ATOM     82  H41 non d ame     -11.088  17.864  65.923  0.00  0.00     0.075 H 
ATOM     83  C28 non d ame     -11.159  15.414  67.738  0.00  0.00     0.193 C 
ATOM     84  H42 non d ame      -9.786  16.974  68.327  0.00  0.00     0.280 HD
ATOM     85  H43 non d ame     -11.418  17.536  68.043  0.00  0.00     0.280 HD
ATOM     86  H44 non d ame     -12.223  15.187  67.792  0.00  0.00     0.129 H 
ATOM     87  H37 non d ame     -11.890  14.640  66.298  0.00  0.00     0.046 H 
BRANCH  83  88
ATOM     88  O6  non d ame     -10.552  14.651  68.783  0.00  0.00    -0.369 OA
ATOM     89  H45 non d ame     -10.488  15.190  69.575  0.00  0.00     0.212 HD
ENDBRANCH  83  88
ENDBRANCH  72  75
ENDBRANCH  47  72
ENDBRANCH  45  47
ENDBRANCH   1  43
BRANCH   1  90
ATOM     90  C16 non d ame      -9.352   7.943  66.370  0.00  0.00    -0.035 C 
ATOM     91  H21 non d ame     -10.394   7.759  66.107  0.00  0.00     0.037 H 
ATOM     92  H22 non d ame      -8.679   8.399  65.645  0.00  0.00     0.037 H 
BRANCH  90  93
ATOM     93  C17 non d ame      -8.737   6.553  66.730  0.00  0.00    -0.059 C 
ATOM     94  H23 non d ame      -8.938   6.365  67.784  0.00  0.00     0.038 H 
BRANCH  93  95
ATOM     95  C18 non d ame      -9.382   5.392  65.908  0.00  0.00    -0.073 C 
ATOM     96  H24 non d ame      -8.920   4.446  66.191  0.00  0.00     0.028 H 
ATOM     97  H25 non d ame     -10.451   5.351  66.115  0.00  0.00     0.028 H 
ATOM     98  H26 non d ame      -9.225   5.570  64.843  0.00  0.00     0.028 H 
ENDBRANCH  93  95
BRANCH  93  99
ATOM     99  C19 non d ame      -7.215   6.565  66.554  0.00  0.00    -0.073 C 
ATOM    100  H27 non d ame      -6.935   7.370  65.873  0.00  0.00     0.028 H 
ATOM    101  H28 non d ame      -6.740   6.725  67.522  0.00  0.00     0.028 H 
ATOM    102  H29 non d ame      -6.889   5.610  66.144  0.00  0.00     0.028 H 
ENDBRANCH  93  99
ENDBRANCH  90  93
ENDBRANCH   1  90
TORSDOF 26
ENDMDL
MODEL 6
REMARK VINA RESULT:      -6.6      2.189      6.888
REMARK  26 active torsions:
REMARK  status: ('A' for Active; 'I' for Inactive)
REMARK    1  A    between atoms: C2_2  and  C3_3 
REMARK    2  A    between atoms: C4_6  and  C5_7 
REMARK       I    between atoms: C5_7  and  N2_9 
REMARK    3  A    between atoms: N2_9  and  C6_10 
REMARK    4  A    between atoms: C6_10  and  C7_11 
REMARK    5  A    between atoms: C6_10  and  C8_13 
REMARK       I    between atoms: C7_11  and  N3_14 
REMARK    6  A    between atoms: N3_14  and  C9_15 
REMARK    7  A    between atoms: C9_15  and  C10_16 
REMARK    8  A    between atoms: C9_15  and  C11_18 
REMARK       I    between atoms: C10_16  and  N4_21 
REMARK    9  A    between atoms: C11_18  and  C12_19 
REMARK   10  A    between atoms: C11_18  and  C13_20 
REMARK   11  A    between atoms: N4_21  and  C14_22 
REMARK   12  A    between atoms: C14_22  and  C15_23 
REMARK   13  A    between atoms: C14_22  and  C16_25 
REMARK       I    between atoms: C15_23  and  N6_40 
REMARK   14  A    between atoms: C16_25  and  C17_26 
REMARK   15  A    between atoms: C17_26  and  C18_27 
REMARK   16  A    between atoms: C17_26  and  C19_28 
REMARK   17  A    between atoms: C20_29  and  C21_30 
REMARK   18  A    between atoms: C20_29  and  C24_33 
REMARK   19  A    between atoms: C20_29  and  N6_40 
REMARK   20  A    between atoms: C21_30  and  C22_31 
REMARK   21  A    between atoms: C22_31  and  C23_32 
REMARK   22  A    between atoms: C23_32  and  O8_43 
REMARK   23  A    between atoms: C24_33  and  C25_34 
REMARK   24  A    between atoms: C28_38  and  O6_39 
REMARK   25  A    between atoms: C29_42  and  O8_43 
REMARK   26  A    between atoms: C29_42  and  C35_49 
ROOT
ATOM      1  C14 non d ame     -10.879   9.326  69.769  0.00  0.00     0.089 C 
ATOM      2  H20 non d ame     -11.407   8.488  69.314  0.00  0.00     0.087 H 
ENDROOT
BRANCH   1   3
ATOM      3  N4  non d ame      -9.774   9.678  68.890  0.00  0.00    -0.346 N 
ATOM      4  C10 non d ame      -9.555   8.922  67.603  0.00  0.00     0.241 C 
ATOM      5  O4  non d ame     -10.280   8.033  67.298  0.00  0.00    -0.271 OA
ATOM      6  H19 non d ame      -9.166  10.435  69.169  0.00  0.00     0.163 HD
BRANCH   4   7
ATOM      7  C9  non d ame      -8.409   9.302  66.702  0.00  0.00     0.092 C 
ATOM      8  H11 non d ame      -7.908   8.397  66.358  0.00  0.00     0.088 H 
BRANCH   7   9
ATOM      9  N3  non d ame      -8.928   9.987  65.514  0.00  0.00    -0.346 N 
ATOM     10  C7  non d ame      -9.848  11.086  65.661  0.00  0.00     0.240 C 
ATOM     11  O3  non d ame     -10.184  11.434  66.727  0.00  0.00    -0.271 OA
ATOM     12  H10 non d ame      -8.648   9.699  64.587  0.00  0.00     0.163 HD
BRANCH  10  13
ATOM     13  C6  non d ame     -10.399  11.810  64.392  0.00  0.00     0.086 C 
ATOM     14  H6  non d ame     -11.472  11.669  64.258  0.00  0.00     0.086 H 
BRANCH  13  15
ATOM     15  N2  non d ame     -10.182  13.240  64.533  0.00  0.00    -0.343 N 
ATOM     16  C5  non d ame     -11.323  14.122  64.788  0.00  0.00     0.273 C 
ATOM     17  O2  non d ame     -12.411  13.672  64.874  0.00  0.00    -0.266 OA
ATOM     18  H5  non d ame      -9.247  13.617  64.455  0.00  0.00     0.163 HD
BRANCH  16  19
ATOM     19  C4  non d ame     -11.106  15.636  64.940  0.00  0.00     0.154 A 
ATOM     20  C1  non d ame     -10.386  16.306  65.980  0.00  0.00    -0.017 A 
ATOM     21  C2  non d ame     -10.483  17.679  65.661  0.00  0.00     0.077 A 
ATOM     22  H1  non d ame      -9.871  15.864  66.833  0.00  0.00     0.091 H 
ATOM     23  O1  non d ame     -11.177  17.775  64.565  0.00  0.00    -0.218 OA
ATOM     24  N1  non d ame     -11.552  16.596  64.125  0.00  0.00    -0.123 NA
BRANCH  21  25
ATOM     25  C3  non d ame      -9.882  18.833  66.454  0.00  0.00    -0.029 C 
ATOM     26  H2  non d ame      -8.794  18.773  66.416  0.00  0.00     0.036 H 
ATOM     27  H3  non d ame     -10.209  19.778  66.024  0.00  0.00     0.036 H 
ATOM     28  H4  non d ame     -10.213  18.772  67.492  0.00  0.00     0.036 H 
ENDBRANCH  21  25
ENDBRANCH  16  19
ENDBRANCH  13  15
BRANCH  13  29
ATOM     29  C8  non d ame      -9.684  11.297  63.168  0.00  0.00    -0.049 C 
ATOM     30  H7  non d ame     -10.417  11.009  62.414  0.00  0.00     0.030 H 
ATOM     31  H8  non d ame      -9.040  12.080  62.768  0.00  0.00     0.030 H 
ATOM     32  H9  non d ame      -9.081  10.430  63.436  0.00  0.00     0.030 H 
ENDBRANCH  13  29
ENDBRANCH  10  13
ENDBRANCH   7   9
BRANCH   7  33
ATOM     33  C11 non d ame      -7.442  10.253  67.466  0.00  0.00    -0.033 C 
ATOM     34  H12 non d ame      -8.051  10.933  68.059  0.00  0.00     0.042 H 
BRANCH  33  35
ATOM     35  C12 non d ame      -6.527   9.461  68.451  0.00  0.00    -0.071 C 
ATOM     36  H13 non d ame      -5.792  10.137  68.888  0.00  0.00     0.028 H 
ATOM     37  H14 non d ame      -7.136   9.026  69.243  0.00  0.00     0.028 H 
ATOM     38  H15 non d ame      -6.013   8.667  67.910  0.00  0.00     0.028 H 
ENDBRANCH  33  35
BRANCH  33  39
ATOM     39  C13 non d ame      -6.594  11.106  66.469  0.00  0.00    -0.071 C 
ATOM     40  H16 non d ame      -5.605  10.662  66.361  0.00  0.00     0.028 H 
ATOM     41  H17 non d ame      -7.090  11.130  65.498  0.00  0.00     0.028 H 
ATOM     42  H18 non d ame      -6.497  12.122  66.851  0.00  0.00     0.028 H 
ENDBRANCH  33  39
ENDBRANCH   7  33
ENDBRANCH   4   7
ENDBRANCH   1   3
BRANCH   1  43
ATOM     43  C15 non d ame     -11.792  10.574  69.938  0.00  0.00     0.240 C 
ATOM     44  O5  non d ame     -12.894  10.447  70.364  0.00  0.00    -0.271 OA
ATOM     45  N6  non d ame     -11.289  11.930  69.575  0.00  0.00    -0.355 N 
ATOM     46  H46 non d ame     -10.353  12.050  69.217  0.00  0.00     0.162 HD
BRANCH  45  47
ATOM     47  C20 non d ame     -12.169  13.107  69.742  0.00  0.00     0.013 C 
ATOM     48  H30 non d ame     -13.148  12.854  69.337  0.00  0.00     0.072 H 
BRANCH  47  49
ATOM     49  C21 non d ame     -11.585  14.279  68.986  0.00  0.00    -0.038 C 
ATOM     50  H31 non d ame     -11.969  14.195  67.970  0.00  0.00     0.036 H 
ATOM     51  H32 non d ame     -11.816  15.160  69.586  0.00  0.00     0.036 H 
BRANCH  49  52
ATOM     52  C22 non d ame     -10.046  14.216  68.878  0.00  0.00     0.018 C 
ATOM     53  H33 non d ame      -9.729  13.470  69.608  0.00  0.00     0.048 H 
ATOM     54  H34 non d ame      -9.830  14.068  67.821  0.00  0.00     0.048 H 
BRANCH  52  55
ATOM     55  C23 non d ame      -9.335  15.538  69.280  0.00  0.00     0.259 C 
ATOM     56  O7  non d ame      -9.958  16.540  69.417  0.00  0.00    -0.265 OA
BRANCH  55  57
ATOM     57  O8  non d ame      -7.925  15.540  69.470  0.00  0.00    -0.317 OA
BRANCH  57  58
ATOM     58  C29 non d ame      -7.175  15.396  68.260  0.00  0.00     0.052 C 
ATOM     59  H47 non d ame      -6.256  14.885  68.542  0.00  0.00     0.082 H 
ATOM     60  H48 non d ame      -7.857  14.937  67.544  0.00  0.00     0.082 H 
BRANCH  58  61
ATOM     61  C35 non d ame      -6.812  16.816  67.750  0.00  0.00    -0.034 A 
ATOM     62  C30 non d ame      -6.688  17.870  68.649  0.00  0.00    -0.075 A 
ATOM     63  C31 non d ame      -6.362  19.145  68.191  0.00  0.00    -0.082 A 
ATOM     64  H49 non d ame      -6.845  17.696  69.714  0.00  0.00     0.084 H 
ATOM     65  C32 non d ame      -6.163  19.366  66.825  0.00  0.00    -0.083 A 
ATOM     66  H50 non d ame      -6.262  19.968  68.899  0.00  0.00     0.083 H 
ATOM     67  C33 non d ame      -6.292  18.312  65.930  0.00  0.00    -0.082 A 
ATOM     68  H51 non d ame      -5.907  20.360  66.458  0.00  0.00     0.083 H 
ATOM     69  C34 non d ame      -6.615  17.035  66.385  0.00  0.00    -0.075 A 
ATOM     70  H52 non d ame      -6.137  18.489  64.865  0.00  0.00     0.083 H 
ATOM     71  H53 non d ame      -6.713  16.213  65.675  0.00  0.00     0.084 H 
ENDBRANCH  58  61
ENDBRANCH  57  58
ENDBRANCH  55  57
ENDBRANCH  52  55
ENDBRANCH  49  52
ENDBRANCH  47  49
BRANCH  47  72
ATOM     72  C24 non d ame     -12.283  13.460  71.223  0.00  0.00    -0.039 C 
ATOM     73  H35 non d ame     -13.011  12.759  71.633  0.00  0.00     0.036 H 
ATOM     74  H36 non d ame     -11.260  13.464  71.601  0.00  0.00     0.036 H 
BRANCH  72  75
ATOM     75  C25 non d ame     -12.873  14.934  71.439  0.00  0.00    -0.001 C 
ATOM     76  C26 non d ame     -11.770  15.868  72.224  0.00  0.00    -0.035 C 
ATOM     77  C27 non d ame     -12.373  16.453  73.286  0.00  0.00     0.085 C 
ATOM     78  H38 non d ame     -11.005  15.241  72.679  0.00  0.00     0.036 H 
ATOM     79  H39 non d ame     -11.482  16.712  71.598  0.00  0.00     0.036 H 
ATOM     80  N5  non d ame     -13.694  15.749  73.488  0.00  0.00    -0.049 N 
ATOM     81  H40 non d ame     -11.726  16.246  74.139  0.00  0.00     0.075 H 
ATOM     82  H41 non d ame     -12.563  17.482  72.983  0.00  0.00     0.075 H 
ATOM     83  C28 non d ame     -13.959  14.907  72.137  0.00  0.00     0.193 C 
ATOM     84  H42 non d ame     -13.559  15.101  74.250  0.00  0.00     0.280 HD
ATOM     85  H43 non d ame     -14.396  16.472  73.558  0.00  0.00     0.280 HD
ATOM     86  H44 non d ame     -14.679  15.256  71.397  0.00  0.00     0.129 H 
ATOM     87  H37 non d ame     -13.308  15.341  70.526  0.00  0.00     0.046 H 
BRANCH  83  88
ATOM     88  O6  non d ame     -14.359  13.573  72.457  0.00  0.00    -0.369 OA
ATOM     89  H45 non d ame     -14.002  13.330  73.315  0.00  0.00     0.212 HD
ENDBRANCH  83  88
ENDBRANCH  72  75
ENDBRANCH  47  72
ENDBRANCH  45  47
ENDBRANCH   1  43
BRANCH   1  90
ATOM     90  C16 non d ame     -10.324   8.912  71.122  0.00  0.00    -0.035 C 
ATOM     91  H21 non d ame      -9.242   9.016  71.034  0.00  0.00     0.037 H 
ATOM     92  H22 non d ame     -10.870   9.508  71.853  0.00  0.00     0.037 H 
BRANCH  90  93
ATOM     93  C17 non d ame     -10.596   7.417  71.481  0.00  0.00    -0.059 C 
ATOM     94  H23 non d ame      -9.649   6.882  71.407  0.00  0.00     0.038 H 
BRANCH  93  95
ATOM     95  C18 non d ame     -11.126   7.247  72.940  0.00  0.00    -0.073 C 
ATOM     96  H24 non d ame     -10.903   8.146  73.515  0.00  0.00     0.028 H 
ATOM     97  H25 non d ame     -12.204   7.088  72.918  0.00  0.00     0.028 H 
ATOM     98  H26 non d ame     -10.642   6.388  73.405  0.00  0.00     0.028 H 
ENDBRANCH  93  95
BRANCH  93  99
ATOM     99  C19 non d ame     -11.557   6.778  70.474  0.00  0.00    -0.073 C 
ATOM    100  H27 non d ame     -12.294   6.177  71.007  0.00  0.00     0.028 H 
ATOM    101  H28 non d ame     -12.065   7.562  69.911  0.00  0.00     0.028 H 
ATOM    102  H29 non d ame     -10.996   6.144  69.787  0.00  0.00     0.028 H 
ENDBRANCH  93  99
ENDBRANCH  90  93
ENDBRANCH   1  90
TORSDOF 26
ENDMDL
MODEL 7
REMARK VINA RESULT:      -6.5      1.443      1.999
REMARK  26 active torsions:
REMARK  status: ('A' for Active; 'I' for Inactive)
REMARK    1  A    between atoms: C2_2  and  C3_3 
REMARK    2  A    between atoms: C4_6  and  C5_7 
REMARK       I    between atoms: C5_7  and  N2_9 
REMARK    3  A    between atoms: N2_9  and  C6_10 
REMARK    4  A    between atoms: C6_10  and  C7_11 
REMARK    5  A    between atoms: C6_10  and  C8_13 
REMARK       I    between atoms: C7_11  and  N3_14 
REMARK    6  A    between atoms: N3_14  and  C9_15 
REMARK    7  A    between atoms: C9_15  and  C10_16 
REMARK    8  A    between atoms: C9_15  and  C11_18 
REMARK       I    between atoms: C10_16  and  N4_21 
REMARK    9  A    between atoms: C11_18  and  C12_19 
REMARK   10  A    between atoms: C11_18  and  C13_20 
REMARK   11  A    between atoms: N4_21  and  C14_22 
REMARK   12  A    between atoms: C14_22  and  C15_23 
REMARK   13  A    between atoms: C14_22  and  C16_25 
REMARK       I    between atoms: C15_23  and  N6_40 
REMARK   14  A    between atoms: C16_25  and  C17_26 
REMARK   15  A    between atoms: C17_26  and  C18_27 
REMARK   16  A    between atoms: C17_26  and  C19_28 
REMARK   17  A    between atoms: C20_29  and  C21_30 
REMARK   18  A    between atoms: C20_29  and  C24_33 
REMARK   19  A    between atoms: C20_29  and  N6_40 
REMARK   20  A    between atoms: C21_30  and  C22_31 
REMARK   21  A    between atoms: C22_31  and  C23_32 
REMARK   22  A    between atoms: C23_32  and  O8_43 
REMARK   23  A    between atoms: C24_33  and  C25_34 
REMARK   24  A    between atoms: C28_38  and  O6_39 
REMARK   25  A    between atoms: C29_42  and  O8_43 
REMARK   26  A    between atoms: C29_42  and  C35_49 
ROOT
ATOM      1  C14 non d ame     -11.744  14.035  69.635  0.00  0.00     0.089 C 
ATOM      2  H20 non d ame     -12.732  13.576  69.587  0.00  0.00     0.087 H 
ENDROOT
BRANCH   1   3
ATOM      3  N4  non d ame     -10.762  12.986  69.400  0.00  0.00    -0.346 N 
ATOM      4  C10 non d ame     -11.210  11.591  69.039  0.00  0.00     0.241 C 
ATOM      5  O4  non d ame     -12.366  11.337  68.947  0.00  0.00    -0.271 OA
ATOM      6  H19 non d ame      -9.784  13.222  69.486  0.00  0.00     0.163 HD
BRANCH   4   7
ATOM      7  C9  non d ame     -10.181  10.519  68.794  0.00  0.00     0.092 C 
ATOM      8  H11 non d ame      -9.992  10.441  67.723  0.00  0.00     0.088 H 
BRANCH   7   9
ATOM      9  N3  non d ame      -8.915  10.901  69.429  0.00  0.00    -0.346 N 
ATOM     10  C7  non d ame      -7.737  11.102  68.624  0.00  0.00     0.240 C 
ATOM     11  O3  non d ame      -7.786  10.961  67.463  0.00  0.00    -0.271 OA
ATOM     12  H10 non d ame      -8.857  11.026  70.430  0.00  0.00     0.163 HD
BRANCH  10  13
ATOM     13  C6  non d ame      -6.393  11.506  69.307  0.00  0.00     0.086 C 
ATOM     14  H6  non d ame      -5.536  11.415  68.639  0.00  0.00     0.086 H 
BRANCH  13  15
ATOM     15  N2  non d ame      -6.466  12.903  69.703  0.00  0.00    -0.343 N 
ATOM     16  C5  non d ame      -5.911  13.933  68.821  0.00  0.00     0.273 C 
ATOM     17  O2  non d ame      -5.405  13.626  67.798  0.00  0.00    -0.266 OA
ATOM     18  H5  non d ame      -6.897  13.155  70.581  0.00  0.00     0.163 HD
BRANCH  16  19
ATOM     19  C4  non d ame      -5.982  15.413  69.227  0.00  0.00     0.154 A 
ATOM     20  C1  non d ame      -4.937  16.204  69.802  0.00  0.00    -0.017 A 
ATOM     21  C2  non d ame      -5.508  17.483  69.983  0.00  0.00     0.077 A 
ATOM     22  H1  non d ame      -3.921  15.896  70.050  0.00  0.00     0.091 H 
ATOM     23  O1  non d ame      -6.735  17.424  69.556  0.00  0.00    -0.218 OA
ATOM     24  N1  non d ame      -7.035  16.226  69.110  0.00  0.00    -0.123 NA
BRANCH  21  25
ATOM     25  C3  non d ame      -4.812  18.705  70.568  0.00  0.00    -0.029 C 
ATOM     26  H2  non d ame      -5.252  18.946  71.536  0.00  0.00     0.036 H 
ATOM     27  H3  non d ame      -3.751  18.494  70.693  0.00  0.00     0.036 H 
ATOM     28  H4  non d ame      -4.936  19.553  69.892  0.00  0.00     0.036 H 
ENDBRANCH  21  25
ENDBRANCH  16  19
ENDBRANCH  13  15
BRANCH  13  29
ATOM     29  C8  non d ame      -6.160  10.638  70.518  0.00  0.00    -0.049 C 
ATOM     30  H7  non d ame      -6.436  11.189  71.417  0.00  0.00     0.030 H 
ATOM     31  H8  non d ame      -6.768   9.737  70.442  0.00  0.00     0.030 H 
ATOM     32  H9  non d ame      -5.107  10.363  70.570  0.00  0.00     0.030 H 
ENDBRANCH  13  29
ENDBRANCH  10  13
ENDBRANCH   7   9
BRANCH   7  33
ATOM     33  C11 non d ame     -10.678   9.175  69.400  0.00  0.00    -0.033 C 
ATOM     34  H12 non d ame     -11.761   9.142  69.285  0.00  0.00     0.042 H 
BRANCH  33  35
ATOM     35  C12 non d ame     -10.087   7.952  68.632  0.00  0.00    -0.071 C 
ATOM     36  H13 non d ame      -9.855   8.243  67.608  0.00  0.00     0.028 H 
ATOM     37  H14 non d ame      -9.178   7.616  69.129  0.00  0.00     0.028 H 
ATOM     38  H15 non d ame     -10.817   7.143  68.623  0.00  0.00     0.028 H 
ENDBRANCH  33  35
BRANCH  33  39
ATOM     39  C13 non d ame     -10.353   9.096  70.927  0.00  0.00    -0.071 C 
ATOM     40  H16 non d ame      -9.306   8.826  71.061  0.00  0.00     0.028 H 
ATOM     41  H17 non d ame     -10.540  10.066  71.389  0.00  0.00     0.028 H 
ATOM     42  H18 non d ame     -10.986   8.342  71.395  0.00  0.00     0.028 H 
ENDBRANCH  33  39
ENDBRANCH   7  33
ENDBRANCH   4   7
ENDBRANCH   1   3
BRANCH   1  43
ATOM     43  C15 non d ame     -11.555  15.139  68.557  0.00  0.00     0.240 C 
ATOM     44  O5  non d ame     -11.974  16.234  68.751  0.00  0.00    -0.271 OA
ATOM     45  N6  non d ame     -10.842  14.834  67.283  0.00  0.00    -0.355 N 
ATOM     46  H46 non d ame     -10.477  13.909  67.109  0.00  0.00     0.162 HD
BRANCH  45  47
ATOM     47  C20 non d ame     -10.670  15.895  66.268  0.00  0.00     0.013 C 
ATOM     48  H30 non d ame     -11.381  16.691  66.490  0.00  0.00     0.072 H 
BRANCH  47  49
ATOM     49  C21 non d ame     -10.946  15.324  64.895  0.00  0.00    -0.038 C 
ATOM     50  H31 non d ame     -11.376  16.142  64.318  0.00  0.00     0.036 H 
ATOM     51  H32 non d ame     -10.012  14.862  64.575  0.00  0.00     0.036 H 
BRANCH  49  52
ATOM     52  C22 non d ame     -12.005  14.200  64.917  0.00  0.00     0.018 C 
ATOM     53  H33 non d ame     -12.016  13.823  65.940  0.00  0.00     0.048 H 
ATOM     54  H34 non d ame     -12.907  14.635  64.487  0.00  0.00     0.048 H 
BRANCH  52  55
ATOM     55  C23 non d ame     -11.646  12.984  64.018  0.00  0.00     0.259 C 
ATOM     56  O7  non d ame     -12.331  12.697  63.090  0.00  0.00    -0.265 OA
BRANCH  55  57
ATOM     57  O8  non d ame     -10.495  12.207  64.324  0.00  0.00    -0.317 OA
BRANCH  57  58
ATOM     58  C29 non d ame      -9.868  11.619  63.180  0.00  0.00     0.052 C 
ATOM     59  H47 non d ame     -10.676  11.392  62.486  0.00  0.00     0.082 H 
ATOM     60  H48 non d ame      -9.078  12.311  62.889  0.00  0.00     0.082 H 
BRANCH  58  61
ATOM     61  C35 non d ame      -9.213  10.285  63.626  0.00  0.00    -0.034 A 
ATOM     62  C30 non d ame      -9.558   9.712  64.845  0.00  0.00    -0.075 A 
ATOM     63  C31 non d ame      -8.969   8.513  65.245  0.00  0.00    -0.082 A 
ATOM     64  H49 non d ame     -10.290  10.202  65.488  0.00  0.00     0.084 H 
ATOM     65  C32 non d ame      -8.028   7.889  64.422  0.00  0.00    -0.083 A 
ATOM     66  H50 non d ame      -9.244   8.066  66.201  0.00  0.00     0.083 H 
ATOM     67  C33 non d ame      -7.684   8.466  63.207  0.00  0.00    -0.082 A 
ATOM     68  H51 non d ame      -7.564   6.951  64.727  0.00  0.00     0.083 H 
ATOM     69  C34 non d ame      -8.273   9.663  62.802  0.00  0.00    -0.075 A 
ATOM     70  H52 non d ame      -6.949   7.977  62.567  0.00  0.00     0.083 H 
ATOM     71  H53 non d ame      -7.998  10.109  61.845  0.00  0.00     0.084 H 
ENDBRANCH  58  61
ENDBRANCH  57  58
ENDBRANCH  55  57
ENDBRANCH  52  55
ENDBRANCH  49  52
ENDBRANCH  47  49
BRANCH  47  72
ATOM     72  C24 non d ame      -9.240  16.431  66.319  0.00  0.00    -0.039 C 
ATOM     73  H35 non d ame      -8.693  15.736  66.957  0.00  0.00     0.036 H 
ATOM     74  H36 non d ame      -8.943  16.564  65.279  0.00  0.00     0.036 H 
BRANCH  72  75
ATOM     75  C25 non d ame      -9.171  17.870  67.019  0.00  0.00    -0.001 C 
ATOM     76  C26 non d ame     -10.564  18.697  66.738  0.00  0.00    -0.035 C 
ATOM     77  C27 non d ame     -10.253  19.923  66.253  0.00  0.00     0.085 C 
ATOM     78  H38 non d ame     -11.116  18.233  65.922  0.00  0.00     0.036 H 
ATOM     79  H39 non d ame     -11.065  18.916  67.680  0.00  0.00     0.036 H 
ATOM     80  N5  non d ame      -8.793  19.889  65.870  0.00  0.00    -0.049 N 
ATOM     81  H40 non d ame     -10.854  20.041  65.351  0.00  0.00     0.075 H 
ATOM     82  H41 non d ame     -10.384  20.609  67.089  0.00  0.00     0.075 H 
ATOM     83  C28 non d ame      -8.182  18.565  66.564  0.00  0.00     0.193 C 
ATOM     84  H42 non d ame      -8.763  19.770  64.868  0.00  0.00     0.280 HD
ATOM     85  H43 non d ame      -8.366  20.700  66.295  0.00  0.00     0.280 HD
ATOM     86  H44 non d ame      -7.565  18.643  67.458  0.00  0.00     0.129 H 
ATOM     87  H37 non d ame      -8.830  17.810  68.053  0.00  0.00     0.046 H 
BRANCH  83  88
ATOM     88  O6  non d ame      -7.397  17.832  65.622  0.00  0.00    -0.369 OA
ATOM     89  H45 non d ame      -6.757  18.419  65.212  0.00  0.00     0.212 HD
ENDBRANCH  83  88
ENDBRANCH  72  75
ENDBRANCH  47  72
ENDBRANCH  45  47
ENDBRANCH   1  43
BRANCH   1  90
ATOM     90  C16 non d ame     -11.516  14.625  71.017  0.00  0.00    -0.035 C 
ATOM     91  H21 non d ame     -10.828  13.941  71.514  0.00  0.00     0.037 H 
ATOM     92  H22 non d ame     -11.224  15.661  70.844  0.00  0.00     0.037 H 
BRANCH  90  93
ATOM     93  C17 non d ame     -12.805  14.671  71.899  0.00  0.00    -0.059 C 
ATOM     94  H23 non d ame     -13.531  15.305  71.390  0.00  0.00     0.038 H 
BRANCH  93  95
ATOM     95  C18 non d ame     -13.448  13.259  72.078  0.00  0.00    -0.073 C 
ATOM     96  H24 non d ame     -13.322  12.931  73.109  0.00  0.00     0.028 H 
ATOM     97  H25 non d ame     -14.510  13.312  71.840  0.00  0.00     0.028 H 
ATOM     98  H26 non d ame     -12.960  12.551  71.408  0.00  0.00     0.028 H 
ENDBRANCH  93  95
BRANCH  93  99
ATOM     99  C19 non d ame     -12.515  15.314  73.259  0.00  0.00    -0.073 C 
ATOM    100  H27 non d ame     -12.649  16.394  73.186  0.00  0.00     0.028 H 
ATOM    101  H28 non d ame     -13.202  14.911  74.003  0.00  0.00     0.028 H 
ATOM    102  H29 non d ame     -11.490  15.092  73.554  0.00  0.00     0.028 H 
ENDBRANCH  93  99
ENDBRANCH  90  93
ENDBRANCH   1  90
TORSDOF 26
ENDMDL
MODEL 8
REMARK VINA RESULT:      -6.5      2.610      5.546
REMARK  26 active torsions:
REMARK  status: ('A' for Active; 'I' for Inactive)
REMARK    1  A    between atoms: C2_2  and  C3_3 
REMARK    2  A    between atoms: C4_6  and  C5_7 
REMARK       I    between atoms: C5_7  and  N2_9 
REMARK    3  A    between atoms: N2_9  and  C6_10 
REMARK    4  A    between atoms: C6_10  and  C7_11 
REMARK    5  A    between atoms: C6_10  and  C8_13 
REMARK       I    between atoms: C7_11  and  N3_14 
REMARK    6  A    between atoms: N3_14  and  C9_15 
REMARK    7  A    between atoms: C9_15  and  C10_16 
REMARK    8  A    between atoms: C9_15  and  C11_18 
REMARK       I    between atoms: C10_16  and  N4_21 
REMARK    9  A    between atoms: C11_18  and  C12_19 
REMARK   10  A    between atoms: C11_18  and  C13_20 
REMARK   11  A    between atoms: N4_21  and  C14_22 
REMARK   12  A    between atoms: C14_22  and  C15_23 
REMARK   13  A    between atoms: C14_22  and  C16_25 
REMARK       I    between atoms: C15_23  and  N6_40 
REMARK   14  A    between atoms: C16_25  and  C17_26 
REMARK   15  A    between atoms: C17_26  and  C18_27 
REMARK   16  A    between atoms: C17_26  and  C19_28 
REMARK   17  A    between atoms: C20_29  and  C21_30 
REMARK   18  A    between atoms: C20_29  and  C24_33 
REMARK   19  A    between atoms: C20_29  and  N6_40 
REMARK   20  A    between atoms: C21_30  and  C22_31 
REMARK   21  A    between atoms: C22_31  and  C23_32 
REMARK   22  A    between atoms: C23_32  and  O8_43 
REMARK   23  A    between atoms: C24_33  and  C25_34 
REMARK   24  A    between atoms: C28_38  and  O6_39 
REMARK   25  A    between atoms: C29_42  and  O8_43 
REMARK   26  A    between atoms: C29_42  and  C35_49 
ROOT
ATOM      1  C14 non d ame     -12.287  14.188  69.620  0.00  0.00     0.089 C 
ATOM      2  H20 non d ame     -13.238  13.773  69.286  0.00  0.00     0.087 H 
ENDROOT
BRANCH   1   3
ATOM      3  N4  non d ame     -11.411  13.072  69.943  0.00  0.00    -0.346 N 
ATOM      4  C10 non d ame     -11.480  11.794  69.145  0.00  0.00     0.241 C 
ATOM      5  O4  non d ame     -12.250  11.687  68.248  0.00  0.00    -0.271 OA
ATOM      6  H19 non d ame     -10.764  13.181  70.712  0.00  0.00     0.163 HD
BRANCH   4   7
ATOM      7  C9  non d ame     -10.563  10.650  69.489  0.00  0.00     0.092 C 
ATOM      8  H11 non d ame      -9.947  10.928  70.345  0.00  0.00     0.088 H 
BRANCH   7   9
ATOM      9  N3  non d ame     -11.361   9.487  69.891  0.00  0.00    -0.346 N 
ATOM     10  C7  non d ame     -12.204   9.560  71.058  0.00  0.00     0.240 C 
ATOM     11  O3  non d ame     -12.253  10.546  71.687  0.00  0.00    -0.271 OA
ATOM     12  H10 non d ame     -11.328   8.629  69.359  0.00  0.00     0.163 HD
BRANCH  10  13
ATOM     13  C6  non d ame     -13.048   8.318  71.482  0.00  0.00     0.086 C 
ATOM     14  H6  non d ame     -13.130   7.573  70.690  0.00  0.00     0.086 H 
BRANCH  13  15
ATOM     15  N2  non d ame     -12.394   7.664  72.603  0.00  0.00    -0.343 N 
ATOM     16  C5  non d ame     -11.499   6.531  72.356  0.00  0.00     0.273 C 
ATOM     17  O2  non d ame     -11.316   6.152  71.252  0.00  0.00    -0.266 OA
ATOM     18  H5  non d ame     -12.559   7.993  73.544  0.00  0.00     0.163 HD
BRANCH  16  19
ATOM     19  C4  non d ame     -10.801   5.831  73.532  0.00  0.00     0.154 A 
ATOM     20  C1  non d ame     -10.823   4.434  73.844  0.00  0.00    -0.017 A 
ATOM     21  C2  non d ame     -10.032   4.310  75.008  0.00  0.00     0.077 A 
ATOM     22  H1  non d ame     -11.334   3.634  73.308  0.00  0.00     0.091 H 
ATOM     23  O1  non d ame      -9.609   5.500  75.318  0.00  0.00    -0.218 OA
ATOM     24  N1  non d ame     -10.044   6.405  74.471  0.00  0.00    -0.123 NA
BRANCH  21  25
ATOM     25  C3  non d ame      -9.731   3.019  75.759  0.00  0.00    -0.029 C 
ATOM     26  H2  non d ame      -8.691   2.737  75.593  0.00  0.00     0.036 H 
ATOM     27  H3  non d ame      -9.901   3.171  76.824  0.00  0.00     0.036 H 
ATOM     28  H4  non d ame     -10.386   2.226  75.396  0.00  0.00     0.036 H 
ENDBRANCH  21  25
ENDBRANCH  16  19
ENDBRANCH  13  15
BRANCH  13  29
ATOM     29  C8  non d ame     -14.434   8.760  71.879  0.00  0.00    -0.049 C 
ATOM     30  H7  non d ame     -14.362   9.574  72.601  0.00  0.00     0.030 H 
ATOM     31  H8  non d ame     -14.974   9.103  70.997  0.00  0.00     0.030 H 
ATOM     32  H9  non d ame     -14.967   7.923  72.330  0.00  0.00     0.030 H 
ENDBRANCH  13  29
ENDBRANCH  10  13
ENDBRANCH   7   9
BRANCH   7  33
ATOM     33  C11 non d ame      -9.703  10.281  68.245  0.00  0.00    -0.033 C 
ATOM     34  H12 non d ame      -9.880  11.042  67.486  0.00  0.00     0.042 H 
BRANCH  33  35
ATOM     35  C12 non d ame      -8.179  10.299  68.581  0.00  0.00    -0.071 C 
ATOM     36  H13 non d ame      -7.805  11.320  68.520  0.00  0.00     0.028 H 
ATOM     37  H14 non d ame      -8.025   9.915  69.589  0.00  0.00     0.028 H 
ATOM     38  H15 non d ame      -7.644   9.673  67.868  0.00  0.00     0.028 H 
ENDBRANCH  33  35
BRANCH  33  39
ATOM     39  C13 non d ame     -10.136   8.901  67.655  0.00  0.00    -0.071 C 
ATOM     40  H16 non d ame     -11.098   8.611  68.078  0.00  0.00     0.028 H 
ATOM     41  H17 non d ame     -10.226   8.980  66.571  0.00  0.00     0.028 H 
ATOM     42  H18 non d ame      -9.388   8.148  67.903  0.00  0.00     0.028 H 
ENDBRANCH  33  39
ENDBRANCH   7  33
ENDBRANCH   4   7
ENDBRANCH   1   3
BRANCH   1  43
ATOM     43  C15 non d ame     -11.603  15.050  68.521  0.00  0.00     0.240 C 
ATOM     44  O5  non d ame     -11.648  16.236  68.585  0.00  0.00    -0.271 OA
ATOM     45  N6  non d ame     -10.884  14.396  67.390  0.00  0.00    -0.355 N 
ATOM     46  H46 non d ame     -10.836  13.390  67.327  0.00  0.00     0.162 HD
BRANCH  45  47
ATOM     47  C20 non d ame     -10.239  15.229  66.353  0.00  0.00     0.013 C 
ATOM     48  H30 non d ame     -10.777  16.175  66.299  0.00  0.00     0.072 H 
BRANCH  47  49
ATOM     49  C21 non d ame     -10.313  14.517  65.021  0.00  0.00    -0.038 C 
ATOM     50  H31 non d ame     -11.002  15.102  64.412  0.00  0.00     0.036 H 
ATOM     51  H32 non d ame      -9.280  14.384  64.700  0.00  0.00     0.036 H 
BRANCH  49  52
ATOM     52  C22 non d ame     -10.922  13.102  65.131  0.00  0.00     0.018 C 
ATOM     53  H33 non d ame     -10.125  12.467  65.519  0.00  0.00     0.048 H 
ATOM     54  H34 non d ame     -11.846  13.221  65.696  0.00  0.00     0.048 H 
BRANCH  52  55
ATOM     55  C23 non d ame     -11.332  12.488  63.764  0.00  0.00     0.259 C 
ATOM     56  O7  non d ame     -12.220  12.962  63.132  0.00  0.00    -0.265 OA
BRANCH  55  57
ATOM     57  O8  non d ame     -10.643  11.342  63.280  0.00  0.00    -0.317 OA
BRANCH  57  58
ATOM     58  C29 non d ame     -10.081  10.523  64.311  0.00  0.00     0.052 C 
ATOM     59  H47 non d ame      -9.737  11.213  65.081  0.00  0.00     0.082 H 
ATOM     60  H48 non d ame     -10.844   9.781  64.545  0.00  0.00     0.082 H 
BRANCH  58  61
ATOM     61  C35 non d ame      -8.848   9.789  63.720  0.00  0.00    -0.034 A 
ATOM     62  C30 non d ame      -8.229  10.277  62.574  0.00  0.00    -0.075 A 
ATOM     63  C31 non d ame      -7.121   9.618  62.044  0.00  0.00    -0.082 A 
ATOM     64  H49 non d ame      -8.612  11.177  62.091  0.00  0.00     0.084 H 
ATOM     65  C32 non d ame      -6.634   8.463  62.663  0.00  0.00    -0.083 A 
ATOM     66  H50 non d ame      -6.636  10.005  61.147  0.00  0.00     0.083 H 
ATOM     67  C33 non d ame      -7.257   7.978  63.805  0.00  0.00    -0.082 A 
ATOM     68  H51 non d ame      -5.767   7.942  62.255  0.00  0.00     0.083 H 
ATOM     69  C34 non d ame      -8.363   8.636  64.339  0.00  0.00    -0.075 A 
ATOM     70  H52 non d ame      -6.875   7.076  64.284  0.00  0.00     0.083 H 
ATOM     71  H53 non d ame      -8.846   8.248  65.237  0.00  0.00     0.084 H 
ENDBRANCH  58  61
ENDBRANCH  57  58
ENDBRANCH  55  57
ENDBRANCH  52  55
ENDBRANCH  49  52
ENDBRANCH  47  49
BRANCH  47  72
ATOM     72  C24 non d ame      -8.777  15.471  66.721  0.00  0.00    -0.039 C 
ATOM     73  H35 non d ame      -8.626  14.950  67.667  0.00  0.00     0.036 H 
ATOM     74  H36 non d ame      -8.203  15.177  65.842  0.00  0.00     0.036 H 
BRANCH  72  75
ATOM     75  C25 non d ame      -8.479  17.023  66.984  0.00  0.00    -0.001 C 
ATOM     76  C26 non d ame      -7.128  17.479  66.165  0.00  0.00    -0.035 C 
ATOM     77  C27 non d ame      -6.289  18.106  67.024  0.00  0.00     0.085 C 
ATOM     78  H38 non d ame      -6.565  16.601  65.853  0.00  0.00     0.036 H 
ATOM     79  H39 non d ame      -7.374  18.255  65.440  0.00  0.00     0.036 H 
ATOM     80  N5  non d ame      -6.797  17.828  68.419  0.00  0.00    -0.049 N 
ATOM     81  H40 non d ame      -5.322  17.618  66.895  0.00  0.00     0.075 H 
ATOM     82  H41 non d ame      -6.395  19.169  66.813  0.00  0.00     0.075 H 
ATOM     83  C28 non d ame      -8.297  17.259  68.240  0.00  0.00     0.193 C 
ATOM     84  H42 non d ame      -6.216  17.092  68.794  0.00  0.00     0.280 HD
ATOM     85  H43 non d ame      -6.847  18.721  68.888  0.00  0.00     0.280 HD
ATOM     86  H44 non d ame      -9.159  17.892  68.450  0.00  0.00     0.129 H 
ATOM     87  H37 non d ame      -9.369  17.640  66.857  0.00  0.00     0.046 H 
BRANCH  83  88
ATOM     88  O6  non d ame      -8.480  16.089  69.040  0.00  0.00    -0.369 OA
ATOM     89  H45 non d ame      -8.742  16.346  69.927  0.00  0.00     0.212 HD
ENDBRANCH  83  88
ENDBRANCH  72  75
ENDBRANCH  47  72
ENDBRANCH  45  47
ENDBRANCH   1  43
BRANCH   1  90
ATOM     90  C16 non d ame     -12.501  15.028  70.869  0.00  0.00    -0.035 C 
ATOM     91  H21 non d ame     -11.564  15.567  71.019  0.00  0.00     0.037 H 
ATOM     92  H22 non d ame     -13.424  15.580  70.691  0.00  0.00     0.037 H 
BRANCH  90  93
ATOM     93  C17 non d ame     -12.734  14.182  72.161  0.00  0.00    -0.059 C 
ATOM     94  H23 non d ame     -12.038  13.344  72.137  0.00  0.00     0.038 H 
BRANCH  93  95
ATOM     95  C18 non d ame     -12.450  15.001  73.461  0.00  0.00    -0.073 C 
ATOM     96  H24 non d ame     -12.643  16.057  73.274  0.00  0.00     0.028 H 
ATOM     97  H25 non d ame     -13.102  14.649  74.261  0.00  0.00     0.028 H 
ATOM     98  H26 non d ame     -11.409  14.867  73.754  0.00  0.00     0.028 H 
ENDBRANCH  93  95
BRANCH  93  99
ATOM     99  C19 non d ame     -14.149  13.597  72.184  0.00  0.00    -0.073 C 
ATOM    100  H27 non d ame     -14.094  12.522  72.357  0.00  0.00     0.028 H 
ATOM    101  H28 non d ame     -14.722  14.066  72.984  0.00  0.00     0.028 H 
ATOM    102  H29 non d ame     -14.638  13.788  71.229  0.00  0.00     0.028 H 
ENDBRANCH  93  99
ENDBRANCH  90  93
ENDBRANCH   1  90
TORSDOF 26
ENDMDL
MODEL 9
REMARK VINA RESULT:      -6.4      3.392      7.641
REMARK  26 active torsions:
REMARK  status: ('A' for Active; 'I' for Inactive)
REMARK    1  A    between atoms: C2_2  and  C3_3 
REMARK    2  A    between atoms: C4_6  and  C5_7 
REMARK       I    between atoms: C5_7  and  N2_9 
REMARK    3  A    between atoms: N2_9  and  C6_10 
REMARK    4  A    between atoms: C6_10  and  C7_11 
REMARK    5  A    between atoms: C6_10  and  C8_13 
REMARK       I    between atoms: C7_11  and  N3_14 
REMARK    6  A    between atoms: N3_14  and  C9_15 
REMARK    7  A    between atoms: C9_15  and  C10_16 
REMARK    8  A    between atoms: C9_15  and  C11_18 
REMARK       I    between atoms: C10_16  and  N4_21 
REMARK    9  A    between atoms: C11_18  and  C12_19 
REMARK   10  A    between atoms: C11_18  and  C13_20 
REMARK   11  A    between atoms: N4_21  and  C14_22 
REMARK   12  A    between atoms: C14_22  and  C15_23 
REMARK   13  A    between atoms: C14_22  and  C16_25 
REMARK       I    between atoms: C15_23  and  N6_40 
REMARK   14  A    between atoms: C16_25  and  C17_26 
REMARK   15  A    between atoms: C17_26  and  C18_27 
REMARK   16  A    between atoms: C17_26  and  C19_28 
REMARK   17  A    between atoms: C20_29  and  C21_30 
REMARK   18  A    between atoms: C20_29  and  C24_33 
REMARK   19  A    between atoms: C20_29  and  N6_40 
REMARK   20  A    between atoms: C21_30  and  C22_31 
REMARK   21  A    between atoms: C22_31  and  C23_32 
REMARK   22  A    between atoms: C23_32  and  O8_43 
REMARK   23  A    between atoms: C24_33  and  C25_34 
REMARK   24  A    between atoms: C28_38  and  O6_39 
REMARK   25  A    between atoms: C29_42  and  O8_43 
REMARK   26  A    between atoms: C29_42  and  C35_49 
ROOT
ATOM      1  C14 non d ame     -10.101  10.587  68.382  0.00  0.00     0.089 C 
ATOM      2  H20 non d ame      -9.334  10.681  69.153  0.00  0.00     0.087 H 
ENDROOT
BRANCH   1   3
ATOM      3  N4  non d ame     -10.649   9.242  68.472  0.00  0.00    -0.346 N 
ATOM      4  C10 non d ame      -9.949   8.186  69.290  0.00  0.00     0.241 C 
ATOM      5  O4  non d ame      -8.943   8.443  69.866  0.00  0.00    -0.271 OA
ATOM      6  H19 non d ame     -11.505   9.043  67.972  0.00  0.00     0.163 HD
BRANCH   4   7
ATOM      7  C9  non d ame     -10.533   6.801  69.376  0.00  0.00     0.092 C 
ATOM      8  H11 non d ame     -11.596   6.844  69.136  0.00  0.00     0.088 H 
BRANCH   7   9
ATOM      9  N3  non d ame      -9.899   5.940  68.373  0.00  0.00    -0.346 N 
ATOM     10  C7  non d ame     -10.379   5.942  67.014  0.00  0.00     0.240 C 
ATOM     11  O3  non d ame     -11.276   6.629  66.708  0.00  0.00    -0.271 OA
ATOM     12  H10 non d ame      -9.124   5.340  68.621  0.00  0.00     0.163 HD
BRANCH  10  13
ATOM     13  C6  non d ame      -9.702   5.020  65.952  0.00  0.00     0.086 C 
ATOM     14  H6  non d ame     -10.323   4.865  65.070  0.00  0.00     0.086 H 
BRANCH  13  15
ATOM     15  N2  non d ame      -8.477   5.654  65.491  0.00  0.00    -0.343 N 
ATOM     16  C5  non d ame      -8.097   5.550  64.080  0.00  0.00     0.273 C 
ATOM     17  O2  non d ame      -8.781   4.952  63.325  0.00  0.00    -0.266 OA
ATOM     18  H5  non d ame      -7.897   6.161  66.144  0.00  0.00     0.163 HD
BRANCH  16  19
ATOM     19  C4  non d ame      -6.806   6.216  63.579  0.00  0.00     0.154 A 
ATOM     20  C1  non d ame      -6.511   7.617  63.548  0.00  0.00    -0.017 A 
ATOM     21  C2  non d ame      -5.210   7.702  63.006  0.00  0.00     0.077 A 
ATOM     22  H1  non d ame      -7.144   8.444  63.871  0.00  0.00     0.091 H 
ATOM     23  O1  non d ame      -4.813   6.488  62.759  0.00  0.00    -0.218 OA
ATOM     24  N1  non d ame      -5.727   5.604  63.086  0.00  0.00    -0.123 NA
BRANCH  21  25
ATOM     25  C3  non d ame      -4.419   8.979  62.757  0.00  0.00    -0.029 C 
ATOM     26  H2  non d ame      -3.549   8.754  62.141  0.00  0.00     0.036 H 
ATOM     27  H3  non d ame      -5.050   9.704  62.244  0.00  0.00     0.036 H 
ATOM     28  H4  non d ame      -4.091   9.395  63.711  0.00  0.00     0.036 H 
ENDBRANCH  21  25
ENDBRANCH  16  19
ENDBRANCH  13  15
BRANCH  13  29
ATOM     29  C8  non d ame      -9.389   3.682  66.570  0.00  0.00    -0.049 C 
ATOM     30  H7  non d ame      -8.390   3.708  67.007  0.00  0.00     0.030 H 
ATOM     31  H8  non d ame     -10.120   3.458  67.346  0.00  0.00     0.030 H 
ATOM     32  H9  non d ame      -9.426   2.909  65.801  0.00  0.00     0.030 H 
ENDBRANCH  13  29
ENDBRANCH  10  13
ENDBRANCH   7   9
BRANCH   7  33
ATOM     33  C11 non d ame     -10.276   6.216  70.795  0.00  0.00    -0.033 C 
ATOM     34  H12 non d ame      -9.408   6.727  71.209  0.00  0.00     0.042 H 
BRANCH  33  35
ATOM     35  C12 non d ame     -11.481   6.489  71.749  0.00  0.00    -0.071 C 
ATOM     36  H13 non d ame     -11.211   7.268  72.462  0.00  0.00     0.028 H 
ATOM     37  H14 non d ame     -12.341   6.814  71.165  0.00  0.00     0.028 H 
ATOM     38  H15 non d ame     -11.730   5.576  72.288  0.00  0.00     0.028 H 
ENDBRANCH  33  35
BRANCH  33  39
ATOM     39  C13 non d ame      -9.948   4.690  70.721  0.00  0.00    -0.071 C 
ATOM     40  H16 non d ame     -10.437   4.256  69.849  0.00  0.00     0.028 H 
ATOM     41  H17 non d ame      -8.869   4.554  70.638  0.00  0.00     0.028 H 
ATOM     42  H18 non d ame     -10.308   4.197  71.623  0.00  0.00     0.028 H 
ENDBRANCH  33  39
ENDBRANCH   7  33
ENDBRANCH   4   7
ENDBRANCH   1   3
BRANCH   1  43
ATOM     43  C15 non d ame     -11.258  11.607  68.578  0.00  0.00     0.240 C 
ATOM     44  O5  non d ame     -12.356  11.333  68.216  0.00  0.00    -0.271 OA
ATOM     45  N6  non d ame     -10.999  12.925  69.227  0.00  0.00    -0.355 N 
ATOM     46  H46 non d ame     -10.071  13.167  69.542  0.00  0.00     0.162 HD
BRANCH  45  47
ATOM     47  C20 non d ame     -12.110  13.884  69.406  0.00  0.00     0.013 C 
ATOM     48  H30 non d ame     -12.931  13.572  68.760  0.00  0.00     0.072 H 
BRANCH  47  49
ATOM     49  C21 non d ame     -11.644  15.268  69.018  0.00  0.00    -0.038 C 
ATOM     50  H31 non d ame     -12.537  15.796  68.682  0.00  0.00     0.036 H 
ATOM     51  H32 non d ame     -11.081  15.641  69.874  0.00  0.00     0.036 H 
BRANCH  49  52
ATOM     52  C22 non d ame     -10.667  15.258  67.822  0.00  0.00     0.018 C 
ATOM     53  H33 non d ame      -9.676  15.106  68.251  0.00  0.00     0.048 H 
ATOM     54  H34 non d ame     -11.072  14.533  67.116  0.00  0.00     0.048 H 
BRANCH  52  55
ATOM     55  C23 non d ame     -10.599  16.609  67.057  0.00  0.00     0.259 C 
ATOM     56  O7  non d ame     -10.353  16.632  65.895  0.00  0.00    -0.265 OA
BRANCH  55  57
ATOM     57  O8  non d ame     -10.820  17.823  67.765  0.00  0.00    -0.317 OA
BRANCH  57  58
ATOM     58  C29 non d ame     -10.456  18.997  67.033  0.00  0.00     0.052 C 
ATOM     59  H47 non d ame     -10.411  18.692  65.989  0.00  0.00     0.082 H 
ATOM     60  H48 non d ame     -11.160  19.769  67.346  0.00  0.00     0.082 H 
BRANCH  58  61
ATOM     61  C35 non d ame      -9.033  19.420  67.484  0.00  0.00    -0.034 A 
ATOM     62  C30 non d ame      -8.532  18.989  68.708  0.00  0.00    -0.075 A 
ATOM     63  C31 non d ame      -7.253  19.369  69.113  0.00  0.00    -0.082 A 
ATOM     64  H49 non d ame      -9.141  18.351  69.350  0.00  0.00     0.084 H 
ATOM     65  C32 non d ame      -6.476  20.188  68.290  0.00  0.00    -0.083 A 
ATOM     66  H50 non d ame      -6.862  19.026  70.071  0.00  0.00     0.083 H 
ATOM     67  C33 non d ame      -6.981  20.620  67.071  0.00  0.00    -0.082 A 
ATOM     68  H51 non d ame      -5.474  20.489  68.598  0.00  0.00     0.083 H 
ATOM     69  C34 non d ame      -8.258  20.240  66.662  0.00  0.00    -0.075 A 
ATOM     70  H52 non d ame      -6.372  21.260  66.432  0.00  0.00     0.083 H 
ATOM     71  H53 non d ame      -8.647  20.582  65.702  0.00  0.00     0.084 H 
ENDBRANCH  58  61
ENDBRANCH  57  58
ENDBRANCH  55  57
ENDBRANCH  52  55
ENDBRANCH  49  52
ENDBRANCH  47  49
BRANCH  47  72
ATOM     72  C24 non d ame     -12.558  13.887  70.867  0.00  0.00    -0.039 C 
ATOM     73  H35 non d ame     -13.482  13.309  70.888  0.00  0.00     0.036 H 
ATOM     74  H36 non d ame     -11.692  13.549  71.436  0.00  0.00     0.036 H 
BRANCH  72  75
ATOM     75  C25 non d ame     -12.912  15.364  71.376  0.00  0.00    -0.001 C 
ATOM     76  C26 non d ame     -11.759  15.885  72.426  0.00  0.00    -0.035 C 
ATOM     77  C27 non d ame     -12.365  16.330  73.553  0.00  0.00     0.085 C 
ATOM     78  H38 non d ame     -11.162  15.043  72.774  0.00  0.00     0.036 H 
ATOM     79  H39 non d ame     -11.268  16.774  72.032  0.00  0.00     0.036 H 
ATOM     80  N5  non d ame     -13.799  15.859  73.499  0.00  0.00    -0.049 N 
ATOM     81  H40 non d ame     -11.856  15.827  74.376  0.00  0.00     0.075 H 
ATOM     82  H41 non d ame     -12.346  17.417  73.483  0.00  0.00     0.075 H 
ATOM     83  C28 non d ame     -14.055  15.391  71.975  0.00  0.00     0.193 C 
ATOM     84  H42 non d ame     -13.856  15.049  74.098  0.00  0.00     0.280 HD
ATOM     85  H43 non d ame     -14.373  16.668  73.687  0.00  0.00     0.280 HD
ATOM     86  H44 non d ame     -14.624  16.019  71.290  0.00  0.00     0.129 H 
ATOM     87  H37 non d ame     -13.173  16.031  70.555  0.00  0.00     0.046 H 
BRANCH  83  88
ATOM     88  O6  non d ame     -14.705  14.118  71.953  0.00  0.00    -0.369 OA
ATOM     89  H45 non d ame     -14.217  13.520  71.382  0.00  0.00     0.212 HD
ENDBRANCH  83  88
ENDBRANCH  72  75
ENDBRANCH  47  72
ENDBRANCH  45  47
ENDBRANCH   1  43
BRANCH   1  90
ATOM     90  C16 non d ame      -9.477  10.778  67.010  0.00  0.00    -0.035 C 
ATOM     91  H21 non d ame      -9.641   9.836  66.485  0.00  0.00     0.037 H 
ATOM     92  H22 non d ame      -9.910  11.700  66.622  0.00  0.00     0.037 H 
BRANCH  90  93
ATOM     93  C17 non d ame      -7.931  10.999  67.048  0.00  0.00    -0.059 C 
ATOM     94  H23 non d ame      -7.673  11.673  66.232  0.00  0.00     0.038 H 
BRANCH  93  95
ATOM     95  C18 non d ame      -7.463  11.664  68.382  0.00  0.00    -0.073 C 
ATOM     96  H24 non d ame      -6.416  11.422  68.560  0.00  0.00     0.028 H 
ATOM     97  H25 non d ame      -7.579  12.745  68.308  0.00  0.00     0.028 H 
ATOM     98  H26 non d ame      -8.070  11.290  69.207  0.00  0.00     0.028 H 
ENDBRANCH  93  95
BRANCH  93  99
ATOM     99  C19 non d ame      -7.185   9.684  66.804  0.00  0.00    -0.073 C 
ATOM    100  H27 non d ame      -7.429   8.976  67.597  0.00  0.00     0.028 H 
ATOM    101  H28 non d ame      -7.485   9.271  65.841  0.00  0.00     0.028 H 
ATOM    102  H29 non d ame      -6.111   9.871  66.800  0.00  0.00     0.028 H 
ENDBRANCH  93  99
ENDBRANCH  90  93
ENDBRANCH   1  90
TORSDOF 26
ENDMDL
MODEL 10
REMARK VINA RESULT:      -6.4      2.557      7.920
REMARK  26 active torsions:
REMARK  status: ('A' for Active; 'I' for Inactive)
REMARK    1  A    between atoms: C2_2  and  C3_3 
REMARK    2  A    between atoms: C4_6  and  C5_7 
REMARK       I    between atoms: C5_7  and  N2_9 
REMARK    3  A    between atoms: N2_9  and  C6_10 
REMARK    4  A    between atoms: C6_10  and  C7_11 
REMARK    5  A    between atoms: C6_10  and  C8_13 
REMARK       I    between atoms: C7_11  and  N3_14 
REMARK    6  A    between atoms: N3_14  and  C9_15 
REMARK    7  A    between atoms: C9_15  and  C10_16 
REMARK    8  A    between atoms: C9_15  and  C11_18 
REMARK       I    between atoms: C10_16  and  N4_21 
REMARK    9  A    between atoms: C11_18  and  C12_19 
REMARK   10  A    between atoms: C11_18  and  C13_20 
REMARK   11  A    between atoms: N4_21  and  C14_22 
REMARK   12  A    between atoms: C14_22  and  C15_23 
REMARK   13  A    between atoms: C14_22  and  C16_25 
REMARK       I    between atoms: C15_23  and  N6_40 
REMARK   14  A    between atoms: C16_25  and  C17_26 
REMARK   15  A    between atoms: C17_26  and  C18_27 
REMARK   16  A    between atoms: C17_26  and  C19_28 
REMARK   17  A    between atoms: C20_29  and  C21_30 
REMARK   18  A    between atoms: C20_29  and  C24_33 
REMARK   19  A    between atoms: C20_29  and  N6_40 
REMARK   20  A    between atoms: C21_30  and  C22_31 
REMARK   21  A    between atoms: C22_31  and  C23_32 
REMARK   22  A    between atoms: C23_32  and  O8_43 
REMARK   23  A    between atoms: C24_33  and  C25_34 
REMARK   24  A    between atoms: C28_38  and  O6_39 
REMARK   25  A    between atoms: C29_42  and  O8_43 
REMARK   26  A    between atoms: C29_42  and  C35_49 
ROOT
ATOM      1  C14 non d ame      -6.556  15.906  67.672  0.00  0.00     0.089 C 
ATOM      2  H20 non d ame      -6.015  16.421  66.877  0.00  0.00     0.087 H 
ENDROOT
BRANCH   1   3
ATOM      3  N4  non d ame      -7.978  16.085  67.422  0.00  0.00    -0.346 N 
ATOM      4  C10 non d ame      -8.452  17.110  66.421  0.00  0.00     0.241 C 
ATOM      5  O4  non d ame      -7.669  17.779  65.831  0.00  0.00    -0.271 OA
ATOM      6  H19 non d ame      -8.628  15.508  67.936  0.00  0.00     0.163 HD
BRANCH   4   7
ATOM      7  C9  non d ame      -9.927  17.279  66.171  0.00  0.00     0.092 C 
ATOM      8  H11 non d ame     -10.073  17.888  65.278  0.00  0.00     0.088 H 
BRANCH   7   9
ATOM      9  N3  non d ame     -10.532  15.970  65.903  0.00  0.00    -0.346 N 
ATOM     10  C7  non d ame     -11.320  15.770  64.713  0.00  0.00     0.240 C 
ATOM     11  O3  non d ame     -11.479  16.650  63.959  0.00  0.00    -0.271 OA
ATOM     12  H10 non d ame     -10.404  15.201  66.545  0.00  0.00     0.163 HD
BRANCH  10  13
ATOM     13  C6  non d ame     -11.963  14.375  64.436  0.00  0.00     0.086 C 
ATOM     14  H6  non d ame     -12.587  14.368  63.543  0.00  0.00     0.086 H 
BRANCH  13  15
ATOM     15  N2  non d ame     -10.904  13.404  64.211  0.00  0.00    -0.343 N 
ATOM     16  C5  non d ame     -11.217  12.133  63.555  0.00  0.00     0.273 C 
ATOM     17  O2  non d ame     -12.325  11.900  63.215  0.00  0.00    -0.266 OA
ATOM     18  H5  non d ame      -9.961  13.611  64.507  0.00  0.00     0.163 HD
BRANCH  16  19
ATOM     19  C4  non d ame     -10.108  11.099  63.309  0.00  0.00     0.154 A 
ATOM     20  C1  non d ame      -9.731  10.015  64.165  0.00  0.00    -0.017 A 
ATOM     21  C2  non d ame      -8.671   9.371  63.489  0.00  0.00     0.077 A 
ATOM     22  H1  non d ame     -10.163   9.738  65.127  0.00  0.00     0.091 H 
ATOM     23  O1  non d ame      -8.471  10.015  62.377  0.00  0.00    -0.218 OA
ATOM     24  N1  non d ame      -9.298  11.028  62.250  0.00  0.00    -0.123 NA
BRANCH  21  25
ATOM     25  C3  non d ame      -7.906   8.146  63.974  0.00  0.00    -0.029 C 
ATOM     26  H2  non d ame      -8.277   7.259  63.460  0.00  0.00     0.036 H 
ATOM     27  H3  non d ame      -6.845   8.273  63.761  0.00  0.00     0.036 H 
ATOM     28  H4  non d ame      -8.050   8.029  65.049  0.00  0.00     0.036 H 
ENDBRANCH  21  25
ENDBRANCH  16  19
ENDBRANCH  13  15
BRANCH  13  29
ATOM     29  C8  non d ame     -12.800  13.960  65.619  0.00  0.00    -0.049 C 
ATOM     30  H7  non d ame     -13.854  13.978  65.342  0.00  0.00     0.030 H 
ATOM     31  H8  non d ame     -12.522  12.953  65.926  0.00  0.00     0.030 H 
ATOM     32  H9  non d ame     -12.630  14.652  66.444  0.00  0.00     0.030 H 
ENDBRANCH  13  29
ENDBRANCH  10  13
ENDBRANCH   7   9
BRANCH   7  33
ATOM     33  C11 non d ame     -10.597  17.911  67.426  0.00  0.00    -0.033 C 
ATOM     34  H12 non d ame     -11.565  18.304  67.120  0.00  0.00     0.042 H 
BRANCH  33  35
ATOM     35  C12 non d ame     -10.853  16.840  68.533  0.00  0.00    -0.071 C 
ATOM     36  H13 non d ame     -11.593  16.122  68.179  0.00  0.00     0.028 H 
ATOM     37  H14 non d ame      -9.922  16.321  68.758  0.00  0.00     0.028 H 
ATOM     38  H15 non d ame     -11.224  17.331  69.432  0.00  0.00     0.028 H 
ENDBRANCH  33  35
BRANCH  33  39
ATOM     39  C13 non d ame      -9.745  19.099  67.976  0.00  0.00    -0.071 C 
ATOM     40  H16 non d ame      -9.204  19.569  67.156  0.00  0.00     0.028 H 
ATOM     41  H17 non d ame     -10.403  19.832  68.444  0.00  0.00     0.028 H 
ATOM     42  H18 non d ame      -9.034  18.727  68.714  0.00  0.00     0.028 H 
ENDBRANCH  33  39
ENDBRANCH   7  33
ENDBRANCH   4   7
ENDBRANCH   1   3
BRANCH   1  43
ATOM     43  C15 non d ame      -6.248  14.382  67.700  0.00  0.00     0.240 C 
ATOM     44  O5  non d ame      -5.136  13.999  67.525  0.00  0.00    -0.271 OA
ATOM     45  N6  non d ame      -7.339  13.397  67.954  0.00  0.00    -0.355 N 
ATOM     46  H46 non d ame      -8.286  13.711  68.108  0.00  0.00     0.162 HD
BRANCH  45  47
ATOM     47  C20 non d ame      -7.030  11.952  67.979  0.00  0.00     0.013 C 
ATOM     48  H30 non d ame      -6.093  11.799  67.443  0.00  0.00     0.072 H 
BRANCH  47  49
ATOM     49  C21 non d ame      -8.144  11.190  67.296  0.00  0.00    -0.038 C 
ATOM     50  H31 non d ame      -7.798  11.012  66.278  0.00  0.00     0.036 H 
ATOM     51  H32 non d ame      -8.369  10.348  67.951  0.00  0.00     0.036 H 
BRANCH  49  52
ATOM     52  C22 non d ame      -9.445  12.012  67.177  0.00  0.00     0.018 C 
ATOM     53  H33 non d ame      -9.396  12.761  67.968  0.00  0.00     0.048 H 
ATOM     54  H34 non d ame      -9.503  12.325  66.135  0.00  0.00     0.048 H 
BRANCH  52  55
ATOM     55  C23 non d ame     -10.734  11.187  67.449  0.00  0.00     0.259 C 
ATOM     56  O7  non d ame     -11.709  11.358  66.791  0.00  0.00    -0.265 OA
BRANCH  55  57
ATOM     57  O8  non d ame     -10.741  10.234  68.504  0.00  0.00    -0.317 OA
BRANCH  57  58
ATOM     58  C29 non d ame     -10.963  10.801  69.799  0.00  0.00     0.052 C 
ATOM     59  H47 non d ame     -10.122  11.470  69.975  0.00  0.00     0.082 H 
ATOM     60  H48 non d ame     -11.978  11.195  69.778  0.00  0.00     0.082 H 
BRANCH  58  61
ATOM     61  C35 non d ame     -10.904   9.652  70.841  0.00  0.00    -0.034 A 
ATOM     62  C30 non d ame      -9.678   9.117  71.221  0.00  0.00    -0.075 A 
ATOM     63  C31 non d ame      -9.626   8.085  72.157  0.00  0.00    -0.082 A 
ATOM     64  H49 non d ame      -8.757   9.507  70.786  0.00  0.00     0.084 H 
ATOM     65  C32 non d ame     -10.808   7.586  72.711  0.00  0.00    -0.083 A 
ATOM     66  H50 non d ame      -8.663   7.670  72.455  0.00  0.00     0.083 H 
ATOM     67  C33 non d ame     -12.030   8.120  72.326  0.00  0.00    -0.082 A 
ATOM     68  H51 non d ame     -10.776   6.779  73.444  0.00  0.00     0.083 H 
ATOM     69  C34 non d ame     -12.086   9.153  71.393  0.00  0.00    -0.075 A 
ATOM     70  H52 non d ame     -12.950   7.727  72.759  0.00  0.00     0.083 H 
ATOM     71  H53 non d ame     -13.050   9.569  71.097  0.00  0.00     0.084 H 
ENDBRANCH  58  61
ENDBRANCH  57  58
ENDBRANCH  55  57
ENDBRANCH  52  55
ENDBRANCH  49  52
ENDBRANCH  47  49
BRANCH  47  72
ATOM     72  C24 non d ame      -6.899  11.477  69.424  0.00  0.00    -0.039 C 
ATOM     73  H35 non d ame      -7.431  12.217  70.022  0.00  0.00     0.036 H 
ATOM     74  H36 non d ame      -7.233  10.439  69.420  0.00  0.00     0.036 H 
BRANCH  72  75
ATOM     75  C25 non d ame      -5.374  11.481  69.914  0.00  0.00    -0.001 C 
ATOM     76  C26 non d ame      -4.999  10.028  70.588  0.00  0.00    -0.035 C 
ATOM     77  C27 non d ame      -4.441  10.243  71.804  0.00  0.00     0.085 C 
ATOM     78  H38 non d ame      -5.909   9.477  70.819  0.00  0.00     0.036 H 
ATOM     79  H39 non d ame      -4.200   9.549  70.023  0.00  0.00     0.036 H 
ATOM     80  N5  non d ame      -4.701  11.687  72.160  0.00  0.00    -0.049 N 
ATOM     81  H40 non d ame      -4.992   9.602  72.494  0.00  0.00     0.075 H 
ATOM     82  H41 non d ame      -3.371  10.099  71.663  0.00  0.00     0.075 H 
ATOM     83  C28 non d ame      -5.165  12.405  70.791  0.00  0.00     0.193 C 
ATOM     84  H42 non d ame      -5.479  11.688  72.803  0.00  0.00     0.280 HD
ATOM     85  H43 non d ame      -3.813  12.077  72.441  0.00  0.00     0.280 HD
ATOM     86  H44 non d ame      -4.479  13.049  70.242  0.00  0.00     0.129 H 
ATOM     87  H37 non d ame      -4.696  11.863  69.150  0.00  0.00     0.046 H 
BRANCH  83  88
ATOM     88  O6  non d ame      -6.330  13.200  71.022  0.00  0.00    -0.369 OA
ATOM     89  H45 non d ame      -7.049  12.636  71.317  0.00  0.00     0.212 HD
ENDBRANCH  83  88
ENDBRANCH  72  75
ENDBRANCH  47  72
ENDBRANCH  45  47
ENDBRANCH   1  43
BRANCH   1  90
ATOM     90  C16 non d ame      -6.206  16.523  69.016  0.00  0.00    -0.035 C 
ATOM     91  H21 non d ame      -7.157  16.854  69.437  0.00  0.00     0.037 H 
ATOM     92  H22 non d ame      -5.614  15.770  69.535  0.00  0.00     0.037 H 
BRANCH  90  93
ATOM     93  C17 non d ame      -5.306  17.794  68.907  0.00  0.00    -0.059 C 
ATOM     94  H23 non d ame      -4.510  17.699  69.645  0.00  0.00     0.038 H 
BRANCH  93  95
ATOM     95  C18 non d ame      -4.638  17.925  67.501  0.00  0.00    -0.073 C 
ATOM     96  H24 non d ame      -4.155  16.984  67.239  0.00  0.00     0.028 H 
ATOM     97  H25 non d ame      -5.399  18.162  66.758  0.00  0.00     0.028 H 
ATOM     98  H26 non d ame      -3.893  18.722  67.525  0.00  0.00     0.028 H 
ENDBRANCH  93  95
BRANCH  93  99
ATOM     99  C19 non d ame      -6.098  19.058  69.254  0.00  0.00    -0.073 C 
ATOM    100  H27 non d ame      -6.278  19.090  70.329  0.00  0.00     0.028 H 
ATOM    101  H28 non d ame      -5.527  19.937  68.954  0.00  0.00     0.028 H 
ATOM    102  H29 non d ame      -7.050  19.047  68.724  0.00  0.00     0.028 H 
ENDBRANCH  93  99
ENDBRANCH  90  93
ENDBRANCH   1  90
TORSDOF 26
ENDMDL
MODEL 11
REMARK VINA RESULT:      -6.4      2.241      8.090
REMARK  26 active torsions:
REMARK  status: ('A' for Active; 'I' for Inactive)
REMARK    1  A    between atoms: C2_2  and  C3_3 
REMARK    2  A    between atoms: C4_6  and  C5_7 
REMARK       I    between atoms: C5_7  and  N2_9 
REMARK    3  A    between atoms: N2_9  and  C6_10 
REMARK    4  A    between atoms: C6_10  and  C7_11 
REMARK    5  A    between atoms: C6_10  and  C8_13 
REMARK       I    between atoms: C7_11  and  N3_14 
REMARK    6  A    between atoms: N3_14  and  C9_15 
REMARK    7  A    between atoms: C9_15  and  C10_16 
REMARK    8  A    between atoms: C9_15  and  C11_18 
REMARK       I    between atoms: C10_16  and  N4_21 
REMARK    9  A    between atoms: C11_18  and  C12_19 
REMARK   10  A    between atoms: C11_18  and  C13_20 
REMARK   11  A    between atoms: N4_21  and  C14_22 
REMARK   12  A    between atoms: C14_22  and  C15_23 
REMARK   13  A    between atoms: C14_22  and  C16_25 
REMARK       I    between atoms: C15_23  and  N6_40 
REMARK   14  A    between atoms: C16_25  and  C17_26 
REMARK   15  A    between atoms: C17_26  and  C18_27 
REMARK   16  A    between atoms: C17_26  and  C19_28 
REMARK   17  A    between atoms: C20_29  and  C21_30 
REMARK   18  A    between atoms: C20_29  and  C24_33 
REMARK   19  A    between atoms: C20_29  and  N6_40 
REMARK   20  A    between atoms: C21_30  and  C22_31 
REMARK   21  A    between atoms: C22_31  and  C23_32 
REMARK   22  A    between atoms: C23_32  and  O8_43 
REMARK   23  A    between atoms: C24_33  and  C25_34 
REMARK   24  A    between atoms: C28_38  and  O6_39 
REMARK   25  A    between atoms: C29_42  and  O8_43 
REMARK   26  A    between atoms: C29_42  and  C35_49 
ROOT
ATOM      1  C14 non d ame      -6.636  13.686  68.027  0.00  0.00     0.089 C 
ATOM      2  H20 non d ame      -5.875  13.560  67.256  0.00  0.00     0.087 H 
ENDROOT
BRANCH   1   3
ATOM      3  N4  non d ame      -6.940  15.106  68.115  0.00  0.00    -0.346 N 
ATOM      4  C10 non d ame      -5.944  16.130  67.629  0.00  0.00     0.241 C 
ATOM      5  O4  non d ame      -4.903  15.785  67.172  0.00  0.00    -0.271 OA
ATOM      6  H19 non d ame      -7.829  15.380  68.510  0.00  0.00     0.163 HD
BRANCH   4   7
ATOM      7  C9  non d ame      -6.275  17.596  67.723  0.00  0.00     0.092 C 
ATOM      8  H11 non d ame      -5.894  18.108  66.840  0.00  0.00     0.088 H 
BRANCH   7   9
ATOM      9  N3  non d ame      -7.732  17.768  67.728  0.00  0.00    -0.346 N 
ATOM     10  C7  non d ame      -8.440  17.950  66.486  0.00  0.00     0.240 C 
ATOM     11  O3  non d ame      -7.856  17.961  65.472  0.00  0.00    -0.271 OA
ATOM     12  H10 non d ame      -8.250  17.762  68.596  0.00  0.00     0.163 HD
BRANCH  10  13
ATOM     13  C6  non d ame      -9.990  18.136  66.499  0.00  0.00     0.086 C 
ATOM     14  H6  non d ame     -10.494  17.528  65.747  0.00  0.00     0.086 H 
BRANCH  13  15
ATOM     15  N2  non d ame     -10.505  17.712  67.790  0.00  0.00    -0.343 N 
ATOM     16  C5  non d ame     -11.014  16.348  67.952  0.00  0.00     0.273 C 
ATOM     17  O2  non d ame     -11.007  15.601  67.037  0.00  0.00    -0.266 OA
ATOM     18  H5  non d ame     -10.509  18.358  68.567  0.00  0.00     0.163 HD
BRANCH  16  19
ATOM     19  C4  non d ame     -11.560  15.886  69.312  0.00  0.00     0.154 A 
ATOM     20  C1  non d ame     -12.118  14.608  69.632  0.00  0.00    -0.017 A 
ATOM     21  C2  non d ame     -12.464  14.693  70.998  0.00  0.00     0.077 A 
ATOM     22  H1  non d ame     -12.250  13.749  68.973  0.00  0.00     0.091 H 
ATOM     23  O1  non d ame     -12.137  15.884  71.407  0.00  0.00    -0.218 OA
ATOM     24  N1  non d ame     -11.608  16.599  70.441  0.00  0.00    -0.123 NA
BRANCH  21  25
ATOM     25  C3  non d ame     -13.100  13.593  71.838  0.00  0.00    -0.029 C 
ATOM     26  H2  non d ame     -13.163  12.678  71.249  0.00  0.00     0.036 H 
ATOM     27  H3  non d ame     -12.492  13.414  72.723  0.00  0.00     0.036 H 
ATOM     28  H4  non d ame     -14.102  13.900  72.141  0.00  0.00     0.036 H 
ENDBRANCH  21  25
ENDBRANCH  16  19
ENDBRANCH  13  15
BRANCH  13  29
ATOM     29  C8  non d ame     -10.327  19.585  66.259  0.00  0.00    -0.049 C 
ATOM     30  H7  non d ame      -9.527  20.214  66.652  0.00  0.00     0.030 H 
ATOM     31  H8  non d ame     -10.436  19.762  65.190  0.00  0.00     0.030 H 
ATOM     32  H9  non d ame     -11.261  19.829  66.766  0.00  0.00     0.030 H 
ENDBRANCH  13  29
ENDBRANCH  10  13
ENDBRANCH   7   9
BRANCH   7  33
ATOM     33  C11 non d ame      -5.682  18.178  69.039  0.00  0.00    -0.033 C 
ATOM     34  H12 non d ame      -5.694  17.384  69.785  0.00  0.00     0.042 H 
BRANCH  33  35
ATOM     35  C12 non d ame      -4.197  18.620  68.847  0.00  0.00    -0.071 C 
ATOM     36  H13 non d ame      -4.141  19.708  68.833  0.00  0.00     0.028 H 
ATOM     37  H14 non d ame      -3.595  18.235  69.669  0.00  0.00     0.028 H 
ATOM     38  H15 non d ame      -3.822  18.225  67.904  0.00  0.00     0.028 H 
ENDBRANCH  33  35
BRANCH  33  39
ATOM     39  C13 non d ame      -6.558  19.357  69.574  0.00  0.00    -0.071 C 
ATOM     40  H16 non d ame      -7.472  19.425  68.986  0.00  0.00     0.028 H 
ATOM     41  H17 non d ame      -6.810  19.176  70.620  0.00  0.00     0.028 H 
ATOM     42  H18 non d ame      -6.001  20.290  69.492  0.00  0.00     0.028 H 
ENDBRANCH  33  39
ENDBRANCH   7  33
ENDBRANCH   4   7
ENDBRANCH   1   3
BRANCH   1  43
ATOM     43  C15 non d ame      -7.947  12.921  67.688  0.00  0.00     0.240 C 
ATOM     44  O5  non d ame      -8.972  13.252  68.191  0.00  0.00    -0.271 OA
ATOM     45  N6  non d ame      -7.927  11.780  66.728  0.00  0.00    -0.355 N 
ATOM     46  H46 non d ame      -7.064  11.493  66.291  0.00  0.00     0.162 HD
BRANCH  45  47
ATOM     47  C20 non d ame      -9.182  11.064  66.415  0.00  0.00     0.013 C 
ATOM     48  H30 non d ame     -10.003  11.598  66.895  0.00  0.00     0.072 H 
BRANCH  47  49
ATOM     49  C21 non d ame      -9.100   9.653  66.953  0.00  0.00    -0.038 C 
ATOM     50  H31 non d ame      -8.844   9.027  66.100  0.00  0.00     0.036 H 
ATOM     51  H32 non d ame      -8.432   9.704  67.813  0.00  0.00     0.036 H 
BRANCH  49  52
ATOM     52  C22 non d ame     -10.455   9.135  67.484  0.00  0.00     0.018 C 
ATOM     53  H33 non d ame     -10.592   9.607  68.457  0.00  0.00     0.048 H 
ATOM     54  H34 non d ame     -11.174   9.316  66.685  0.00  0.00     0.048 H 
BRANCH  52  55
ATOM     55  C23 non d ame     -10.481   7.603  67.744  0.00  0.00     0.259 C 
ATOM     56  O7  non d ame     -10.522   6.837  66.836  0.00  0.00    -0.265 OA
BRANCH  55  57
ATOM     57  O8  non d ame     -10.470   7.124  69.084  0.00  0.00    -0.317 OA
BRANCH  57  58
ATOM     58  C29 non d ame     -10.258   8.144  70.064  0.00  0.00     0.052 C 
ATOM     59  H47 non d ame      -9.531   7.734  70.764  0.00  0.00     0.082 H 
ATOM     60  H48 non d ame     -10.024   9.048  69.503  0.00  0.00     0.082 H 
BRANCH  58  61
ATOM     61  C35 non d ame     -11.596   8.368  70.819  0.00  0.00    -0.034 A 
ATOM     62  C30 non d ame     -12.441   7.293  71.074  0.00  0.00    -0.075 A 
ATOM     63  C31 non d ame     -13.642   7.494  71.751  0.00  0.00    -0.082 A 
ATOM     64  H49 non d ame     -12.161   6.292  70.743  0.00  0.00     0.084 H 
ATOM     65  C32 non d ame     -13.999   8.778  72.171  0.00  0.00    -0.083 A 
ATOM     66  H50 non d ame     -14.301   6.649  71.952  0.00  0.00     0.083 H 
ATOM     67  C33 non d ame     -13.155   9.849  71.911  0.00  0.00    -0.082 A 
ATOM     68  H51 non d ame     -14.937   8.944  72.703  0.00  0.00     0.083 H 
ATOM     69  C34 non d ame     -11.952   9.651  71.237  0.00  0.00    -0.075 A 
ATOM     70  H52 non d ame     -13.438  10.850  72.239  0.00  0.00     0.083 H 
ATOM     71  H53 non d ame     -11.293  10.498  71.038  0.00  0.00     0.084 H 
ENDBRANCH  58  61
ENDBRANCH  57  58
ENDBRANCH  55  57
ENDBRANCH  52  55
ENDBRANCH  49  52
ENDBRANCH  47  49
BRANCH  47  72
ATOM     72  C24 non d ame      -9.390  11.022  64.903  0.00  0.00    -0.039 C 
ATOM     73  H35 non d ame      -8.396  11.145  64.471  0.00  0.00     0.036 H 
ATOM     74  H36 non d ame      -9.957  10.110  64.713  0.00  0.00     0.036 H 
BRANCH  72  75
ATOM     75  C25 non d ame     -10.283  12.250  64.392  0.00  0.00    -0.001 C 
ATOM     76  C26 non d ame     -11.549  12.484  65.414  0.00  0.00    -0.035 C 
ATOM     77  C27 non d ame     -12.692  12.529  64.688  0.00  0.00     0.085 C 
ATOM     78  H38 non d ame     -11.685  11.609  66.048  0.00  0.00     0.036 H 
ATOM     79  H39 non d ame     -11.492  13.476  65.859  0.00  0.00     0.036 H 
ATOM     80  N5  non d ame     -12.358  12.020  63.306  0.00  0.00    -0.049 N 
ATOM     81  H40 non d ame     -13.372  11.825  65.170  0.00  0.00     0.075 H 
ATOM     82  H41 non d ame     -12.955  13.584  64.624  0.00  0.00     0.075 H 
ATOM     83  C28 non d ame     -10.747  12.030  63.207  0.00  0.00     0.193 C 
ATOM     84  H42 non d ame     -12.677  11.064  63.268  0.00  0.00     0.280 HD
ATOM     85  H43 non d ame     -12.723  12.701  62.655  0.00  0.00     0.280 HD
ATOM     86  H44 non d ame     -10.230  12.807  62.644  0.00  0.00     0.129 H 
ATOM     87  H37 non d ame      -9.679  13.122  64.142  0.00  0.00     0.046 H 
BRANCH  83  88
ATOM     88  O6  non d ame     -10.278  10.793  62.666  0.00  0.00    -0.369 OA
ATOM     89  H45 non d ame     -10.749  10.602  61.852  0.00  0.00     0.212 HD
ENDBRANCH  83  88
ENDBRANCH  72  75
ENDBRANCH  47  72
ENDBRANCH  45  47
ENDBRANCH   1  43
BRANCH   1  90
ATOM     90  C16 non d ame      -6.097  13.209  69.365  0.00  0.00    -0.035 C 
ATOM     91  H21 non d ame      -6.171  14.072  70.030  0.00  0.00     0.037 H 
ATOM     92  H22 non d ame      -6.651  12.299  69.592  0.00  0.00     0.037 H 
BRANCH  90  93
ATOM     93  C17 non d ame      -4.588  12.810  69.328  0.00  0.00    -0.059 C 
ATOM     94  H23 non d ame      -4.463  11.930  69.957  0.00  0.00     0.038 H 
BRANCH  93  95
ATOM     95  C18 non d ame      -4.112  12.437  67.887  0.00  0.00    -0.073 C 
ATOM     96  H24 non d ame      -4.441  13.205  67.186  0.00  0.00     0.028 H 
ATOM     97  H25 non d ame      -3.025  12.371  67.870  0.00  0.00     0.028 H 
ATOM     98  H26 non d ame      -4.540  11.476  67.601  0.00  0.00     0.028 H 
ENDBRANCH  93  95
BRANCH  93  99
ATOM     99  C19 non d ame      -3.713  13.919  69.920  0.00  0.00    -0.073 C 
ATOM    100  H27 non d ame      -3.165  14.416  69.119  0.00  0.00     0.028 H 
ATOM    101  H28 non d ame      -4.346  14.644  70.432  0.00  0.00     0.028 H 
ATOM    102  H29 non d ame      -3.009  13.487  70.630  0.00  0.00     0.028 H 
ENDBRANCH  93  99
ENDBRANCH  90  93
ENDBRANCH   1  90
TORSDOF 26
ENDMDL
MODEL 12
REMARK VINA RESULT:      -6.3      2.286      8.245
REMARK  26 active torsions:
REMARK  status: ('A' for Active; 'I' for Inactive)
REMARK    1  A    between atoms: C2_2  and  C3_3 
REMARK    2  A    between atoms: C4_6  and  C5_7 
REMARK       I    between atoms: C5_7  and  N2_9 
REMARK    3  A    between atoms: N2_9  and  C6_10 
REMARK    4  A    between atoms: C6_10  and  C7_11 
REMARK    5  A    between atoms: C6_10  and  C8_13 
REMARK       I    between atoms: C7_11  and  N3_14 
REMARK    6  A    between atoms: N3_14  and  C9_15 
REMARK    7  A    between atoms: C9_15  and  C10_16 
REMARK    8  A    between atoms: C9_15  and  C11_18 
REMARK       I    between atoms: C10_16  and  N4_21 
REMARK    9  A    between atoms: C11_18  and  C12_19 
REMARK   10  A    between atoms: C11_18  and  C13_20 
REMARK   11  A    between atoms: N4_21  and  C14_22 
REMARK   12  A    between atoms: C14_22  and  C15_23 
REMARK   13  A    between atoms: C14_22  and  C16_25 
REMARK       I    between atoms: C15_23  and  N6_40 
REMARK   14  A    between atoms: C16_25  and  C17_26 
REMARK   15  A    between atoms: C17_26  and  C18_27 
REMARK   16  A    between atoms: C17_26  and  C19_28 
REMARK   17  A    between atoms: C20_29  and  C21_30 
REMARK   18  A    between atoms: C20_29  and  C24_33 
REMARK   19  A    between atoms: C20_29  and  N6_40 
REMARK   20  A    between atoms: C21_30  and  C22_31 
REMARK   21  A    between atoms: C22_31  and  C23_32 
REMARK   22  A    between atoms: C23_32  and  O8_43 
REMARK   23  A    between atoms: C24_33  and  C25_34 
REMARK   24  A    between atoms: C28_38  and  O6_39 
REMARK   25  A    between atoms: C29_42  and  O8_43 
REMARK   26  A    between atoms: C29_42  and  C35_49 
ROOT
ATOM      1  C14 non d ame      -6.523  16.271  68.073  0.00  0.00     0.089 C 
ATOM      2  H20 non d ame      -5.927  16.892  67.403  0.00  0.00     0.087 H 
ENDROOT
BRANCH   1   3
ATOM      3  N4  non d ame      -7.919  16.430  67.691  0.00  0.00    -0.346 N 
ATOM      4  C10 non d ame      -8.285  17.191  66.441  0.00  0.00     0.241 C 
ATOM      5  O4  non d ame      -7.438  17.669  65.760  0.00  0.00    -0.271 OA
ATOM      6  H19 non d ame      -8.625  16.018  68.285  0.00  0.00     0.163 HD
BRANCH   4   7
ATOM      7  C9  non d ame      -9.733  17.341  66.058  0.00  0.00     0.092 C 
ATOM      8  H11 non d ame      -9.800  17.867  65.105  0.00  0.00     0.088 H 
BRANCH   7   9
ATOM      9  N3  non d ame     -10.328  16.015  65.862  0.00  0.00    -0.346 N 
ATOM     10  C7  non d ame     -11.233  15.786  64.764  0.00  0.00     0.240 C 
ATOM     11  O3  non d ame     -11.497  16.657  64.028  0.00  0.00    -0.271 OA
ATOM     12  H10 non d ame     -10.110  15.253  66.489  0.00  0.00     0.163 HD
BRANCH  10  13
ATOM     13  C6  non d ame     -11.865  14.373  64.563  0.00  0.00     0.086 C 
ATOM     14  H6  non d ame     -12.464  14.304  63.655  0.00  0.00     0.086 H 
BRANCH  13  15
ATOM     15  N2  non d ame     -10.797  13.395  64.431  0.00  0.00    -0.343 N 
ATOM     16  C5  non d ame     -11.042  12.154  63.693  0.00  0.00     0.273 C 
ATOM     17  O2  non d ame     -12.102  11.951  63.211  0.00  0.00    -0.266 OA
ATOM     18  H5  non d ame      -9.895  13.575  64.848  0.00  0.00     0.163 HD
BRANCH  16  19
ATOM     19  C4  non d ame      -9.923  11.112  63.545  0.00  0.00     0.154 A 
ATOM     20  C1  non d ame      -8.964  11.017  62.487  0.00  0.00    -0.017 A 
ATOM     21  C2  non d ame      -8.165   9.900  62.820  0.00  0.00     0.077 A 
ATOM     22  H1  non d ame      -8.862  11.660  61.613  0.00  0.00     0.091 H 
ATOM     23  O1  non d ame      -8.619   9.419  63.940  0.00  0.00    -0.218 OA
ATOM     24  N1  non d ame      -9.645  10.109  64.383  0.00  0.00    -0.123 NA
BRANCH  21  25
ATOM     25  C3  non d ame      -6.989   9.362  62.016  0.00  0.00    -0.029 C 
ATOM     26  H2  non d ame      -6.395   8.696  62.642  0.00  0.00     0.036 H 
ATOM     27  H3  non d ame      -7.360   8.812  61.152  0.00  0.00     0.036 H 
ATOM     28  H4  non d ame      -6.368  10.193  61.678  0.00  0.00     0.036 H 
ENDBRANCH  21  25
ENDBRANCH  16  19
ENDBRANCH  13  15
BRANCH  13  29
ATOM     29  C8  non d ame     -12.733  14.033  65.747  0.00  0.00    -0.049 C 
ATOM     30  H7  non d ame     -12.283  14.438  66.655  0.00  0.00     0.030 H 
ATOM     31  H8  non d ame     -13.723  14.466  65.609  0.00  0.00     0.030 H 
ATOM     32  H9  non d ame     -12.817  12.950  65.837  0.00  0.00     0.030 H 
ENDBRANCH  13  29
ENDBRANCH  10  13
ENDBRANCH   7   9
BRANCH   7  33
ATOM     33  C11 non d ame     -10.495  18.086  67.193  0.00  0.00    -0.033 C 
ATOM     34  H12 non d ame     -11.460  18.395  66.793  0.00  0.00     0.042 H 
BRANCH  33  35
ATOM     35  C12 non d ame     -10.770  17.144  68.406  0.00  0.00    -0.071 C 
ATOM     36  H13 non d ame      -9.909  16.494  68.564  0.00  0.00     0.028 H 
ATOM     37  H14 non d ame     -10.941  17.743  69.300  0.00  0.00     0.028 H 
ATOM     38  H15 non d ame     -11.650  16.536  68.201  0.00  0.00     0.028 H 
ENDBRANCH  33  35
BRANCH  33  39
ATOM     39  C13 non d ame      -9.722  19.369  67.637  0.00  0.00    -0.071 C 
ATOM     40  H16 non d ame      -8.808  19.463  67.052  0.00  0.00     0.028 H 
ATOM     41  H17 non d ame     -10.350  20.246  67.473  0.00  0.00     0.028 H 
ATOM     42  H18 non d ame      -9.471  19.295  68.695  0.00  0.00     0.028 H 
ENDBRANCH  33  39
ENDBRANCH   7  33
ENDBRANCH   4   7
ENDBRANCH   1   3
BRANCH   1  43
ATOM     43  C15 non d ame      -6.150  14.765  67.967  0.00  0.00     0.240 C 
ATOM     44  O5  non d ame      -5.206  14.433  67.327  0.00  0.00    -0.271 OA
ATOM     45  N6  non d ame      -6.966  13.736  68.673  0.00  0.00    -0.355 N 
ATOM     46  H46 non d ame      -7.768  14.006  69.223  0.00  0.00     0.162 HD
BRANCH  45  47
ATOM     47  C20 non d ame      -6.598  12.308  68.563  0.00  0.00     0.013 C 
ATOM     48  H30 non d ame      -5.672  12.242  67.993  0.00  0.00     0.072 H 
BRANCH  47  49
ATOM     49  C21 non d ame      -7.700  11.561  67.846  0.00  0.00    -0.038 C 
ATOM     50  H31 non d ame      -7.833  12.075  66.895  0.00  0.00     0.036 H 
ATOM     51  H32 non d ame      -7.402  10.512  67.861  0.00  0.00     0.036 H 
BRANCH  49  52
ATOM     52  C22 non d ame      -9.055  11.642  68.580  0.00  0.00     0.018 C 
ATOM     53  H33 non d ame      -9.543  10.681  68.409  0.00  0.00     0.048 H 
ATOM     54  H34 non d ame      -8.823  11.960  69.596  0.00  0.00     0.048 H 
BRANCH  52  55
ATOM     55  C23 non d ame     -10.017  12.718  68.003  0.00  0.00     0.259 C 
ATOM     56  O7  non d ame      -9.607  13.568  67.282  0.00  0.00    -0.265 OA
BRANCH  55  57
ATOM     57  O8  non d ame     -11.394  12.684  68.359  0.00  0.00    -0.317 OA
BRANCH  57  58
ATOM     58  C29 non d ame     -11.652  12.078  69.630  0.00  0.00     0.052 C 
ATOM     59  H47 non d ame     -12.339  11.257  69.431  0.00  0.00     0.082 H 
ATOM     60  H48 non d ame     -10.673  11.877  70.064  0.00  0.00     0.082 H 
BRANCH  58  61
ATOM     61  C35 non d ame     -12.377  13.123  70.519  0.00  0.00    -0.034 A 
ATOM     62  C30 non d ame     -12.316  14.475  70.198  0.00  0.00    -0.075 A 
ATOM     63  C31 non d ame     -12.969  15.413  70.997  0.00  0.00    -0.082 A 
ATOM     64  H49 non d ame     -11.759  14.800  69.319  0.00  0.00     0.084 H 
ATOM     65  C32 non d ame     -13.681  14.994  72.124  0.00  0.00    -0.083 A 
ATOM     66  H50 non d ame     -12.922  16.471  70.741  0.00  0.00     0.083 H 
ATOM     67  C33 non d ame     -13.736  13.644  72.444  0.00  0.00    -0.082 A 
ATOM     68  H51 non d ame     -14.194  15.721  72.754  0.00  0.00     0.083 H 
ATOM     69  C34 non d ame     -13.087  12.703  71.646  0.00  0.00    -0.075 A 
ATOM     70  H52 non d ame     -14.291  13.321  73.325  0.00  0.00     0.083 H 
ATOM     71  H53 non d ame     -13.137  11.644  71.903  0.00  0.00     0.084 H 
ENDBRANCH  58  61
ENDBRANCH  57  58
ENDBRANCH  55  57
ENDBRANCH  52  55
ENDBRANCH  49  52
ENDBRANCH  47  49
BRANCH  47  72
ATOM     72  C24 non d ame      -6.405  11.716  69.958  0.00  0.00    -0.039 C 
ATOM     73  H35 non d ame      -6.170  12.564  70.602  0.00  0.00     0.036 H 
ATOM     74  H36 non d ame      -7.299  11.121  70.147  0.00  0.00     0.036 H 
BRANCH  72  75
ATOM     75  C25 non d ame      -5.153  10.720  70.012  0.00  0.00    -0.001 C 
ATOM     76  C26 non d ame      -4.527  10.526  68.504  0.00  0.00    -0.035 C 
ATOM     77  C27 non d ame      -4.415   9.200  68.246  0.00  0.00     0.085 C 
ATOM     78  H38 non d ame      -5.239  10.872  67.756  0.00  0.00     0.036 H 
ATOM     79  H39 non d ame      -3.495  10.877  68.479  0.00  0.00     0.036 H 
ATOM     80  N5  non d ame      -5.210   8.476  69.306  0.00  0.00    -0.049 N 
ATOM     81  H40 non d ame      -4.894   9.051  67.278  0.00  0.00     0.075 H 
ATOM     82  H41 non d ame      -3.358   8.967  68.373  0.00  0.00     0.075 H 
ATOM     83  C28 non d ame      -5.495   9.560  70.467  0.00  0.00     0.193 C 
ATOM     84  H42 non d ame      -6.089   8.221  68.880  0.00  0.00     0.280 HD
ATOM     85  H43 non d ame      -4.603   7.759  69.679  0.00  0.00     0.280 HD
ATOM     86  H44 non d ame      -4.931   9.538  71.398  0.00  0.00     0.129 H 
ATOM     87  H37 non d ame      -4.455  10.977  70.810  0.00  0.00     0.046 H 
BRANCH  83  88
ATOM     88  O6  non d ame      -6.870   9.519  70.853  0.00  0.00    -0.369 OA
ATOM     89  H45 non d ame      -6.961   9.002  71.657  0.00  0.00     0.212 HD
ENDBRANCH  83  88
ENDBRANCH  72  75
ENDBRANCH  47  72
ENDBRANCH  45  47
ENDBRANCH   1  43
BRANCH   1  90
ATOM     90  C16 non d ame      -6.345  16.743  69.507  0.00  0.00    -0.035 C 
ATOM     91  H21 non d ame      -7.347  17.001  69.853  0.00  0.00     0.037 H 
ATOM     92  H22 non d ame      -5.785  15.952  70.003  0.00  0.00     0.037 H 
BRANCH  90  93
ATOM     93  C17 non d ame      -5.486  18.041  69.637  0.00  0.00    -0.059 C 
ATOM     94  H23 non d ame      -4.515  17.842  69.185  0.00  0.00     0.038 H 
BRANCH  93  95
ATOM     95  C18 non d ame      -6.125  19.249  68.881  0.00  0.00    -0.073 C 
ATOM     96  H24 non d ame      -7.206  19.118  68.835  0.00  0.00     0.028 H 
ATOM     97  H25 non d ame      -5.893  20.173  69.411  0.00  0.00     0.028 H 
ATOM     98  H26 non d ame      -5.721  19.299  67.870  0.00  0.00     0.028 H 
ENDBRANCH  93  95
BRANCH  93  99
ATOM     99  C19 non d ame      -5.239  18.388  71.108  0.00  0.00    -0.073 C 
ATOM    100  H27 non d ame      -4.686  17.578  71.584  0.00  0.00     0.028 H 
ATOM    101  H28 non d ame      -4.660  19.310  71.170  0.00  0.00     0.028 H 
ATOM    102  H29 non d ame      -6.194  18.525  71.615  0.00  0.00     0.028 H 
ENDBRANCH  93  99
ENDBRANCH  90  93
ENDBRANCH   1  90
TORSDOF 26
ENDMDL
MODEL 13
REMARK VINA RESULT:      -6.3      1.931      2.741
REMARK  26 active torsions:
REMARK  status: ('A' for Active; 'I' for Inactive)
REMARK    1  A    between atoms: C2_2  and  C3_3 
REMARK    2  A    between atoms: C4_6  and  C5_7 
REMARK       I    between atoms: C5_7  and  N2_9 
REMARK    3  A    between atoms: N2_9  and  C6_10 
REMARK    4  A    between atoms: C6_10  and  C7_11 
REMARK    5  A    between atoms: C6_10  and  C8_13 
REMARK       I    between atoms: C7_11  and  N3_14 
REMARK    6  A    between atoms: N3_14  and  C9_15 
REMARK    7  A    between atoms: C9_15  and  C10_16 
REMARK    8  A    between atoms: C9_15  and  C11_18 
REMARK       I    between atoms: C10_16  and  N4_21 
REMARK    9  A    between atoms: C11_18  and  C12_19 
REMARK   10  A    between atoms: C11_18  and  C13_20 
REMARK   11  A    between atoms: N4_21  and  C14_22 
REMARK   12  A    between atoms: C14_22  and  C15_23 
REMARK   13  A    between atoms: C14_22  and  C16_25 
REMARK       I    between atoms: C15_23  and  N6_40 
REMARK   14  A    between atoms: C16_25  and  C17_26 
REMARK   15  A    between atoms: C17_26  and  C18_27 
REMARK   16  A    between atoms: C17_26  and  C19_28 
REMARK   17  A    between atoms: C20_29  and  C21_30 
REMARK   18  A    between atoms: C20_29  and  C24_33 
REMARK   19  A    between atoms: C20_29  and  N6_40 
REMARK   20  A    between atoms: C21_30  and  C22_31 
REMARK   21  A    between atoms: C22_31  and  C23_32 
REMARK   22  A    between atoms: C23_32  and  O8_43 
REMARK   23  A    between atoms: C24_33  and  C25_34 
REMARK   24  A    between atoms: C28_38  and  O6_39 
REMARK   25  A    between atoms: C29_42  and  O8_43 
REMARK   26  A    between atoms: C29_42  and  C35_49 
ROOT
ATOM      1  C14 non d ame     -12.243  14.869  70.693  0.00  0.00     0.089 C 
ATOM      2  H20 non d ame     -13.324  15.001  70.755  0.00  0.00     0.087 H 
ENDROOT
BRANCH   1   3
ATOM      3  N4  non d ame     -11.993  13.488  70.309  0.00  0.00    -0.346 N 
ATOM      4  C10 non d ame     -12.707  12.360  71.012  0.00  0.00     0.241 C 
ATOM      5  O4  non d ame     -13.477  12.590  71.886  0.00  0.00    -0.271 OA
ATOM      6  H19 non d ame     -11.332  13.313  69.566  0.00  0.00     0.163 HD
BRANCH   4   7
ATOM      7  C9  non d ame     -12.440  10.937  70.599  0.00  0.00     0.092 C 
ATOM      8  H11 non d ame     -13.077  10.683  69.752  0.00  0.00     0.088 H 
BRANCH   7   9
ATOM      9  N3  non d ame     -11.050  10.811  70.148  0.00  0.00    -0.346 N 
ATOM     10  C7  non d ame     -10.762  10.617  68.749  0.00  0.00     0.240 C 
ATOM     11  O3  non d ame     -11.635  10.558  67.971  0.00  0.00    -0.271 OA
ATOM     12  H10 non d ame     -10.286  10.859  70.807  0.00  0.00     0.163 HD
BRANCH  10  13
ATOM     13  C6  non d ame      -9.281  10.481  68.275  0.00  0.00     0.086 C 
ATOM     14  H6  non d ame      -9.121  10.880  67.273  0.00  0.00     0.086 H 
BRANCH  13  15
ATOM     15  N2  non d ame      -8.428  11.247  69.169  0.00  0.00    -0.343 N 
ATOM     16  C5  non d ame      -7.064  11.582  68.754  0.00  0.00     0.273 C 
ATOM     17  O2  non d ame      -6.662  11.227  67.702  0.00  0.00    -0.266 OA
ATOM     18  H5  non d ame      -8.780  11.543  70.068  0.00  0.00     0.163 HD
BRANCH  16  19
ATOM     19  C4  non d ame      -6.153  12.392  69.689  0.00  0.00     0.154 A 
ATOM     20  C1  non d ame      -5.459  13.605  69.383  0.00  0.00    -0.017 A 
ATOM     21  C2  non d ame      -4.769  13.939  70.569  0.00  0.00     0.077 A 
ATOM     22  H1  non d ame      -5.457  14.159  68.444  0.00  0.00     0.091 H 
ATOM     23  O1  non d ame      -5.043  13.020  71.448  0.00  0.00    -0.218 OA
ATOM     24  N1  non d ame      -5.848  12.106  70.958  0.00  0.00    -0.123 NA
BRANCH  21  25
ATOM     25  C3  non d ame      -3.872  15.152  70.780  0.00  0.00    -0.029 C 
ATOM     26  H2  non d ame      -2.834  14.872  70.603  0.00  0.00     0.036 H 
ATOM     27  H3  non d ame      -4.160  15.941  70.086  0.00  0.00     0.036 H 
ATOM     28  H4  non d ame      -3.982  15.512  71.804  0.00  0.00     0.036 H 
ENDBRANCH  21  25
ENDBRANCH  16  19
ENDBRANCH  13  15
BRANCH  13  29
ATOM     29  C8  non d ame      -8.876   9.029  68.292  0.00  0.00    -0.049 C 
ATOM     30  H7  non d ame      -8.288   8.827  69.188  0.00  0.00     0.030 H 
ATOM     31  H8  non d ame      -9.767   8.402  68.293  0.00  0.00     0.030 H 
ATOM     32  H9  non d ame      -8.276   8.809  67.409  0.00  0.00     0.030 H 
ENDBRANCH  13  29
ENDBRANCH  10  13
ENDBRANCH   7   9
BRANCH   7  33
ATOM     33  C11 non d ame     -12.675   9.992  71.814  0.00  0.00    -0.033 C 
ATOM     34  H12 non d ame     -12.753  10.613  72.704  0.00  0.00     0.042 H 
BRANCH  33  35
ATOM     35  C12 non d ame     -14.016   9.205  71.670  0.00  0.00    -0.071 C 
ATOM     36  H13 non d ame     -14.513   9.500  70.746  0.00  0.00     0.028 H 
ATOM     37  H14 non d ame     -13.809   8.136  71.647  0.00  0.00     0.028 H 
ATOM     38  H15 non d ame     -14.661   9.433  72.518  0.00  0.00     0.028 H 
ENDBRANCH  33  35
BRANCH  33  39
ATOM     39  C13 non d ame     -11.467   9.019  72.008  0.00  0.00    -0.071 C 
ATOM     40  H16 non d ame     -11.289   8.472  71.082  0.00  0.00     0.028 H 
ATOM     41  H17 non d ame     -10.577   9.593  72.268  0.00  0.00     0.028 H 
ATOM     42  H18 non d ame     -11.693   8.315  72.809  0.00  0.00     0.028 H 
ENDBRANCH  33  39
ENDBRANCH   7  33
ENDBRANCH   4   7
ENDBRANCH   1   3
BRANCH   1  43
ATOM     43  C15 non d ame     -11.597  15.802  69.630  0.00  0.00     0.240 C 
ATOM     44  O5  non d ame     -12.196  16.076  68.641  0.00  0.00    -0.271 OA
ATOM     45  N6  non d ame     -10.233  16.363  69.849  0.00  0.00    -0.355 N 
ATOM     46  H46 non d ame      -9.716  16.140  70.687  0.00  0.00     0.162 HD
BRANCH  45  47
ATOM     47  C20 non d ame      -9.633  17.249  68.829  0.00  0.00     0.013 C 
ATOM     48  H30 non d ame     -10.231  17.170  67.921  0.00  0.00     0.072 H 
BRANCH  47  49
ATOM     49  C21 non d ame      -8.214  16.805  68.553  0.00  0.00    -0.038 C 
ATOM     50  H31 non d ame      -7.589  17.674  68.754  0.00  0.00     0.036 H 
ATOM     51  H32 non d ame      -8.075  15.888  69.127  0.00  0.00     0.036 H 
BRANCH  49  52
ATOM     52  C22 non d ame      -7.981  16.433  67.072  0.00  0.00     0.018 C 
ATOM     53  H33 non d ame      -8.519  17.183  66.491  0.00  0.00     0.048 H 
ATOM     54  H34 non d ame      -6.902  16.329  66.960  0.00  0.00     0.048 H 
BRANCH  52  55
ATOM     55  C23 non d ame      -8.589  15.061  66.667  0.00  0.00     0.259 C 
ATOM     56  O7  non d ame      -7.922  14.078  66.685  0.00  0.00    -0.265 OA
BRANCH  55  57
ATOM     57  O8  non d ame      -9.950  14.995  66.261  0.00  0.00    -0.317 OA
BRANCH  57  58
ATOM     58  C29 non d ame     -10.632  13.817  66.701  0.00  0.00     0.052 C 
ATOM     59  H47 non d ame      -9.917  13.276  67.318  0.00  0.00     0.082 H 
ATOM     60  H48 non d ame     -11.571  14.164  67.131  0.00  0.00     0.082 H 
BRANCH  58  61
ATOM     61  C35 non d ame     -10.954  12.955  65.451  0.00  0.00    -0.034 A 
ATOM     62  C30 non d ame     -12.088  13.225  64.691  0.00  0.00    -0.075 A 
ATOM     63  C31 non d ame     -12.376  12.451  63.568  0.00  0.00    -0.082 A 
ATOM     64  H49 non d ame     -12.750  14.043  64.975  0.00  0.00     0.084 H 
ATOM     65  C32 non d ame     -11.528  11.401  63.208  0.00  0.00    -0.083 A 
ATOM     66  H50 non d ame     -13.264  12.667  62.973  0.00  0.00     0.083 H 
ATOM     67  C33 non d ame     -10.399  11.133  63.971  0.00  0.00    -0.082 A 
ATOM     68  H51 non d ame     -11.746  10.791  62.331  0.00  0.00     0.083 H 
ATOM     69  C34 non d ame     -10.106  11.906  65.092  0.00  0.00    -0.075 A 
ATOM     70  H52 non d ame      -9.740  10.311  63.687  0.00  0.00     0.083 H 
ATOM     71  H53 non d ame      -9.217  11.690  65.686  0.00  0.00     0.084 H 
ENDBRANCH  58  61
ENDBRANCH  57  58
ENDBRANCH  55  57
ENDBRANCH  52  55
ENDBRANCH  49  52
ENDBRANCH  47  49
BRANCH  47  72
ATOM     72  C24 non d ame      -9.627  18.689  69.337  0.00  0.00    -0.039 C 
ATOM     73  H35 non d ame     -10.370  18.719  70.134  0.00  0.00     0.036 H 
ATOM     74  H36 non d ame      -8.583  18.915  69.558  0.00  0.00     0.036 H 
BRANCH  72  75
ATOM     75  C25 non d ame     -10.105  19.719  68.207  0.00  0.00    -0.001 C 
ATOM     76  C26 non d ame     -10.850  18.905  66.987  0.00  0.00    -0.035 C 
ATOM     77  C27 non d ame     -10.292  19.278  65.810  0.00  0.00     0.085 C 
ATOM     78  H38 non d ame     -10.621  17.842  67.053  0.00  0.00     0.036 H 
ATOM     79  H39 non d ame     -11.884  19.236  66.894  0.00  0.00     0.036 H 
ATOM     80  N5  non d ame      -9.019  20.021  66.141  0.00  0.00    -0.049 N 
ATOM     81  H40 non d ame     -10.038  18.347  65.301  0.00  0.00     0.075 H 
ATOM     82  H41 non d ame     -11.000  19.971  65.359  0.00  0.00     0.075 H 
ATOM     83  C28 non d ame      -9.105  20.371  67.714  0.00  0.00     0.193 C 
ATOM     84  H42 non d ame      -8.262  19.369  65.997  0.00  0.00     0.280 HD
ATOM     85  H43 non d ame      -9.048  20.884  65.617  0.00  0.00     0.280 HD
ATOM     86  H44 non d ame      -9.344  21.381  68.045  0.00  0.00     0.129 H 
ATOM     87  H37 non d ame     -10.632  20.576  68.626  0.00  0.00     0.046 H 
BRANCH  83  88
ATOM     88  O6  non d ame      -7.875  20.040  68.361  0.00  0.00    -0.369 OA
ATOM     89  H45 non d ame      -8.050  19.785  69.270  0.00  0.00     0.212 HD
ENDBRANCH  83  88
ENDBRANCH  72  75
ENDBRANCH  47  72
ENDBRANCH  45  47
ENDBRANCH   1  43
BRANCH   1  90
ATOM     90  C16 non d ame     -11.614  15.128  72.052  0.00  0.00    -0.035 C 
ATOM     91  H21 non d ame     -11.493  14.144  72.506  0.00  0.00     0.037 H 
ATOM     92  H22 non d ame     -10.739  15.746  71.851  0.00  0.00     0.037 H 
BRANCH  90  93
ATOM     93  C17 non d ame     -12.524  15.951  73.018  0.00  0.00    -0.059 C 
ATOM     94  H23 non d ame     -12.192  16.988  72.981  0.00  0.00     0.038 H 
BRANCH  93  95
ATOM     95  C18 non d ame     -14.025  15.916  72.587  0.00  0.00    -0.073 C 
ATOM     96  H24 non d ame     -14.403  16.935  72.504  0.00  0.00     0.028 H 
ATOM     97  H25 non d ame     -14.114  15.416  71.623  0.00  0.00     0.028 H 
ATOM     98  H26 non d ame     -14.604  15.372  73.334  0.00  0.00     0.028 H 
ENDBRANCH  93  95
BRANCH  93  99
ATOM     99  C19 non d ame     -12.361  15.473  74.464  0.00  0.00    -0.073 C 
ATOM    100  H27 non d ame     -12.291  14.385  74.480  0.00  0.00     0.028 H 
ATOM    101  H28 non d ame     -11.452  15.903  74.887  0.00  0.00     0.028 H 
ATOM    102  H29 non d ame     -13.221  15.792  75.051  0.00  0.00     0.028 H 
ENDBRANCH  93  99
ENDBRANCH  90  93
ENDBRANCH   1  90
TORSDOF 26
ENDMDL
MODEL 14
REMARK VINA RESULT:      -6.3      3.100      7.794
REMARK  26 active torsions:
REMARK  status: ('A' for Active; 'I' for Inactive)
REMARK    1  A    between atoms: C2_2  and  C3_3 
REMARK    2  A    between atoms: C4_6  and  C5_7 
REMARK       I    between atoms: C5_7  and  N2_9 
REMARK    3  A    between atoms: N2_9  and  C6_10 
REMARK    4  A    between atoms: C6_10  and  C7_11 
REMARK    5  A    between atoms: C6_10  and  C8_13 
REMARK       I    between atoms: C7_11  and  N3_14 
REMARK    6  A    between atoms: N3_14  and  C9_15 
REMARK    7  A    between atoms: C9_15  and  C10_16 
REMARK    8  A    between atoms: C9_15  and  C11_18 
REMARK       I    between atoms: C10_16  and  N4_21 
REMARK    9  A    between atoms: C11_18  and  C12_19 
REMARK   10  A    between atoms: C11_18  and  C13_20 
REMARK   11  A    between atoms: N4_21  and  C14_22 
REMARK   12  A    between atoms: C14_22  and  C15_23 
REMARK   13  A    between atoms: C14_22  and  C16_25 
REMARK       I    between atoms: C15_23  and  N6_40 
REMARK   14  A    between atoms: C16_25  and  C17_26 
REMARK   15  A    between atoms: C17_26  and  C18_27 
REMARK   16  A    between atoms: C17_26  and  C19_28 
REMARK   17  A    between atoms: C20_29  and  C21_30 
REMARK   18  A    between atoms: C20_29  and  C24_33 
REMARK   19  A    between atoms: C20_29  and  N6_40 
REMARK   20  A    between atoms: C21_30  and  C22_31 
REMARK   21  A    between atoms: C22_31  and  C23_32 
REMARK   22  A    between atoms: C23_32  and  O8_43 
REMARK   23  A    between atoms: C24_33  and  C25_34 
REMARK   24  A    between atoms: C28_38  and  O6_39 
REMARK   25  A    between atoms: C29_42  and  O8_43 
REMARK   26  A    between atoms: C29_42  and  C35_49 
ROOT
ATOM      1  C14 non d ame     -10.098  10.177  64.435  0.00  0.00     0.089 C 
ATOM      2  H20 non d ame     -10.897   9.468  64.657  0.00  0.00     0.087 H 
ENDROOT
BRANCH   1   3
ATOM      3  N4  non d ame      -9.532  10.611  65.703  0.00  0.00    -0.346 N 
ATOM      4  C10 non d ame     -10.013  10.005  66.999  0.00  0.00     0.241 C 
ATOM      5  O4  non d ame     -10.859   9.172  66.994  0.00  0.00    -0.271 OA
ATOM      6  H19 non d ame      -8.816  11.323  65.686  0.00  0.00     0.163 HD
BRANCH   4   7
ATOM      7  C9  non d ame      -9.413  10.462  68.302  0.00  0.00     0.092 C 
ATOM      8  H11 non d ame      -8.326  10.452  68.220  0.00  0.00     0.088 H 
BRANCH   7   9
ATOM      9  N3  non d ame      -9.814  11.848  68.566  0.00  0.00    -0.346 N 
ATOM     10  C7  non d ame      -9.083  12.936  67.967  0.00  0.00     0.240 C 
ATOM     11  O3  non d ame      -8.169  12.717  67.270  0.00  0.00    -0.271 OA
ATOM     12  H10 non d ame     -10.601  12.053  69.167  0.00  0.00     0.163 HD
BRANCH  10  13
ATOM     13  C6  non d ame      -9.513  14.408  68.255  0.00  0.00     0.086 C 
ATOM     14  H6  non d ame     -10.299  14.757  67.585  0.00  0.00     0.086 H 
BRANCH  13  15
ATOM     15  N2  non d ame     -10.051  14.487  69.603  0.00  0.00    -0.343 N 
ATOM     16  C5  non d ame     -11.495  14.638  69.796  0.00  0.00     0.273 C 
ATOM     17  O2  non d ame     -12.214  14.699  68.861  0.00  0.00    -0.266 OA
ATOM     18  H5  non d ame      -9.429  14.438  70.397  0.00  0.00     0.163 HD
BRANCH  16  19
ATOM     19  C4  non d ame     -12.077  14.722  71.216  0.00  0.00     0.154 A 
ATOM     20  C1  non d ame     -11.647  15.580  72.278  0.00  0.00    -0.017 A 
ATOM     21  C2  non d ame     -12.499  15.271  73.362  0.00  0.00     0.077 A 
ATOM     22  H1  non d ame     -10.842  16.314  72.264  0.00  0.00     0.091 H 
ATOM     23  O1  non d ame     -13.319  14.345  72.959  0.00  0.00    -0.218 OA
ATOM     24  N1  non d ame     -13.093  14.008  71.710  0.00  0.00    -0.123 NA
BRANCH  21  25
ATOM     25  C3  non d ame     -12.464  15.906  74.745  0.00  0.00    -0.029 C 
ATOM     26  H2  non d ame     -11.740  16.721  74.753  0.00  0.00     0.036 H 
ATOM     27  H3  non d ame     -13.451  16.296  74.992  0.00  0.00     0.036 H 
ATOM     28  H4  non d ame     -12.174  15.157  75.483  0.00  0.00     0.036 H 
ENDBRANCH  21  25
ENDBRANCH  16  19
ENDBRANCH  13  15
BRANCH  13  29
ATOM     29  C8  non d ame      -8.319  15.319  68.122  0.00  0.00    -0.049 C 
ATOM     30  H7  non d ame      -8.251  15.959  69.002  0.00  0.00     0.030 H 
ATOM     31  H8  non d ame      -7.413  14.721  68.036  0.00  0.00     0.030 H 
ATOM     32  H9  non d ame      -8.433  15.938  67.232  0.00  0.00     0.030 H 
ENDBRANCH  13  29
ENDBRANCH  10  13
ENDBRANCH   7   9
BRANCH   7  33
ATOM     33  C11 non d ame      -9.922   9.548  69.455  0.00  0.00    -0.033 C 
ATOM     34  H12 non d ame     -10.307   8.635  69.006  0.00  0.00     0.042 H 
BRANCH  33  35
ATOM     35  C12 non d ame      -8.759   9.145  70.416  0.00  0.00    -0.071 C 
ATOM     36  H13 non d ame      -8.071   9.983  70.526  0.00  0.00     0.028 H 
ATOM     37  H14 non d ame      -9.168   8.880  71.390  0.00  0.00     0.028 H 
ATOM     38  H15 non d ame      -8.226   8.291  70.000  0.00  0.00     0.028 H 
ENDBRANCH  33  35
BRANCH  33  39
ATOM     39  C13 non d ame     -11.089  10.232  70.237  0.00  0.00    -0.071 C 
ATOM     40  H16 non d ame     -11.937  10.379  69.569  0.00  0.00     0.028 H 
ATOM     41  H17 non d ame     -11.390   9.597  71.071  0.00  0.00     0.028 H 
ATOM     42  H18 non d ame     -10.755  11.197  70.619  0.00  0.00     0.028 H 
ENDBRANCH  33  39
ENDBRANCH   7  33
ENDBRANCH   4   7
ENDBRANCH   1   3
BRANCH   1  43
ATOM     43  C15 non d ame      -8.966   9.539  63.581  0.00  0.00     0.240 C 
ATOM     44  O5  non d ame      -8.706   9.989  62.512  0.00  0.00    -0.271 OA
ATOM     45  N6  non d ame      -8.198   8.371  64.100  0.00  0.00    -0.355 N 
ATOM     46  H46 non d ame      -8.407   7.984  65.009  0.00  0.00     0.162 HD
BRANCH  45  47
ATOM     47  C20 non d ame      -7.124   7.776  63.277  0.00  0.00     0.013 C 
ATOM     48  H30 non d ame      -7.287   8.078  62.242  0.00  0.00     0.072 H 
BRANCH  47  49
ATOM     49  C21 non d ame      -7.182   6.270  63.390  0.00  0.00    -0.038 C 
ATOM     50  H31 non d ame      -7.570   5.918  62.435  0.00  0.00     0.036 H 
ATOM     51  H32 non d ame      -6.191   5.961  63.724  0.00  0.00     0.036 H 
BRANCH  49  52
ATOM     52  C22 non d ame      -8.177   5.789  64.469  0.00  0.00     0.018 C 
ATOM     53  H33 non d ame      -8.614   6.693  64.893  0.00  0.00     0.048 H 
ATOM     54  H34 non d ame      -8.815   5.055  63.977  0.00  0.00     0.048 H 
BRANCH  52  55
ATOM     55  C23 non d ame      -7.503   5.043  65.655  0.00  0.00     0.259 C 
ATOM     56  O7  non d ame      -6.319   4.957  65.718  0.00  0.00    -0.265 OA
BRANCH  55  57
ATOM     57  O8  non d ame      -8.317   4.451  66.659  0.00  0.00    -0.317 OA
BRANCH  57  58
ATOM     58  C29 non d ame      -7.845   4.664  67.992  0.00  0.00     0.052 C 
ATOM     59  H47 non d ame      -7.566   3.680  68.368  0.00  0.00     0.082 H 
ATOM     60  H48 non d ame      -7.094   5.451  67.916  0.00  0.00     0.082 H 
BRANCH  58  61
ATOM     61  C35 non d ame      -9.030   5.197  68.841  0.00  0.00    -0.034 A 
ATOM     62  C30 non d ame      -8.960   5.172  70.230  0.00  0.00    -0.075 A 
ATOM     63  C31 non d ame     -10.025   5.652  70.991  0.00  0.00    -0.082 A 
ATOM     64  H49 non d ame      -8.071   4.778  70.722  0.00  0.00     0.084 H 
ATOM     65  C32 non d ame     -11.165   6.154  70.358  0.00  0.00    -0.083 A 
ATOM     66  H50 non d ame      -9.966   5.634  72.080  0.00  0.00     0.083 H 
ATOM     67  C33 non d ame     -11.232   6.173  68.971  0.00  0.00    -0.082 A 
ATOM     68  H51 non d ame     -12.002   6.531  70.946  0.00  0.00     0.083 H 
ATOM     69  C34 non d ame     -10.169   5.697  68.207  0.00  0.00    -0.075 A 
ATOM     70  H52 non d ame     -12.124   6.564  68.481  0.00  0.00     0.083 H 
ATOM     71  H53 non d ame     -10.229   5.718  67.118  0.00  0.00     0.084 H 
ENDBRANCH  58  61
ENDBRANCH  57  58
ENDBRANCH  55  57
ENDBRANCH  52  55
ENDBRANCH  49  52
ENDBRANCH  47  49
BRANCH  47  72
ATOM     72  C24 non d ame      -5.764   8.272  63.766  0.00  0.00    -0.039 C 
ATOM     73  H35 non d ame      -5.951   8.710  64.747  0.00  0.00     0.036 H 
ATOM     74  H36 non d ame      -5.092   7.419  63.670  0.00  0.00     0.036 H 
BRANCH  72  75
ATOM     75  C25 non d ame      -5.186   9.438  62.831  0.00  0.00    -0.001 C 
ATOM     76  C26 non d ame      -3.602   9.152  62.496  0.00  0.00    -0.035 C 
ATOM     77  C27 non d ame      -2.888  10.268  62.781  0.00  0.00     0.085 C 
ATOM     78  H38 non d ame      -3.201   8.411  63.187  0.00  0.00     0.036 H 
ATOM     79  H39 non d ame      -3.463   9.029  61.423  0.00  0.00     0.036 H 
ATOM     80  N5  non d ame      -3.789  11.175  63.586  0.00  0.00    -0.049 N 
ATOM     81  H40 non d ame      -2.065   9.934  63.413  0.00  0.00     0.075 H 
ATOM     82  H41 non d ame      -2.683  10.736  61.819  0.00  0.00     0.075 H 
ATOM     83  C28 non d ame      -5.283  10.590  63.405  0.00  0.00     0.193 C 
ATOM     84  H42 non d ame      -3.515  11.066  64.551  0.00  0.00     0.280 HD
ATOM     85  H43 non d ame      -3.745  12.084  63.147  0.00  0.00     0.280 HD
ATOM     86  H44 non d ame      -5.995  11.083  62.744  0.00  0.00     0.129 H 
ATOM     87  H37 non d ame      -5.841   9.652  61.986  0.00  0.00     0.046 H 
BRANCH  83  88
ATOM     88  O6  non d ame      -5.936  10.507  64.674  0.00  0.00    -0.369 OA
ATOM     89  H45 non d ame      -5.789  11.319  65.163  0.00  0.00     0.212 HD
ENDBRANCH  83  88
ENDBRANCH  72  75
ENDBRANCH  47  72
ENDBRANCH  45  47
ENDBRANCH   1  43
BRANCH   1  90
ATOM     90  C16 non d ame     -10.669  11.384  63.708  0.00  0.00    -0.035 C 
ATOM     91  H21 non d ame      -9.811  11.875  63.246  0.00  0.00     0.037 H 
ATOM     92  H22 non d ame     -11.473  10.992  63.085  0.00  0.00     0.037 H 
BRANCH  90  93
ATOM     93  C17 non d ame     -11.321  12.438  64.658  0.00  0.00    -0.059 C 
ATOM     94  H23 non d ame     -11.321  12.020  65.665  0.00  0.00     0.038 H 
BRANCH  93  95
ATOM     95  C18 non d ame     -10.513  13.775  64.699  0.00  0.00    -0.073 C 
ATOM     96  H24 non d ame     -10.887  14.400  65.510  0.00  0.00     0.028 H 
ATOM     97  H25 non d ame      -9.458  13.556  64.864  0.00  0.00     0.028 H 
ATOM     98  H26 non d ame     -10.631  14.299  63.750  0.00  0.00     0.028 H 
ENDBRANCH  93  95
BRANCH  93  99
ATOM     99  C19 non d ame     -12.780  12.695  64.273  0.00  0.00    -0.073 C 
ATOM    100  H27 non d ame     -13.191  13.480  64.909  0.00  0.00     0.028 H 
ATOM    101  H28 non d ame     -12.829  13.009  63.230  0.00  0.00     0.028 H 
ATOM    102  H29 non d ame     -13.357  11.780  64.403  0.00  0.00     0.028 H 
ENDBRANCH  93  99
ENDBRANCH  90  93
ENDBRANCH   1  90
TORSDOF 26
ENDMDL
MODEL 15
REMARK VINA RESULT:      -6.1      4.076      8.147
REMARK  26 active torsions:
REMARK  status: ('A' for Active; 'I' for Inactive)
REMARK    1  A    between atoms: C2_2  and  C3_3 
REMARK    2  A    between atoms: C4_6  and  C5_7 
REMARK       I    between atoms: C5_7  and  N2_9 
REMARK    3  A    between atoms: N2_9  and  C6_10 
REMARK    4  A    between atoms: C6_10  and  C7_11 
REMARK    5  A    between atoms: C6_10  and  C8_13 
REMARK       I    between atoms: C7_11  and  N3_14 
REMARK    6  A    between atoms: N3_14  and  C9_15 
REMARK    7  A    between atoms: C9_15  and  C10_16 
REMARK    8  A    between atoms: C9_15  and  C11_18 
REMARK       I    between atoms: C10_16  and  N4_21 
REMARK    9  A    between atoms: C11_18  and  C12_19 
REMARK   10  A    between atoms: C11_18  and  C13_20 
REMARK   11  A    between atoms: N4_21  and  C14_22 
REMARK   12  A    between atoms: C14_22  and  C15_23 
REMARK   13  A    between atoms: C14_22  and  C16_25 
REMARK       I    between atoms: C15_23  and  N6_40 
REMARK   14  A    between atoms: C16_25  and  C17_26 
REMARK   15  A    between atoms: C17_26  and  C18_27 
REMARK   16  A    between atoms: C17_26  and  C19_28 
REMARK   17  A    between atoms: C20_29  and  C21_30 
REMARK   18  A    between atoms: C20_29  and  C24_33 
REMARK   19  A    between atoms: C20_29  and  N6_40 
REMARK   20  A    between atoms: C21_30  and  C22_31 
REMARK   21  A    between atoms: C22_31  and  C23_32 
REMARK   22  A    between atoms: C23_32  and  O8_43 
REMARK   23  A    between atoms: C24_33  and  C25_34 
REMARK   24  A    between atoms: C28_38  and  O6_39 
REMARK   25  A    between atoms: C29_42  and  O8_43 
REMARK   26  A    between atoms: C29_42  and  C35_49 
ROOT
ATOM      1  C14 non d ame     -10.236   8.410  69.693  0.00  0.00     0.089 C 
ATOM      2  H20 non d ame     -11.248   8.079  69.452  0.00  0.00     0.087 H 
ENDROOT
BRANCH   1   3
ATOM      3  N4  non d ame      -9.469   7.232  70.070  0.00  0.00    -0.346 N 
ATOM      4  C10 non d ame      -9.946   5.855  69.679  0.00  0.00     0.241 C 
ATOM      5  O4  non d ame     -10.951   5.721  69.062  0.00  0.00    -0.271 OA
ATOM      6  H19 non d ame      -8.618   7.367  70.597  0.00  0.00     0.163 HD
BRANCH   4   7
ATOM      7  C9  non d ame      -9.137   4.647  70.073  0.00  0.00     0.092 C 
ATOM      8  H11 non d ame      -9.544   3.765  69.578  0.00  0.00     0.088 H 
BRANCH   7   9
ATOM      9  N3  non d ame      -7.757   4.808  69.604  0.00  0.00    -0.346 N 
ATOM     10  C7  non d ame      -7.306   4.095  68.435  0.00  0.00     0.240 C 
ATOM     11  O3  non d ame      -8.039   3.388  67.858  0.00  0.00    -0.271 OA
ATOM     12  H10 non d ame      -7.113   5.414  70.091  0.00  0.00     0.163 HD
BRANCH  10  13
ATOM     13  C6  non d ame      -5.835   4.268  67.942  0.00  0.00     0.086 C 
ATOM     14  H6  non d ame      -5.414   3.347  67.541  0.00  0.00     0.086 H 
BRANCH  13  15
ATOM     15  N2  non d ame      -5.812   5.241  66.862  0.00  0.00    -0.343 N 
ATOM     16  C5  non d ame      -4.983   4.989  65.681  0.00  0.00     0.273 C 
ATOM     17  O2  non d ame      -4.337   4.002  65.611  0.00  0.00    -0.266 OA
ATOM     18  H5  non d ame      -6.365   6.083  66.931  0.00  0.00     0.163 HD
BRANCH  16  19
ATOM     19  C4  non d ame      -4.950   6.008  64.532  0.00  0.00     0.154 A 
ATOM     20  C1  non d ame      -4.600   7.393  64.614  0.00  0.00    -0.017 A 
ATOM     21  C2  non d ame      -4.726   7.879  63.294  0.00  0.00     0.077 A 
ATOM     22  H1  non d ame      -4.299   7.959  65.496  0.00  0.00     0.091 H 
ATOM     23  O1  non d ame      -5.103   6.882  62.548  0.00  0.00    -0.218 OA
ATOM     24  N1  non d ame      -5.240   5.779  63.248  0.00  0.00    -0.123 NA
BRANCH  21  25
ATOM     25  C3  non d ame      -4.467   9.306  62.830  0.00  0.00    -0.029 C 
ATOM     26  H2  non d ame      -5.225   9.596  62.103  0.00  0.00     0.036 H 
ATOM     27  H3  non d ame      -4.507   9.979  63.685  0.00  0.00     0.036 H 
ATOM     28  H4  non d ame      -3.480   9.365  62.368  0.00  0.00     0.036 H 
ENDBRANCH  21  25
ENDBRANCH  16  19
ENDBRANCH  13  15
BRANCH  13  29
ATOM     29  C8  non d ame      -4.973   4.743  69.083  0.00  0.00    -0.049 C 
ATOM     30  H7  non d ame      -5.582   4.844  69.982  0.00  0.00     0.030 H 
ATOM     31  H8  non d ame      -4.177   4.021  69.263  0.00  0.00     0.030 H 
ATOM     32  H9  non d ame      -4.537   5.710  68.831  0.00  0.00     0.030 H 
ENDBRANCH  13  29
ENDBRANCH  10  13
ENDBRANCH   7   9
BRANCH   7  33
ATOM     33  C11 non d ame      -9.142   4.503  71.623  0.00  0.00    -0.033 C 
ATOM     34  H12 non d ame      -9.405   5.473  72.043  0.00  0.00     0.042 H 
BRANCH  33  35
ATOM     35  C12 non d ame     -10.221   3.479  72.096  0.00  0.00    -0.071 C 
ATOM     36  H13 non d ame     -11.191   3.759  71.687  0.00  0.00     0.028 H 
ATOM     37  H14 non d ame      -9.953   2.483  71.747  0.00  0.00     0.028 H 
ATOM     38  H15 non d ame     -10.271   3.483  73.184  0.00  0.00     0.028 H 
ENDBRANCH  33  35
BRANCH  33  39
ATOM     39  C13 non d ame      -7.724   4.116  72.153  0.00  0.00    -0.071 C 
ATOM     40  H16 non d ame      -7.181   5.018  72.432  0.00  0.00     0.028 H 
ATOM     41  H17 non d ame      -7.826   3.469  73.026  0.00  0.00     0.028 H 
ATOM     42  H18 non d ame      -7.176   3.587  71.373  0.00  0.00     0.028 H 
ENDBRANCH  33  39
ENDBRANCH   7  33
ENDBRANCH   4   7
ENDBRANCH   1   3
BRANCH   1  43
ATOM     43  C15 non d ame      -9.536   9.088  68.482  0.00  0.00     0.240 C 
ATOM     44  O5  non d ame      -8.397   8.846  68.246  0.00  0.00    -0.271 OA
ATOM     45  N6  non d ame     -10.289  10.034  67.609  0.00  0.00    -0.355 N 
ATOM     46  H46 non d ame     -11.258  10.244  67.798  0.00  0.00     0.162 HD
BRANCH  45  47
ATOM     47  C20 non d ame      -9.609  10.671  66.461  0.00  0.00     0.013 C 
ATOM     48  H30 non d ame      -8.545  10.727  66.690  0.00  0.00     0.072 H 
BRANCH  47  49
ATOM     49  C21 non d ame     -10.167  12.061  66.257  0.00  0.00    -0.038 C 
ATOM     50  H31 non d ame      -9.467  12.735  66.751  0.00  0.00     0.036 H 
ATOM     51  H32 non d ame     -10.347  12.152  65.185  0.00  0.00     0.036 H 
BRANCH  49  52
ATOM     52  C22 non d ame     -11.533  12.266  66.948  0.00  0.00     0.018 C 
ATOM     53  H33 non d ame     -12.265  11.773  66.308  0.00  0.00     0.048 H 
ATOM     54  H34 non d ame     -11.396  11.932  67.976  0.00  0.00     0.048 H 
BRANCH  52  55
ATOM     55  C23 non d ame     -11.974  13.753  67.034  0.00  0.00     0.259 C 
ATOM     56  O7  non d ame     -12.410  14.309  66.079  0.00  0.00    -0.265 OA
BRANCH  55  57
ATOM     57  O8  non d ame     -11.838  14.450  68.267  0.00  0.00    -0.317 OA
BRANCH  57  58
ATOM     58  C29 non d ame     -11.483  13.613  69.372  0.00  0.00     0.052 C 
ATOM     59  H47 non d ame     -12.020  12.678  69.218  0.00  0.00     0.082 H 
ATOM     60  H48 non d ame     -10.394  13.616  69.405  0.00  0.00     0.082 H 
BRANCH  58  61
ATOM     61  C35 non d ame     -12.016  14.279  70.668  0.00  0.00    -0.034 A 
ATOM     62  C30 non d ame     -13.011  13.656  71.415  0.00  0.00    -0.075 A 
ATOM     63  C31 non d ame     -13.489  14.255  72.579  0.00  0.00    -0.082 A 
ATOM     64  H49 non d ame     -13.415  12.698  71.088  0.00  0.00     0.084 H 
ATOM     65  C32 non d ame     -12.971  15.485  72.994  0.00  0.00    -0.083 A 
ATOM     66  H50 non d ame     -14.266  13.762  73.164  0.00  0.00     0.083 H 
ATOM     67  C33 non d ame     -11.981  16.105  72.244  0.00  0.00    -0.082 A 
ATOM     68  H51 non d ame     -13.339  15.960  73.904  0.00  0.00     0.083 H 
ATOM     69  C34 non d ame     -11.498  15.508  71.081  0.00  0.00    -0.075 A 
ATOM     70  H52 non d ame     -11.580  17.066  72.570  0.00  0.00     0.083 H 
ATOM     71  H53 non d ame     -10.719  16.002  70.498  0.00  0.00     0.084 H 
ENDBRANCH  58  61
ENDBRANCH  57  58
ENDBRANCH  55  57
ENDBRANCH  52  55
ENDBRANCH  49  52
ENDBRANCH  47  49
BRANCH  47  72
ATOM     72  C24 non d ame      -9.837   9.839  65.200  0.00  0.00    -0.039 C 
ATOM     73  H35 non d ame     -10.399   8.964  65.529  0.00  0.00     0.036 H 
ATOM     74  H36 non d ame     -10.275  10.525  64.475  0.00  0.00     0.036 H 
BRANCH  72  75
ATOM     75  C25 non d ame      -8.458   9.310  64.580  0.00  0.00    -0.001 C 
ATOM     76  C26 non d ame      -8.444   9.560  62.955  0.00  0.00    -0.035 C 
ATOM     77  C27 non d ame      -8.117   8.399  62.338  0.00  0.00     0.085 C 
ATOM     78  H38 non d ame      -9.453   9.763  62.598  0.00  0.00     0.036 H 
ATOM     79  H39 non d ame      -7.627  10.229  62.686  0.00  0.00     0.036 H 
ATOM     80  N5  non d ame      -8.229   7.304  63.372  0.00  0.00    -0.049 N 
ATOM     81  H40 non d ame      -8.883   8.248  61.577  0.00  0.00     0.075 H 
ATOM     82  H41 non d ame      -7.073   8.508  62.047  0.00  0.00     0.075 H 
ATOM     83  C28 non d ame      -8.297   8.049  64.802  0.00  0.00     0.193 C 
ATOM     84  H42 non d ame      -9.111   6.843  63.206  0.00  0.00     0.280 HD
ATOM     85  H43 non d ame      -7.367   6.778  63.325  0.00  0.00     0.280 HD
ATOM     86  H44 non d ame      -7.427   8.072  65.458  0.00  0.00     0.129 H 
ATOM     87  H37 non d ame      -7.592   9.659  65.143  0.00  0.00     0.046 H 
BRANCH  83  88
ATOM     88  O6  non d ame      -9.355   7.502  65.593  0.00  0.00    -0.369 OA
ATOM     89  H45 non d ame      -9.494   6.584  65.350  0.00  0.00     0.212 HD
ENDBRANCH  83  88
ENDBRANCH  72  75
ENDBRANCH  47  72
ENDBRANCH  45  47
ENDBRANCH   1  43
BRANCH   1  90
ATOM     90  C16 non d ame     -10.275   9.373  70.868  0.00  0.00    -0.035 C 
ATOM     91  H21 non d ame      -9.683   8.898  71.651  0.00  0.00     0.037 H 
ATOM     92  H22 non d ame      -9.967  10.336  70.461  0.00  0.00     0.037 H 
BRANCH  90  93
ATOM     93  C17 non d ame     -11.704   9.582  71.461  0.00  0.00    -0.059 C 
ATOM     94  H23 non d ame     -11.610  10.237  72.327  0.00  0.00     0.038 H 
BRANCH  93  95
ATOM     95  C18 non d ame     -12.670  10.271  70.445  0.00  0.00    -0.073 C 
ATOM     96  H24 non d ame     -12.395  11.320  70.337  0.00  0.00     0.028 H 
ATOM     97  H25 non d ame     -12.594   9.774  69.478  0.00  0.00     0.028 H 
ATOM     98  H26 non d ame     -13.695  10.199  70.811  0.00  0.00     0.028 H 
ENDBRANCH  93  95
BRANCH  93  99
ATOM     99  C19 non d ame     -12.290   8.257  71.957  0.00  0.00    -0.073 C 
ATOM    100  H27 non d ame     -12.193   8.200  73.041  0.00  0.00     0.028 H 
ATOM    101  H28 non d ame     -13.344   8.201  71.682  0.00  0.00     0.028 H 
ATOM    102  H29 non d ame     -11.752   7.427  71.498  0.00  0.00     0.028 H 
ENDBRANCH  93  99
ENDBRANCH  90  93
ENDBRANCH   1  90
TORSDOF 26
ENDMDL
MODEL 16
REMARK VINA RESULT:      -6.1      3.076      9.424
REMARK  26 active torsions:
REMARK  status: ('A' for Active; 'I' for Inactive)
REMARK    1  A    between atoms: C2_2  and  C3_3 
REMARK    2  A    between atoms: C4_6  and  C5_7 
REMARK       I    between atoms: C5_7  and  N2_9 
REMARK    3  A    between atoms: N2_9  and  C6_10 
REMARK    4  A    between atoms: C6_10  and  C7_11 
REMARK    5  A    between atoms: C6_10  and  C8_13 
REMARK       I    between atoms: C7_11  and  N3_14 
REMARK    6  A    between atoms: N3_14  and  C9_15 
REMARK    7  A    between atoms: C9_15  and  C10_16 
REMARK    8  A    between atoms: C9_15  and  C11_18 
REMARK       I    between atoms: C10_16  and  N4_21 
REMARK    9  A    between atoms: C11_18  and  C12_19 
REMARK   10  A    between atoms: C11_18  and  C13_20 
REMARK   11  A    between atoms: N4_21  and  C14_22 
REMARK   12  A    between atoms: C14_22  and  C15_23 
REMARK   13  A    between atoms: C14_22  and  C16_25 
REMARK       I    between atoms: C15_23  and  N6_40 
REMARK   14  A    between atoms: C16_25  and  C17_26 
REMARK   15  A    between atoms: C17_26  and  C18_27 
REMARK   16  A    between atoms: C17_26  and  C19_28 
REMARK   17  A    between atoms: C20_29  and  C21_30 
REMARK   18  A    between atoms: C20_29  and  C24_33 
REMARK   19  A    between atoms: C20_29  and  N6_40 
REMARK   20  A    between atoms: C21_30  and  C22_31 
REMARK   21  A    between atoms: C22_31  and  C23_32 
REMARK   22  A    between atoms: C23_32  and  O8_43 
REMARK   23  A    between atoms: C24_33  and  C25_34 
REMARK   24  A    between atoms: C28_38  and  O6_39 
REMARK   25  A    between atoms: C29_42  and  O8_43 
REMARK   26  A    between atoms: C29_42  and  C35_49 
ROOT
ATOM      1  C14 non d ame      -8.723   6.891  67.551  0.00  0.00     0.089 C 
ATOM      2  H20 non d ame      -9.465   6.586  66.811  0.00  0.00     0.087 H 
ENDROOT
BRANCH   1   3
ATOM      3  N4  non d ame      -8.440   8.302  67.331  0.00  0.00    -0.346 N 
ATOM      4  C10 non d ame      -8.732   8.938  65.994  0.00  0.00     0.241 C 
ATOM      5  O4  non d ame      -9.193   8.293  65.110  0.00  0.00    -0.271 OA
ATOM      6  H19 non d ame      -8.046   8.833  68.094  0.00  0.00     0.163 HD
BRANCH   4   7
ATOM      7  C9  non d ame      -8.438  10.400  65.785  0.00  0.00     0.092 C 
ATOM      8  H11 non d ame      -7.967  10.536  64.811  0.00  0.00     0.088 H 
BRANCH   7   9
ATOM      9  N3  non d ame      -9.696  11.154  65.766  0.00  0.00    -0.346 N 
ATOM     10  C7  non d ame     -10.270  11.566  64.510  0.00  0.00     0.240 C 
ATOM     11  O3  non d ame      -9.735  11.300  63.503  0.00  0.00    -0.271 OA
ATOM     12  H10 non d ame     -10.169  11.392  66.627  0.00  0.00     0.163 HD
BRANCH  10  13
ATOM     13  C6  non d ame     -11.607  12.371  64.497  0.00  0.00     0.086 C 
ATOM     14  H6  non d ame     -12.248  12.139  65.348  0.00  0.00     0.086 H 
BRANCH  13  15
ATOM     15  N2  non d ame     -11.304  13.790  64.580  0.00  0.00    -0.343 N 
ATOM     16  C5  non d ame     -11.129  14.416  65.893  0.00  0.00     0.273 C 
ATOM     17  O2  non d ame     -11.239  13.770  66.875  0.00  0.00    -0.266 OA
ATOM     18  H5  non d ame     -11.215  14.336  63.734  0.00  0.00     0.163 HD
BRANCH  16  19
ATOM     19  C4  non d ame     -10.807  15.915  65.994  0.00  0.00     0.154 A 
ATOM     20  C1  non d ame     -10.424  16.640  67.167  0.00  0.00    -0.017 A 
ATOM     21  C2  non d ame     -10.244  17.970  66.729  0.00  0.00     0.077 A 
ATOM     22  H1  non d ame     -10.297  16.258  68.181  0.00  0.00     0.091 H 
ATOM     23  O1  non d ame     -10.493  17.996  65.453  0.00  0.00    -0.218 OA
ATOM     24  N1  non d ame     -10.824  16.808  65.001  0.00  0.00    -0.123 NA
BRANCH  21  25
ATOM     25  C3  non d ame      -9.831  19.155  67.593  0.00  0.00    -0.029 C 
ATOM     26  H2  non d ame      -9.680  20.031  66.961  0.00  0.00     0.036 H 
ATOM     27  H3  non d ame     -10.613  19.364  68.322  0.00  0.00     0.036 H 
ATOM     28  H4  non d ame      -8.902  18.919  68.114  0.00  0.00     0.036 H 
ENDBRANCH  21  25
ENDBRANCH  16  19
ENDBRANCH  13  15
BRANCH  13  29
ATOM     29  C8  non d ame     -12.362  12.078  63.226  0.00  0.00    -0.049 C 
ATOM     30  H7  non d ame     -12.774  13.005  62.826  0.00  0.00     0.030 H 
ATOM     31  H8  non d ame     -11.686  11.635  62.495  0.00  0.00     0.030 H 
ATOM     32  H9  non d ame     -13.174  11.383  63.438  0.00  0.00     0.030 H 
ENDBRANCH  13  29
ENDBRANCH  10  13
ENDBRANCH   7   9
BRANCH   7  33
ATOM     33  C11 non d ame      -7.541  10.920  66.946  0.00  0.00    -0.033 C 
ATOM     34  H12 non d ame      -7.578  10.182  67.746  0.00  0.00     0.042 H 
BRANCH  33  35
ATOM     35  C12 non d ame      -6.052  11.053  66.498  0.00  0.00    -0.071 C 
ATOM     36  H13 non d ame      -5.401  10.958  67.368  0.00  0.00     0.028 H 
ATOM     37  H14 non d ame      -5.817  10.268  65.781  0.00  0.00     0.028 H 
ATOM     38  H15 non d ame      -5.899  12.027  66.036  0.00  0.00     0.028 H 
ENDBRANCH  33  35
BRANCH  33  39
ATOM     39  C13 non d ame      -8.085  12.272  67.510  0.00  0.00    -0.071 C 
ATOM     40  H16 non d ame      -7.801  12.369  68.558  0.00  0.00     0.028 H 
ATOM     41  H17 non d ame      -7.662  13.100  66.941  0.00  0.00     0.028 H 
ATOM     42  H18 non d ame      -9.171  12.291  67.425  0.00  0.00     0.028 H 
ENDBRANCH  33  39
ENDBRANCH   7  33
ENDBRANCH   4   7
ENDBRANCH   1   3
BRANCH   1  43
ATOM     43  C15 non d ame      -9.238   6.712  69.007  0.00  0.00     0.240 C 
ATOM     44  O5  non d ame      -9.791   5.708  69.320  0.00  0.00    -0.271 OA
ATOM     45  N6  non d ame      -9.032   7.791  70.017  0.00  0.00    -0.355 N 
ATOM     46  H46 non d ame      -8.559   8.646  69.764  0.00  0.00     0.162 HD
BRANCH  45  47
ATOM     47  C20 non d ame      -9.526   7.605  71.398  0.00  0.00     0.013 C 
ATOM     48  H30 non d ame     -10.073   6.663  71.435  0.00  0.00     0.072 H 
BRANCH  47  49
ATOM     49  C21 non d ame     -10.444   8.750  71.759  0.00  0.00    -0.038 C 
ATOM     50  H31 non d ame     -10.882   8.485  72.721  0.00  0.00     0.036 H 
ATOM     51  H32 non d ame      -9.840   9.653  71.666  0.00  0.00     0.036 H 
BRANCH  49  52
ATOM     52  C22 non d ame     -11.621   8.908  70.772  0.00  0.00     0.018 C 
ATOM     53  H33 non d ame     -11.328   9.704  70.087  0.00  0.00     0.048 H 
ATOM     54  H34 non d ame     -11.823   7.908  70.391  0.00  0.00     0.048 H 
BRANCH  52  55
ATOM     55  C23 non d ame     -12.940   9.386  71.442  0.00  0.00     0.259 C 
ATOM     56  O7  non d ame     -13.766   8.600  71.775  0.00  0.00    -0.265 OA
BRANCH  55  57
ATOM     57  O8  non d ame     -13.157  10.778  71.639  0.00  0.00    -0.317 OA
BRANCH  57  58
ATOM     58  C29 non d ame     -12.395  11.615  70.764  0.00  0.00     0.052 C 
ATOM     59  H47 non d ame     -11.350  11.412  70.997  0.00  0.00     0.082 H 
ATOM     60  H48 non d ame     -12.777  11.419  69.763  0.00  0.00     0.082 H 
BRANCH  58  61
ATOM     61  C35 non d ame     -12.702  13.092  71.127  0.00  0.00    -0.034 A 
ATOM     62  C30 non d ame     -12.186  14.124  70.349  0.00  0.00    -0.075 A 
ATOM     63  C31 non d ame     -12.463  15.450  70.675  0.00  0.00    -0.082 A 
ATOM     64  H49 non d ame     -11.566  13.892  69.482  0.00  0.00     0.084 H 
ATOM     65  C32 non d ame     -13.256  15.744  71.787  0.00  0.00    -0.083 A 
ATOM     66  H50 non d ame     -12.060  16.256  70.061  0.00  0.00     0.083 H 
ATOM     67  C33 non d ame     -13.766  14.712  72.564  0.00  0.00    -0.082 A 
ATOM     68  H51 non d ame     -13.478  16.779  72.049  0.00  0.00     0.083 H 
ATOM     69  C34 non d ame     -13.493  13.385  72.239  0.00  0.00    -0.075 A 
ATOM     70  H52 non d ame     -14.383  14.945  73.432  0.00  0.00     0.083 H 
ATOM     71  H53 non d ame     -13.899  12.579  72.853  0.00  0.00     0.084 H 
ENDBRANCH  58  61
ENDBRANCH  57  58
ENDBRANCH  55  57
ENDBRANCH  52  55
ENDBRANCH  49  52
ENDBRANCH  47  49
BRANCH  47  72
ATOM     72  C24 non d ame      -8.346   7.571  72.368  0.00  0.00    -0.039 C 
ATOM     73  H35 non d ame      -7.464   7.415  71.746  0.00  0.00     0.036 H 
ATOM     74  H36 non d ame      -8.436   8.478  72.966  0.00  0.00     0.036 H 
BRANCH  72  75
ATOM     75  C25 non d ame      -8.441   6.329  73.375  0.00  0.00    -0.001 C 
ATOM     76  C26 non d ame      -9.747   5.404  73.000  0.00  0.00    -0.035 C 
ATOM     77  C27 non d ame     -10.477   5.205  74.124  0.00  0.00     0.085 C 
ATOM     78  H38 non d ame     -10.424   5.957  72.351  0.00  0.00     0.036 H 
ATOM     79  H39 non d ame      -9.427   4.399  72.725  0.00  0.00     0.036 H 
ATOM     80  N5  non d ame      -9.967   6.180  75.159  0.00  0.00    -0.049 N 
ATOM     81  H40 non d ame     -11.500   5.473  73.858  0.00  0.00     0.075 H 
ATOM     82  H41 non d ame     -10.245   4.191  74.447  0.00  0.00     0.075 H 
ATOM     83  C28 non d ame      -8.556   6.726  74.598  0.00  0.00     0.193 C 
ATOM     84  H42 non d ame     -10.624   6.946  75.178  0.00  0.00     0.280 HD
ATOM     85  H43 non d ame      -9.794   5.643  75.997  0.00  0.00     0.280 HD
ATOM     86  H44 non d ame      -7.616   6.363  75.014  0.00  0.00     0.129 H 
ATOM     87  H37 non d ame      -7.485   5.816  73.487  0.00  0.00     0.046 H 
BRANCH  83  88
ATOM     88  O6  non d ame      -8.497   8.149  74.710  0.00  0.00    -0.369 OA
ATOM     89  H45 non d ame      -8.988   8.429  75.487  0.00  0.00     0.212 HD
ENDBRANCH  83  88
ENDBRANCH  72  75
ENDBRANCH  47  72
ENDBRANCH  45  47
ENDBRANCH   1  43
BRANCH   1  90
ATOM     90  C16 non d ame      -7.444   6.093  67.358  0.00  0.00    -0.035 C 
ATOM     91  H21 non d ame      -6.767   6.758  66.820  0.00  0.00     0.037 H 
ATOM     92  H22 non d ame      -7.178   5.731  68.350  0.00  0.00     0.037 H 
BRANCH  90  93
ATOM     93  C17 non d ame      -7.624   4.828  66.460  0.00  0.00    -0.059 C 
ATOM     94  H23 non d ame      -6.661   4.608  66.001  0.00  0.00     0.038 H 
BRANCH  93  95
ATOM     95  C18 non d ame      -8.055   3.574  67.287  0.00  0.00    -0.073 C 
ATOM     96  H24 non d ame      -7.876   2.673  66.700  0.00  0.00     0.028 H 
ATOM     97  H25 non d ame      -7.473   3.529  68.207  0.00  0.00     0.028 H 
ATOM     98  H26 non d ame      -9.115   3.646  67.530  0.00  0.00     0.028 H 
ENDBRANCH  93  95
BRANCH  93  99
ATOM     99  C19 non d ame      -8.616   5.099  65.325  0.00  0.00    -0.073 C 
ATOM    100  H27 non d ame      -8.448   6.100  64.927  0.00  0.00     0.028 H 
ATOM    101  H28 non d ame      -8.470   4.363  64.534  0.00  0.00     0.028 H 
ATOM    102  H29 non d ame      -9.634   5.024  65.706  0.00  0.00     0.028 H 
ENDBRANCH  93  99
ENDBRANCH  90  93
ENDBRANCH   1  90
TORSDOF 26
ENDMDL
MODEL 17
REMARK VINA RESULT:      -6.1      3.727      9.569
REMARK  26 active torsions:
REMARK  status: ('A' for Active; 'I' for Inactive)
REMARK    1  A    between atoms: C2_2  and  C3_3 
REMARK    2  A    between atoms: C4_6  and  C5_7 
REMARK       I    between atoms: C5_7  and  N2_9 
REMARK    3  A    between atoms: N2_9  and  C6_10 
REMARK    4  A    between atoms: C6_10  and  C7_11 
REMARK    5  A    between atoms: C6_10  and  C8_13 
REMARK       I    between atoms: C7_11  and  N3_14 
REMARK    6  A    between atoms: N3_14  and  C9_15 
REMARK    7  A    between atoms: C9_15  and  C10_16 
REMARK    8  A    between atoms: C9_15  and  C11_18 
REMARK       I    between atoms: C10_16  and  N4_21 
REMARK    9  A    between atoms: C11_18  and  C12_19 
REMARK   10  A    between atoms: C11_18  and  C13_20 
REMARK   11  A    between atoms: N4_21  and  C14_22 
REMARK   12  A    between atoms: C14_22  and  C15_23 
REMARK   13  A    between atoms: C14_22  and  C16_25 
REMARK       I    between atoms: C15_23  and  N6_40 
REMARK   14  A    between atoms: C16_25  and  C17_26 
REMARK   15  A    between atoms: C17_26  and  C18_27 
REMARK   16  A    between atoms: C17_26  and  C19_28 
REMARK   17  A    between atoms: C20_29  and  C21_30 
REMARK   18  A    between atoms: C20_29  and  C24_33 
REMARK   19  A    between atoms: C20_29  and  N6_40 
REMARK   20  A    between atoms: C21_30  and  C22_31 
REMARK   21  A    between atoms: C22_31  and  C23_32 
REMARK   22  A    between atoms: C23_32  and  O8_43 
REMARK   23  A    between atoms: C24_33  and  C25_34 
REMARK   24  A    between atoms: C28_38  and  O6_39 
REMARK   25  A    between atoms: C29_42  and  O8_43 
REMARK   26  A    between atoms: C29_42  and  C35_49 
ROOT
ATOM      1  C14 non d ame      -8.211   8.336  62.817  0.00  0.00     0.089 C 
ATOM      2  H20 non d ame      -8.768   8.205  61.888  0.00  0.00     0.087 H 
ENDROOT
BRANCH   1   3
ATOM      3  N4  non d ame      -9.067   9.064  63.742  0.00  0.00    -0.346 N 
ATOM      4  C10 non d ame      -9.605  10.424  63.373  0.00  0.00     0.241 C 
ATOM      5  O4  non d ame      -9.332  10.914  62.326  0.00  0.00    -0.271 OA
ATOM      6  H19 non d ame      -9.286   8.632  64.628  0.00  0.00     0.163 HD
BRANCH   4   7
ATOM      7  C9  non d ame     -10.494  11.161  64.340  0.00  0.00     0.092 C 
ATOM      8  H11 non d ame     -11.161  10.450  64.827  0.00  0.00     0.088 H 
BRANCH   7   9
ATOM      9  N3  non d ame      -9.673  11.773  65.390  0.00  0.00    -0.346 N 
ATOM     10  C7  non d ame      -9.734  11.268  66.738  0.00  0.00     0.240 C 
ATOM     11  O3  non d ame     -10.438  10.370  66.998  0.00  0.00    -0.271 OA
ATOM     12  H10 non d ame      -9.061  12.550  65.181  0.00  0.00     0.163 HD
BRANCH  10  13
ATOM     13  C6  non d ame      -8.860  11.926  67.851  0.00  0.00     0.086 C 
ATOM     14  H6  non d ame      -8.169  12.673  67.459  0.00  0.00     0.086 H 
BRANCH  13  15
ATOM     15  N2  non d ame      -9.732  12.618  68.787  0.00  0.00    -0.343 N 
ATOM     16  C5  non d ame     -10.255  13.942  68.443  0.00  0.00     0.273 C 
ATOM     17  O2  non d ame      -9.966  14.443  67.413  0.00  0.00    -0.266 OA
ATOM     18  H5  non d ame      -9.971  12.183  69.667  0.00  0.00     0.163 HD
BRANCH  16  19
ATOM     19  C4  non d ame     -11.178  14.683  69.423  0.00  0.00     0.154 A 
ATOM     20  C1  non d ame     -12.287  14.140  70.146  0.00  0.00    -0.017 A 
ATOM     21  C2  non d ame     -12.794  15.221  70.900  0.00  0.00     0.077 A 
ATOM     22  H1  non d ame     -12.664  13.117  70.128  0.00  0.00     0.091 H 
ATOM     23  O1  non d ame     -12.056  16.259  70.635  0.00  0.00    -0.218 OA
ATOM     24  N1  non d ame     -11.105  15.970  69.775  0.00  0.00    -0.123 NA
BRANCH  21  25
ATOM     25  C3  non d ame     -13.985  15.179  71.848  0.00  0.00    -0.029 C 
ATOM     26  H2  non d ame     -14.322  14.148  71.962  0.00  0.00     0.036 H 
ATOM     27  H3  non d ame     -13.691  15.574  72.819  0.00  0.00     0.036 H 
ATOM     28  H4  non d ame     -14.797  15.783  71.440  0.00  0.00     0.036 H 
ENDBRANCH  21  25
ENDBRANCH  16  19
ENDBRANCH  13  15
BRANCH  13  29
ATOM     29  C8  non d ame      -8.072  10.862  68.570  0.00  0.00    -0.049 C 
ATOM     30  H7  non d ame      -7.421  10.350  67.861  0.00  0.00     0.030 H 
ATOM     31  H8  non d ame      -7.467  11.321  69.352  0.00  0.00     0.030 H 
ATOM     32  H9  non d ame      -8.757  10.142  69.017  0.00  0.00     0.030 H 
ENDBRANCH  13  29
ENDBRANCH  10  13
ENDBRANCH   7   9
BRANCH   7  33
ATOM     33  C11 non d ame     -11.276  12.273  63.581  0.00  0.00    -0.033 C 
ATOM     34  H12 non d ame     -10.764  12.449  62.636  0.00  0.00     0.042 H 
BRANCH  33  35
ATOM     35  C12 non d ame     -12.732  11.819  63.249  0.00  0.00    -0.071 C 
ATOM     36  H13 non d ame     -12.857  11.763  62.168  0.00  0.00     0.028 H 
ATOM     37  H14 non d ame     -12.915  10.839  63.687  0.00  0.00     0.028 H 
ATOM     38  H15 non d ame     -13.438  12.539  63.660  0.00  0.00     0.028 H 
ENDBRANCH  33  35
BRANCH  33  39
ATOM     39  C13 non d ame     -11.271  13.610  64.389  0.00  0.00    -0.071 C 
ATOM     40  H16 non d ame     -10.603  13.516  65.244  0.00  0.00     0.028 H 
ATOM     41  H17 non d ame     -10.928  14.422  63.747  0.00  0.00     0.028 H 
ATOM     42  H18 non d ame     -12.281  13.827  64.739  0.00  0.00     0.028 H 
ENDBRANCH  33  39
ENDBRANCH   7  33
ENDBRANCH   4   7
ENDBRANCH   1   3
BRANCH   1  43
ATOM     43  C15 non d ame      -7.824   6.978  63.467  0.00  0.00     0.240 C 
ATOM     44  O5  non d ame      -7.307   6.133  62.810  0.00  0.00    -0.271 OA
ATOM     45  N6  non d ame      -8.089   6.732  64.914  0.00  0.00    -0.355 N 
ATOM     46  H46 non d ame      -8.524   7.443  65.483  0.00  0.00     0.162 HD
BRANCH  45  47
ATOM     47  C20 non d ame      -7.714   5.435  65.517  0.00  0.00     0.013 C 
ATOM     48  H30 non d ame      -7.638   4.701  64.715  0.00  0.00     0.072 H 
BRANCH  47  49
ATOM     49  C21 non d ame      -8.782   5.014  66.502  0.00  0.00    -0.038 C 
ATOM     50  H31 non d ame      -9.732   5.226  66.014  0.00  0.00     0.036 H 
ATOM     51  H32 non d ame      -8.531   3.992  66.788  0.00  0.00     0.036 H 
BRANCH  49  52
ATOM     52  C22 non d ame      -8.761   5.850  67.800  0.00  0.00     0.018 C 
ATOM     53  H33 non d ame      -7.755   5.740  68.207  0.00  0.00     0.048 H 
ATOM     54  H34 non d ame      -9.132   6.836  67.523  0.00  0.00     0.048 H 
BRANCH  52  55
ATOM     55  C23 non d ame      -9.725   5.322  68.900  0.00  0.00     0.259 C 
ATOM     56  O7  non d ame      -9.697   4.181  69.229  0.00  0.00    -0.265 OA
BRANCH  55  57
ATOM     57  O8  non d ame     -10.653   6.217  69.500  0.00  0.00    -0.317 OA
BRANCH  57  58
ATOM     58  C29 non d ame     -10.182   7.565  69.597  0.00  0.00     0.052 C 
ATOM     59  H47 non d ame      -9.265   7.516  70.182  0.00  0.00     0.082 H 
ATOM     60  H48 non d ame     -10.157   7.942  68.574  0.00  0.00     0.082 H 
BRANCH  58  61
ATOM     61  C35 non d ame     -11.232   8.383  70.395  0.00  0.00    -0.034 A 
ATOM     62  C30 non d ame     -12.211   7.727  71.136  0.00  0.00    -0.075 A 
ATOM     63  C31 non d ame     -13.153   8.463  71.853  0.00  0.00    -0.082 A 
ATOM     64  H49 non d ame     -12.238   6.638  71.155  0.00  0.00     0.084 H 
ATOM     65  C32 non d ame     -13.118   9.859  71.824  0.00  0.00    -0.083 A 
ATOM     66  H50 non d ame     -13.916   7.945  72.435  0.00  0.00     0.083 H 
ATOM     67  C33 non d ame     -12.142  10.509  71.080  0.00  0.00    -0.082 A 
ATOM     68  H51 non d ame     -13.851  10.441  72.383  0.00  0.00     0.083 H 
ATOM     69  C34 non d ame     -11.197   9.778  70.364  0.00  0.00    -0.075 A 
ATOM     70  H52 non d ame     -12.119  11.599  71.059  0.00  0.00     0.083 H 
ATOM     71  H53 non d ame     -10.433  10.297  69.783  0.00  0.00     0.084 H 
ENDBRANCH  58  61
ENDBRANCH  57  58
ENDBRANCH  55  57
ENDBRANCH  52  55
ENDBRANCH  49  52
ENDBRANCH  47  49
BRANCH  47  72
ATOM     72  C24 non d ame      -6.377   5.571  66.241  0.00  0.00    -0.039 C 
ATOM     73  H35 non d ame      -6.234   6.642  66.389  0.00  0.00     0.036 H 
ATOM     74  H36 non d ame      -6.445   4.907  67.104  0.00  0.00     0.036 H 
BRANCH  72  75
ATOM     75  C25 non d ame      -5.158   5.052  65.340  0.00  0.00    -0.001 C 
ATOM     76  C26 non d ame      -4.689   3.557  65.841  0.00  0.00    -0.035 C 
ATOM     77  C27 non d ame      -3.349   3.565  66.042  0.00  0.00     0.085 C 
ATOM     78  H38 non d ame      -5.094   3.350  66.830  0.00  0.00     0.036 H 
ATOM     79  H39 non d ame      -4.821   2.835  65.036  0.00  0.00     0.036 H 
ATOM     80  N5  non d ame      -2.912   5.011  66.040  0.00  0.00    -0.049 N 
ATOM     81  H40 non d ame      -3.202   3.150  67.039  0.00  0.00     0.075 H 
ATOM     82  H41 non d ame      -2.922   3.065  65.174  0.00  0.00     0.075 H 
ATOM     83  C28 non d ame      -4.144   5.848  65.419  0.00  0.00     0.193 C 
ATOM     84  H42 non d ame      -2.798   5.276  67.008  0.00  0.00     0.280 HD
ATOM     85  H43 non d ame      -2.130   5.072  65.404  0.00  0.00     0.280 HD
ATOM     86  H44 non d ame      -4.103   6.219  64.395  0.00  0.00     0.129 H 
ATOM     87  H37 non d ame      -5.350   5.180  64.274  0.00  0.00     0.046 H 
BRANCH  83  88
ATOM     88  O6  non d ame      -4.421   6.993  66.228  0.00  0.00    -0.369 OA
ATOM     89  H45 non d ame      -4.362   6.750  67.155  0.00  0.00     0.212 HD
ENDBRANCH  83  88
ENDBRANCH  72  75
ENDBRANCH  47  72
ENDBRANCH  45  47
ENDBRANCH   1  43
BRANCH   1  90
ATOM     90  C16 non d ame      -6.957   9.154  62.555  0.00  0.00    -0.035 C 
ATOM     91  H21 non d ame      -6.556   8.773  61.614  0.00  0.00     0.037 H 
ATOM     92  H22 non d ame      -7.270  10.195  62.631  0.00  0.00     0.037 H 
BRANCH  90  93
ATOM     93  C17 non d ame      -5.839   8.949  63.626  0.00  0.00    -0.059 C 
ATOM     94  H23 non d ame      -6.072   8.037  64.175  0.00  0.00     0.038 H 
BRANCH  93  95
ATOM     95  C18 non d ame      -4.429   8.767  62.978  0.00  0.00    -0.073 C 
ATOM     96  H24 non d ame      -4.429   9.203  61.979  0.00  0.00     0.028 H 
ATOM     97  H25 non d ame      -3.681   9.268  63.593  0.00  0.00     0.028 H 
ATOM     98  H26 non d ame      -4.193   7.705  62.912  0.00  0.00     0.028 H 
ENDBRANCH  93  95
BRANCH  93  99
ATOM     99  C19 non d ame      -5.831  10.099  64.636  0.00  0.00    -0.073 C 
ATOM    100  H27 non d ame      -6.767  10.654  64.562  0.00  0.00     0.028 H 
ATOM    101  H28 non d ame      -5.726   9.695  65.643  0.00  0.00     0.028 H 
ATOM    102  H29 non d ame      -4.995  10.764  64.423  0.00  0.00     0.028 H 
ENDBRANCH  93  99
ENDBRANCH  90  93
ENDBRANCH   1  90
TORSDOF 26
ENDMDL
MODEL 18
REMARK VINA RESULT:      -6.1      2.891      6.485
REMARK  26 active torsions:
REMARK  status: ('A' for Active; 'I' for Inactive)
REMARK    1  A    between atoms: C2_2  and  C3_3 
REMARK    2  A    between atoms: C4_6  and  C5_7 
REMARK       I    between atoms: C5_7  and  N2_9 
REMARK    3  A    between atoms: N2_9  and  C6_10 
REMARK    4  A    between atoms: C6_10  and  C7_11 
REMARK    5  A    between atoms: C6_10  and  C8_13 
REMARK       I    between atoms: C7_11  and  N3_14 
REMARK    6  A    between atoms: N3_14  and  C9_15 
REMARK    7  A    between atoms: C9_15  and  C10_16 
REMARK    8  A    between atoms: C9_15  and  C11_18 
REMARK       I    between atoms: C10_16  and  N4_21 
REMARK    9  A    between atoms: C11_18  and  C12_19 
REMARK   10  A    between atoms: C11_18  and  C13_20 
REMARK   11  A    between atoms: N4_21  and  C14_22 
REMARK   12  A    between atoms: C14_22  and  C15_23 
REMARK   13  A    between atoms: C14_22  and  C16_25 
REMARK       I    between atoms: C15_23  and  N6_40 
REMARK   14  A    between atoms: C16_25  and  C17_26 
REMARK   15  A    between atoms: C17_26  and  C18_27 
REMARK   16  A    between atoms: C17_26  and  C19_28 
REMARK   17  A    between atoms: C20_29  and  C21_30 
REMARK   18  A    between atoms: C20_29  and  C24_33 
REMARK   19  A    between atoms: C20_29  and  N6_40 
REMARK   20  A    between atoms: C21_30  and  C22_31 
REMARK   21  A    between atoms: C22_31  and  C23_32 
REMARK   22  A    between atoms: C23_32  and  O8_43 
REMARK   23  A    between atoms: C24_33  and  C25_34 
REMARK   24  A    between atoms: C28_38  and  O6_39 
REMARK   25  A    between atoms: C29_42  and  O8_43 
REMARK   26  A    between atoms: C29_42  and  C35_49 
ROOT
ATOM      1  C14 non d ame      -9.366   9.520  69.303  0.00  0.00     0.089 C 
ATOM      2  H20 non d ame      -8.815   8.672  69.712  0.00  0.00     0.087 H 
ENDROOT
BRANCH   1   3
ATOM      3  N4  non d ame      -8.489  10.680  69.359  0.00  0.00    -0.346 N 
ATOM      4  C10 non d ame      -6.991  10.501  69.396  0.00  0.00     0.241 C 
ATOM      5  O4  non d ame      -6.516   9.413  69.383  0.00  0.00    -0.271 OA
ATOM      6  H19 non d ame      -8.912  11.597  69.373  0.00  0.00     0.163 HD
BRANCH   4   7
ATOM      7  C9  non d ame      -6.098  11.712  69.449  0.00  0.00     0.092 C 
ATOM      8  H11 non d ame      -5.471  11.736  68.557  0.00  0.00     0.088 H 
BRANCH   7   9
ATOM      9  N3  non d ame      -6.919  12.927  69.431  0.00  0.00    -0.346 N 
ATOM     10  C7  non d ame      -6.927  13.775  68.265  0.00  0.00     0.240 C 
ATOM     11  O3  non d ame      -6.279  13.497  67.332  0.00  0.00    -0.271 OA
ATOM     12  H10 non d ame      -7.484  13.181  70.230  0.00  0.00     0.163 HD
BRANCH  10  13
ATOM     13  C6  non d ame      -7.801  15.068  68.255  0.00  0.00     0.086 C 
ATOM     14  H6  non d ame      -8.315  15.222  67.306  0.00  0.00     0.086 H 
BRANCH  13  15
ATOM     15  N2  non d ame      -8.833  14.948  69.271  0.00  0.00    -0.343 N 
ATOM     16  C5  non d ame     -10.192  15.409  68.979  0.00  0.00     0.273 C 
ATOM     17  O2  non d ame     -10.444  15.878  67.924  0.00  0.00    -0.266 OA
ATOM     18  H5  non d ame      -8.608  14.548  70.172  0.00  0.00     0.163 HD
BRANCH  16  19
ATOM     19  C4  non d ame     -11.293  15.286  70.044  0.00  0.00     0.154 A 
ATOM     20  C1  non d ame     -11.982  14.097  70.443  0.00  0.00    -0.017 A 
ATOM     21  C2  non d ame     -12.885  14.519  71.444  0.00  0.00     0.077 A 
ATOM     22  H1  non d ame     -11.846  13.084  70.065  0.00  0.00     0.091 H 
ATOM     23  O1  non d ame     -12.724  15.801  71.596  0.00  0.00    -0.218 OA
ATOM     24  N1  non d ame     -11.800  16.272  70.790  0.00  0.00    -0.123 NA
BRANCH  21  25
ATOM     25  C3  non d ame     -13.863  13.635  72.206  0.00  0.00    -0.029 C 
ATOM     26  H2  non d ame     -13.433  12.642  72.334  0.00  0.00     0.036 H 
ATOM     27  H3  non d ame     -14.064  14.073  73.183  0.00  0.00     0.036 H 
ATOM     28  H4  non d ame     -14.796  13.557  71.644  0.00  0.00     0.036 H 
ENDBRANCH  21  25
ENDBRANCH  16  19
ENDBRANCH  13  15
BRANCH  13  29
ATOM     29  C8  non d ame      -6.934  16.267  68.540  0.00  0.00    -0.049 C 
ATOM     30  H7  non d ame      -5.896  16.030  68.300  0.00  0.00     0.030 H 
ATOM     31  H8  non d ame      -7.263  17.109  67.931  0.00  0.00     0.030 H 
ATOM     32  H9  non d ame      -7.011  16.529  69.595  0.00  0.00     0.030 H 
ENDBRANCH  13  29
ENDBRANCH  10  13
ENDBRANCH   7   9
BRANCH   7  33
ATOM     33  C11 non d ame      -5.254  11.678  70.756  0.00  0.00    -0.033 C 
ATOM     34  H12 non d ame      -5.725  10.966  71.433  0.00  0.00     0.042 H 
BRANCH  33  35
ATOM     35  C12 non d ame      -3.802  11.176  70.483  0.00  0.00    -0.071 C 
ATOM     36  H13 non d ame      -3.687  10.956  69.422  0.00  0.00     0.028 H 
ATOM     37  H14 non d ame      -3.090  11.948  70.773  0.00  0.00     0.028 H 
ATOM     38  H15 non d ame      -3.616  10.273  71.063  0.00  0.00     0.028 H 
ENDBRANCH  33  35
BRANCH  33  39
ATOM     39  C13 non d ame      -5.247  13.076  71.454  0.00  0.00    -0.071 C 
ATOM     40  H16 non d ame      -4.632  13.031  72.352  0.00  0.00     0.028 H 
ATOM     41  H17 non d ame      -4.837  13.821  70.771  0.00  0.00     0.028 H 
ATOM     42  H18 non d ame      -6.266  13.353  71.724  0.00  0.00     0.028 H 
ENDBRANCH  33  39
ENDBRANCH   7  33
ENDBRANCH   4   7
ENDBRANCH   1   3
BRANCH   1  43
ATOM     43  C15 non d ame      -9.788   9.291  67.824  0.00  0.00     0.240 C 
ATOM     44  O5  non d ame     -10.533   8.406  67.552  0.00  0.00    -0.271 OA
ATOM     45  N6  non d ame      -9.269  10.181  66.746  0.00  0.00    -0.355 N 
ATOM     46  H46 non d ame      -8.639  10.938  66.966  0.00  0.00     0.162 HD
BRANCH  45  47
ATOM     47  C20 non d ame      -9.680   9.950  65.345  0.00  0.00     0.013 C 
ATOM     48  H30 non d ame      -9.929   8.894  65.237  0.00  0.00     0.072 H 
BRANCH  47  49
ATOM     49  C21 non d ame      -8.536  10.307  64.423  0.00  0.00    -0.038 C 
ATOM     50  H31 non d ame      -8.989  10.484  63.447  0.00  0.00     0.036 H 
ATOM     51  H32 non d ame      -7.992  11.108  64.925  0.00  0.00     0.036 H 
BRANCH  49  52
ATOM     52  C22 non d ame      -7.534   9.148  64.236  0.00  0.00     0.018 C 
ATOM     53  H33 non d ame      -6.625   9.603  63.842  0.00  0.00     0.048 H 
ATOM     54  H34 non d ame      -7.510   8.621  65.190  0.00  0.00     0.048 H 
BRANCH  52  55
ATOM     55  C23 non d ame      -7.979   8.099  63.179  0.00  0.00     0.259 C 
ATOM     56  O7  non d ame      -8.237   8.434  62.068  0.00  0.00    -0.265 OA
BRANCH  55  57
ATOM     57  O8  non d ame      -8.087   6.732  63.556  0.00  0.00    -0.317 OA
BRANCH  57  58
ATOM     58  C29 non d ame      -8.009   6.510  64.968  0.00  0.00     0.052 C 
ATOM     59  H47 non d ame      -7.856   7.493  65.412  0.00  0.00     0.082 H 
ATOM     60  H48 non d ame      -8.893   5.928  65.224  0.00  0.00     0.082 H 
BRANCH  58  61
ATOM     61  C35 non d ame      -6.752   5.643  65.247  0.00  0.00    -0.034 A 
ATOM     62  C30 non d ame      -5.608   5.803  64.472  0.00  0.00    -0.075 A 
ATOM     63  C31 non d ame      -4.480   5.024  64.723  0.00  0.00    -0.082 A 
ATOM     64  H49 non d ame      -5.595   6.540  63.668  0.00  0.00     0.084 H 
ATOM     65  C32 non d ame      -4.500   4.078  65.752  0.00  0.00    -0.083 A 
ATOM     66  H50 non d ame      -3.584   5.154  64.115  0.00  0.00     0.083 H 
ATOM     67  C33 non d ame      -5.645   3.919  66.520  0.00  0.00    -0.082 A 
ATOM     68  H51 non d ame      -3.622   3.465  65.955  0.00  0.00     0.083 H 
ATOM     69  C34 non d ame      -6.774   4.698  66.274  0.00  0.00    -0.075 A 
ATOM     70  H52 non d ame      -5.658   3.179  67.321  0.00  0.00     0.083 H 
ATOM     71  H53 non d ame      -7.669   4.568  66.884  0.00  0.00     0.084 H 
ENDBRANCH  58  61
ENDBRANCH  57  58
ENDBRANCH  55  57
ENDBRANCH  52  55
ENDBRANCH  49  52
ENDBRANCH  47  49
BRANCH  47  72
ATOM     72  C24 non d ame     -10.893  10.818  65.013  0.00  0.00    -0.039 C 
ATOM     73  H35 non d ame     -11.496  10.223  64.327  0.00  0.00     0.036 H 
ATOM     74  H36 non d ame     -11.305  11.121  65.976  0.00  0.00     0.036 H 
BRANCH  72  75
ATOM     75  C25 non d ame     -10.472  12.154  64.237  0.00  0.00    -0.001 C 
ATOM     76  C26 non d ame     -10.471  13.428  65.276  0.00  0.00    -0.035 C 
ATOM     77  C27 non d ame     -11.207  14.430  64.738  0.00  0.00     0.085 C 
ATOM     78  H38 non d ame     -11.015  13.171  66.184  0.00  0.00     0.036 H 
ATOM     79  H39 non d ame      -9.471  13.855  65.343  0.00  0.00     0.036 H 
ATOM     80  N5  non d ame     -11.979  13.839  63.582  0.00  0.00    -0.049 N 
ATOM     81  H40 non d ame     -11.909  14.727  65.518  0.00  0.00     0.075 H 
ATOM     82  H41 non d ame     -10.485  15.148  64.353  0.00  0.00     0.075 H 
ATOM     83  C28 non d ame     -11.290  12.413  63.272  0.00  0.00     0.193 C 
ATOM     84  H42 non d ame     -12.917  13.678  63.917  0.00  0.00     0.280 HD
ATOM     85  H43 non d ame     -11.822  14.449  62.792  0.00  0.00     0.280 HD
ATOM     86  H44 non d ame     -10.630  12.290  62.414  0.00  0.00     0.129 H 
ATOM     87  H37 non d ame      -9.581  12.012  63.625  0.00  0.00     0.046 H 
BRANCH  83  88
ATOM     88  O6  non d ame     -12.291  11.402  63.130  0.00  0.00    -0.369 OA
ATOM     89  H45 non d ame     -12.573  11.107  63.999  0.00  0.00     0.212 HD
ENDBRANCH  83  88
ENDBRANCH  72  75
ENDBRANCH  47  72
ENDBRANCH  45  47
ENDBRANCH   1  43
BRANCH   1  90
ATOM     90  C16 non d ame     -10.599   9.790  70.151  0.00  0.00    -0.035 C 
ATOM     91  H21 non d ame     -10.408  10.745  70.642  0.00  0.00     0.037 H 
ATOM     92  H22 non d ame     -11.445   9.686  69.472  0.00  0.00     0.037 H 
BRANCH  90  93
ATOM     93  C17 non d ame     -10.817   8.744  71.291  0.00  0.00    -0.059 C 
ATOM     94  H23 non d ame     -11.462   9.202  72.040  0.00  0.00     0.038 H 
BRANCH  93  95
ATOM     95  C18 non d ame     -11.527   7.451  70.777  0.00  0.00    -0.073 C 
ATOM     96  H24 non d ame     -11.067   6.577  71.238  0.00  0.00     0.028 H 
ATOM     97  H25 non d ame     -12.584   7.488  71.041  0.00  0.00     0.028 H 
ATOM     98  H26 non d ame     -11.425   7.387  69.693  0.00  0.00     0.028 H 
ENDBRANCH  93  95
BRANCH  93  99
ATOM     99  C19 non d ame      -9.493   8.402  71.980  0.00  0.00    -0.073 C 
ATOM    100  H27 non d ame      -9.108   7.463  71.580  0.00  0.00     0.028 H 
ATOM    101  H28 non d ame      -8.773   9.199  71.797  0.00  0.00     0.028 H 
ATOM    102  H29 non d ame      -9.658   8.300  73.053  0.00  0.00     0.028 H 
ENDBRANCH  93  99
ENDBRANCH  90  93
ENDBRANCH   1  90
TORSDOF 26
ENDMDL
MODEL 19
REMARK VINA RESULT:      -6.1      2.600      7.412
REMARK  26 active torsions:
REMARK  status: ('A' for Active; 'I' for Inactive)
REMARK    1  A    between atoms: C2_2  and  C3_3 
REMARK    2  A    between atoms: C4_6  and  C5_7 
REMARK       I    between atoms: C5_7  and  N2_9 
REMARK    3  A    between atoms: N2_9  and  C6_10 
REMARK    4  A    between atoms: C6_10  and  C7_11 
REMARK    5  A    between atoms: C6_10  and  C8_13 
REMARK       I    between atoms: C7_11  and  N3_14 
REMARK    6  A    between atoms: N3_14  and  C9_15 
REMARK    7  A    between atoms: C9_15  and  C10_16 
REMARK    8  A    between atoms: C9_15  and  C11_18 
REMARK       I    between atoms: C10_16  and  N4_21 
REMARK    9  A    between atoms: C11_18  and  C12_19 
REMARK   10  A    between atoms: C11_18  and  C13_20 
REMARK   11  A    between atoms: N4_21  and  C14_22 
REMARK   12  A    between atoms: C14_22  and  C15_23 
REMARK   13  A    between atoms: C14_22  and  C16_25 
REMARK       I    between atoms: C15_23  and  N6_40 
REMARK   14  A    between atoms: C16_25  and  C17_26 
REMARK   15  A    between atoms: C17_26  and  C18_27 
REMARK   16  A    between atoms: C17_26  and  C19_28 
REMARK   17  A    between atoms: C20_29  and  C21_30 
REMARK   18  A    between atoms: C20_29  and  C24_33 
REMARK   19  A    between atoms: C20_29  and  N6_40 
REMARK   20  A    between atoms: C21_30  and  C22_31 
REMARK   21  A    between atoms: C22_31  and  C23_32 
REMARK   22  A    between atoms: C23_32  and  O8_43 
REMARK   23  A    between atoms: C24_33  and  C25_34 
REMARK   24  A    between atoms: C28_38  and  O6_39 
REMARK   25  A    between atoms: C29_42  and  O8_43 
REMARK   26  A    between atoms: C29_42  and  C35_49 
ROOT
ATOM      1  C14 non d ame      -6.832  13.375  68.307  0.00  0.00     0.089 C 
ATOM      2  H20 non d ame      -6.134  13.281  67.474  0.00  0.00     0.087 H 
ENDROOT
BRANCH   1   3
ATOM      3  N4  non d ame      -7.083  14.794  68.510  0.00  0.00    -0.346 N 
ATOM      4  C10 non d ame      -6.205  15.825  67.845  0.00  0.00     0.241 C 
ATOM      5  O4  non d ame      -5.302  15.488  67.153  0.00  0.00    -0.271 OA
ATOM      6  H19 non d ame      -7.854  15.060  69.105  0.00  0.00     0.163 HD
BRANCH   4   7
ATOM      7  C9  non d ame      -6.482  17.290  68.062  0.00  0.00     0.092 C 
ATOM      8  H11 non d ame      -6.083  17.859  67.222  0.00  0.00     0.088 H 
BRANCH   7   9
ATOM      9  N3  non d ame      -7.931  17.515  68.086  0.00  0.00    -0.346 N 
ATOM     10  C7  non d ame      -8.644  17.758  66.857  0.00  0.00     0.240 C 
ATOM     11  O3  non d ame      -8.068  17.777  65.838  0.00  0.00    -0.271 OA
ATOM     12  H10 non d ame      -8.441  17.503  68.958  0.00  0.00     0.163 HD
BRANCH  10  13
ATOM     13  C6  non d ame     -10.185  18.001  66.891  0.00  0.00     0.086 C 
ATOM     14  H6  non d ame     -10.722  17.409  66.149  0.00  0.00     0.086 H 
BRANCH  13  15
ATOM     15  N2  non d ame     -10.697  17.600  68.192  0.00  0.00    -0.343 N 
ATOM     16  C5  non d ame     -11.220  16.244  68.376  0.00  0.00     0.273 C 
ATOM     17  O2  non d ame     -11.227  15.485  67.470  0.00  0.00    -0.266 OA
ATOM     18  H5  non d ame     -10.689  18.257  68.959  0.00  0.00     0.163 HD
BRANCH  16  19
ATOM     19  C4  non d ame     -11.762  15.808  69.745  0.00  0.00     0.154 A 
ATOM     20  C1  non d ame     -12.759  14.814  70.004  0.00  0.00    -0.017 A 
ATOM     21  C2  non d ame     -12.895  14.793  71.409  0.00  0.00     0.077 A 
ATOM     22  H1  non d ame     -13.300  14.201  69.282  0.00  0.00     0.091 H 
ATOM     23  O1  non d ame     -12.068  15.673  71.892  0.00  0.00    -0.218 OA
ATOM     24  N1  non d ame     -11.396  16.279  70.940  0.00  0.00    -0.123 NA
BRANCH  21  25
ATOM     25  C3  non d ame     -13.836  13.903  72.211  0.00  0.00    -0.029 C 
ATOM     26  H2  non d ame     -14.851  14.296  72.148  0.00  0.00     0.036 H 
ATOM     27  H3  non d ame     -13.813  12.892  71.805  0.00  0.00     0.036 H 
ATOM     28  H4  non d ame     -13.517  13.883  73.254  0.00  0.00     0.036 H 
ENDBRANCH  21  25
ENDBRANCH  16  19
ENDBRANCH  13  15
BRANCH  13  29
ATOM     29  C8  non d ame     -10.473  19.460  66.651  0.00  0.00    -0.049 C 
ATOM     30  H7  non d ame     -11.524  19.585  66.390  0.00  0.00     0.030 H 
ATOM     31  H8  non d ame     -10.252  20.029  67.554  0.00  0.00     0.030 H 
ATOM     32  H9  non d ame      -9.851  19.823  65.831  0.00  0.00     0.030 H 
ENDBRANCH  13  29
ENDBRANCH  10  13
ENDBRANCH   7   9
BRANCH   7  33
ATOM     33  C11 non d ame      -5.866  17.738  69.419  0.00  0.00    -0.033 C 
ATOM     34  H12 non d ame      -6.331  17.144  70.204  0.00  0.00     0.042 H 
BRANCH  33  35
ATOM     35  C12 non d ame      -4.331  17.461  69.466  0.00  0.00    -0.071 C 
ATOM     36  H13 non d ame      -3.939  17.749  70.441  0.00  0.00     0.028 H 
ATOM     37  H14 non d ame      -4.149  16.400  69.300  0.00  0.00     0.028 H 
ATOM     38  H15 non d ame      -3.834  18.042  68.690  0.00  0.00     0.028 H 
ENDBRANCH  33  35
BRANCH  33  39
ATOM     39  C13 non d ame      -6.177  19.243  69.704  0.00  0.00    -0.071 C 
ATOM     40  H16 non d ame      -5.469  19.628  70.437  0.00  0.00     0.028 H 
ATOM     41  H17 non d ame      -6.090  19.814  68.779  0.00  0.00     0.028 H 
ATOM     42  H18 non d ame      -7.191  19.337  70.094  0.00  0.00     0.028 H 
ENDBRANCH  33  39
ENDBRANCH   7  33
ENDBRANCH   4   7
ENDBRANCH   1   3
BRANCH   1  43
ATOM     43  C15 non d ame      -8.188  12.669  68.019  0.00  0.00     0.240 C 
ATOM     44  O5  non d ame      -9.204  13.176  68.369  0.00  0.00    -0.271 OA
ATOM     45  N6  non d ame      -8.220  11.364  67.299  0.00  0.00    -0.355 N 
ATOM     46  H46 non d ame      -7.363  10.926  66.994  0.00  0.00     0.162 HD
BRANCH  45  47
ATOM     47  C20 non d ame      -9.517  10.706  67.033  0.00  0.00     0.013 C 
ATOM     48  H30 non d ame     -10.310  11.396  67.324  0.00  0.00     0.072 H 
BRANCH  47  49
ATOM     49  C21 non d ame      -9.612   9.438  67.850  0.00  0.00    -0.038 C 
ATOM     50  H31 non d ame      -8.588   9.084  67.964  0.00  0.00     0.036 H 
ATOM     51  H32 non d ame     -10.201   9.698  68.730  0.00  0.00     0.036 H 
BRANCH  49  52
ATOM     52  C22 non d ame     -10.384   8.315  67.124  0.00  0.00     0.018 C 
ATOM     53  H33 non d ame     -11.372   8.289  67.584  0.00  0.00     0.048 H 
ATOM     54  H34 non d ame     -10.285   8.527  66.060  0.00  0.00     0.048 H 
BRANCH  52  55
ATOM     55  C23 non d ame      -9.778   6.899  67.336  0.00  0.00     0.259 C 
ATOM     56  O7  non d ame      -9.026   6.694  68.233  0.00  0.00    -0.265 OA
BRANCH  55  57
ATOM     57  O8  non d ame     -10.122   5.852  66.437  0.00  0.00    -0.317 OA
BRANCH  57  58
ATOM     58  C29 non d ame      -9.130   4.826  66.333  0.00  0.00     0.052 C 
ATOM     59  H47 non d ame      -8.597   4.834  67.283  0.00  0.00     0.082 H 
ATOM     60  H48 non d ame      -9.665   3.931  66.016  0.00  0.00     0.082 H 
BRANCH  58  61
ATOM     61  C35 non d ame      -8.139   5.230  65.209  0.00  0.00    -0.034 A 
ATOM     62  C30 non d ame      -6.792   5.419  65.501  0.00  0.00    -0.075 A 
ATOM     63  C31 non d ame      -5.903   5.782  64.491  0.00  0.00    -0.082 A 
ATOM     64  H49 non d ame      -6.434   5.282  66.521  0.00  0.00     0.084 H 
ATOM     65  C32 non d ame      -6.366   5.960  63.184  0.00  0.00    -0.083 A 
ATOM     66  H50 non d ame      -4.848   5.926  64.723  0.00  0.00     0.083 H 
ATOM     67  C33 non d ame      -7.712   5.774  62.898  0.00  0.00    -0.082 A 
ATOM     68  H51 non d ame      -5.677   6.243  62.389  0.00  0.00     0.083 H 
ATOM     69  C34 non d ame      -8.604   5.409  63.905  0.00  0.00    -0.075 A 
ATOM     70  H52 non d ame      -8.070   5.915  61.878  0.00  0.00     0.083 H 
ATOM     71  H53 non d ame      -9.659   5.263  63.671  0.00  0.00     0.084 H 
ENDBRANCH  58  61
ENDBRANCH  57  58
ENDBRANCH  55  57
ENDBRANCH  52  55
ENDBRANCH  49  52
ENDBRANCH  47  49
BRANCH  47  72
ATOM     72  C24 non d ame      -9.628  10.367  65.548  0.00  0.00    -0.039 C 
ATOM     73  H35 non d ame      -8.617  10.103  65.235  0.00  0.00     0.036 H 
ATOM     74  H36 non d ame     -10.429   9.630  65.477  0.00  0.00     0.036 H 
BRANCH  72  75
ATOM     75  C25 non d ame     -10.075  11.637  64.680  0.00  0.00    -0.001 C 
ATOM     76  C26 non d ame     -11.409  12.329  65.348  0.00  0.00    -0.035 C 
ATOM     77  C27 non d ame     -12.350  12.479  64.385  0.00  0.00     0.085 C 
ATOM     78  H38 non d ame     -11.874  11.641  66.053  0.00  0.00     0.036 H 
ATOM     79  H39 non d ame     -11.188  13.352  65.649  0.00  0.00     0.036 H 
ATOM     80  N5  non d ame     -11.904  11.656  63.200  0.00  0.00    -0.049 N 
ATOM     81  H40 non d ame     -13.261  12.043  64.797  0.00  0.00     0.075 H 
ATOM     82  H41 non d ame     -12.324  13.533  64.114  0.00  0.00     0.075 H 
ATOM     83  C28 non d ame     -10.352  11.300  63.465  0.00  0.00     0.193 C 
ATOM     84  H42 non d ame     -12.440  10.801  63.228  0.00  0.00     0.280 HD
ATOM     85  H43 non d ame     -11.961  12.261  62.393  0.00  0.00     0.280 HD
ATOM     86  H44 non d ame      -9.563  11.825  62.928  0.00  0.00     0.129 H 
ATOM     87  H37 non d ame      -9.237  12.295  64.451  0.00  0.00     0.046 H 
BRANCH  83  88
ATOM     88  O6  non d ame     -10.117   9.911  63.225  0.00  0.00    -0.369 OA
ATOM     89  H45 non d ame     -10.541   9.652  62.403  0.00  0.00     0.212 HD
ENDBRANCH  83  88
ENDBRANCH  72  75
ENDBRANCH  47  72
ENDBRANCH  45  47
ENDBRANCH   1  43
BRANCH   1  90
ATOM     90  C16 non d ame      -6.211  12.796  69.567  0.00  0.00    -0.035 C 
ATOM     91  H21 non d ame      -6.319  13.573  70.326  0.00  0.00     0.037 H 
ATOM     92  H22 non d ame      -6.692  11.828  69.708  0.00  0.00     0.037 H 
BRANCH  90  93
ATOM     93  C17 non d ame      -4.680  12.514  69.440  0.00  0.00    -0.059 C 
ATOM     94  H23 non d ame      -4.457  11.625  70.031  0.00  0.00     0.038 H 
BRANCH  93  95
ATOM     95  C18 non d ame      -4.255  12.224  67.965  0.00  0.00    -0.073 C 
ATOM     96  H24 non d ame      -3.897  13.144  67.503  0.00  0.00     0.028 H 
ATOM     97  H25 non d ame      -3.458  11.480  67.957  0.00  0.00     0.028 H 
ATOM     98  H26 non d ame      -5.112  11.845  67.408  0.00  0.00     0.028 H 
ENDBRANCH  93  95
BRANCH  93  99
ATOM     99  C19 non d ame      -3.860  13.666  70.027  0.00  0.00    -0.073 C 
ATOM    100  H27 non d ame      -2.991  13.264  70.548  0.00  0.00     0.028 H 
ATOM    101  H28 non d ame      -3.531  14.323  69.221  0.00  0.00     0.028 H 
ATOM    102  H29 non d ame      -4.476  14.231  70.726  0.00  0.00     0.028 H 
ENDBRANCH  93  99
ENDBRANCH  90  93
ENDBRANCH   1  90
TORSDOF 26
ENDMDL
MODEL 20
REMARK VINA RESULT:      -6.0      3.345      7.805
REMARK  26 active torsions:
REMARK  status: ('A' for Active; 'I' for Inactive)
REMARK    1  A    between atoms: C2_2  and  C3_3 
REMARK    2  A    between atoms: C4_6  and  C5_7 
REMARK       I    between atoms: C5_7  and  N2_9 
REMARK    3  A    between atoms: N2_9  and  C6_10 
REMARK    4  A    between atoms: C6_10  and  C7_11 
REMARK    5  A    between atoms: C6_10  and  C8_13 
REMARK       I    between atoms: C7_11  and  N3_14 
REMARK    6  A    between atoms: N3_14  and  C9_15 
REMARK    7  A    between atoms: C9_15  and  C10_16 
REMARK    8  A    between atoms: C9_15  and  C11_18 
REMARK       I    between atoms: C10_16  and  N4_21 
REMARK    9  A    between atoms: C11_18  and  C12_19 
REMARK   10  A    between atoms: C11_18  and  C13_20 
REMARK   11  A    between atoms: N4_21  and  C14_22 
REMARK   12  A    between atoms: C14_22  and  C15_23 
REMARK   13  A    between atoms: C14_22  and  C16_25 
REMARK       I    between atoms: C15_23  and  N6_40 
REMARK   14  A    between atoms: C16_25  and  C17_26 
REMARK   15  A    between atoms: C17_26  and  C18_27 
REMARK   16  A    between atoms: C17_26  and  C19_28 
REMARK   17  A    between atoms: C20_29  and  C21_30 
REMARK   18  A    between atoms: C20_29  and  C24_33 
REMARK   19  A    between atoms: C20_29  and  N6_40 
REMARK   20  A    between atoms: C21_30  and  C22_31 
REMARK   21  A    between atoms: C22_31  and  C23_32 
REMARK   22  A    between atoms: C23_32  and  O8_43 
REMARK   23  A    between atoms: C24_33  and  C25_34 
REMARK   24  A    between atoms: C28_38  and  O6_39 
REMARK   25  A    between atoms: C29_42  and  O8_43 
REMARK   26  A    between atoms: C29_42  and  C35_49 
ROOT
ATOM      1  C14 non d ame      -9.764  10.066  64.331  0.00  0.00     0.089 C 
ATOM      2  H20 non d ame     -10.606   9.415  64.569  0.00  0.00     0.087 H 
ENDROOT
BRANCH   1   3
ATOM      3  N4  non d ame      -9.196  10.524  65.591  0.00  0.00    -0.346 N 
ATOM      4  C10 non d ame      -9.652   9.921  66.896  0.00  0.00     0.241 C 
ATOM      5  O4  non d ame     -10.481   9.071  66.907  0.00  0.00    -0.271 OA
ATOM      6  H19 non d ame      -8.494  11.250  65.560  0.00  0.00     0.163 HD
BRANCH   4   7
ATOM      7  C9  non d ame      -9.050  10.403  68.190  0.00  0.00     0.092 C 
ATOM      8  H11 non d ame      -8.056  10.806  67.995  0.00  0.00     0.088 H 
BRANCH   7   9
ATOM      9  N3  non d ame      -9.863  11.499  68.729  0.00  0.00    -0.346 N 
ATOM     10  C7  non d ame      -9.676  12.842  68.241  0.00  0.00     0.240 C 
ATOM     11  O3  non d ame      -8.876  13.061  67.415  0.00  0.00    -0.271 OA
ATOM     12  H10 non d ame     -10.556  11.325  69.443  0.00  0.00     0.163 HD
BRANCH  10  13
ATOM     13  C6  non d ame     -10.541  14.004  68.822  0.00  0.00     0.086 C 
ATOM     14  H6  non d ame     -10.442  14.104  69.903  0.00  0.00     0.086 H 
BRANCH  13  15
ATOM     15  N2  non d ame     -10.091  15.260  68.244  0.00  0.00    -0.343 N 
ATOM     16  C5  non d ame     -10.441  16.522  68.900  0.00  0.00     0.273 C 
ATOM     17  O2  non d ame     -11.088  16.516  69.889  0.00  0.00    -0.266 OA
ATOM     18  H5  non d ame      -9.542  15.256  67.397  0.00  0.00     0.163 HD
BRANCH  16  19
ATOM     19  C4  non d ame      -9.972  17.857  68.301  0.00  0.00     0.154 A 
ATOM     20  C1  non d ame      -8.637  18.372  68.276  0.00  0.00    -0.017 A 
ATOM     21  C2  non d ame      -8.740  19.618  67.619  0.00  0.00     0.077 A 
ATOM     22  H1  non d ame      -7.732  17.911  68.673  0.00  0.00     0.091 H 
ATOM     23  O1  non d ame      -9.991  19.788  67.305  0.00  0.00    -0.218 OA
ATOM     24  N1  non d ame     -10.730  18.774  67.693  0.00  0.00    -0.123 NA
BRANCH  21  25
ATOM     25  C3  non d ame      -7.597  20.581  67.329  0.00  0.00    -0.029 C 
ATOM     26  H2  non d ame      -7.499  21.287  68.154  0.00  0.00     0.036 H 
ATOM     27  H3  non d ame      -6.669  20.022  67.218  0.00  0.00     0.036 H 
ATOM     28  H4  non d ame      -7.805  21.126  66.408  0.00  0.00     0.036 H 
ENDBRANCH  21  25
ENDBRANCH  16  19
ENDBRANCH  13  15
BRANCH  13  29
ATOM     29  C8  non d ame     -11.992  13.771  68.485  0.00  0.00    -0.049 C 
ATOM     30  H7  non d ame     -12.372  14.618  67.914  0.00  0.00     0.030 H 
ATOM     31  H8  non d ame     -12.087  12.861  67.893  0.00  0.00     0.030 H 
ATOM     32  H9  non d ame     -12.566  13.668  69.406  0.00  0.00     0.030 H 
ENDBRANCH  13  29
ENDBRANCH  10  13
ENDBRANCH   7   9
BRANCH   7  33
ATOM     33  C11 non d ame      -9.018   9.231  69.214  0.00  0.00    -0.033 C 
ATOM     34  H12 non d ame      -9.396   8.343  68.710  0.00  0.00     0.042 H 
BRANCH  33  35
ATOM     35  C12 non d ame      -7.560   8.923  69.679  0.00  0.00    -0.071 C 
ATOM     36  H13 non d ame      -7.538   7.962  70.193  0.00  0.00     0.028 H 
ATOM     37  H14 non d ame      -6.902   8.887  68.811  0.00  0.00     0.028 H 
ATOM     38  H15 non d ame      -7.224   9.705  70.358  0.00  0.00     0.028 H 
ENDBRANCH  33  35
BRANCH  33  39
ATOM     39  C13 non d ame      -9.949   9.529  70.434  0.00  0.00    -0.071 C 
ATOM     40  H16 non d ame     -10.981   9.309  70.164  0.00  0.00     0.028 H 
ATOM     41  H17 non d ame      -9.653   8.904  71.278  0.00  0.00     0.028 H 
ATOM     42  H18 non d ame      -9.860  10.579  70.711  0.00  0.00     0.028 H 
ENDBRANCH  33  39
ENDBRANCH   7  33
ENDBRANCH   4   7
ENDBRANCH   1   3
BRANCH   1  43
ATOM     43  C15 non d ame      -8.656   9.326  63.530  0.00  0.00     0.240 C 
ATOM     44  O5  non d ame      -8.157   9.849  62.587  0.00  0.00    -0.271 OA
ATOM     45  N6  non d ame      -8.209   7.964  63.944  0.00  0.00    -0.355 N 
ATOM     46  H46 non d ame      -8.622   7.511  64.746  0.00  0.00     0.162 HD
BRANCH  45  47
ATOM     47  C20 non d ame      -7.154   7.274  63.172  0.00  0.00     0.013 C 
ATOM     48  H30 non d ame      -7.227   7.601  62.135  0.00  0.00     0.072 H 
BRANCH  47  49
ATOM     49  C21 non d ame      -7.368   5.779  63.257  0.00  0.00    -0.038 C 
ATOM     50  H31 non d ame      -7.595   5.456  62.242  0.00  0.00     0.036 H 
ATOM     51  H32 non d ame      -6.492   5.385  63.772  0.00  0.00     0.036 H 
BRANCH  49  52
ATOM     52  C22 non d ame      -8.591   5.398  64.120  0.00  0.00     0.018 C 
ATOM     53  H33 non d ame      -9.124   6.331  64.306  0.00  0.00     0.048 H 
ATOM     54  H34 non d ame      -9.085   4.585  63.590  0.00  0.00     0.048 H 
BRANCH  52  55
ATOM     55  C23 non d ame      -8.219   4.833  65.519  0.00  0.00     0.259 C 
ATOM     56  O7  non d ame      -7.080   4.675  65.822  0.00  0.00    -0.265 OA
BRANCH  55  57
ATOM     57  O8  non d ame      -9.255   4.492  66.432  0.00  0.00    -0.317 OA
BRANCH  57  58
ATOM     58  C29 non d ame     -10.085   5.596  66.807  0.00  0.00     0.052 C 
ATOM     59  H47 non d ame      -9.589   6.484  66.418  0.00  0.00     0.082 H 
ATOM     60  H48 non d ame     -11.088   5.339  66.467  0.00  0.00     0.082 H 
BRANCH  58  61
ATOM     61  C35 non d ame     -10.099   5.679  68.357  0.00  0.00    -0.034 A 
ATOM     62  C30 non d ame      -8.988   5.271  69.087  0.00  0.00    -0.075 A 
ATOM     63  C31 non d ame      -9.001   5.346  70.479  0.00  0.00    -0.082 A 
ATOM     64  H49 non d ame      -8.105   4.895  68.568  0.00  0.00     0.084 H 
ATOM     65  C32 non d ame     -10.133   5.827  71.141  0.00  0.00    -0.083 A 
ATOM     66  H50 non d ame      -8.126   5.029  71.048  0.00  0.00     0.083 H 
ATOM     67  C33 non d ame     -11.243   6.228  70.409  0.00  0.00    -0.082 A 
ATOM     68  H51 non d ame     -10.151   5.889  72.229  0.00  0.00     0.083 H 
ATOM     69  C34 non d ame     -11.232   6.157  69.017  0.00  0.00    -0.075 A 
ATOM     70  H52 non d ame     -12.125   6.601  70.929  0.00  0.00     0.083 H 
ATOM     71  H53 non d ame     -12.107   6.476  68.449  0.00  0.00     0.084 H 
ENDBRANCH  58  61
ENDBRANCH  57  58
ENDBRANCH  55  57
ENDBRANCH  52  55
ENDBRANCH  49  52
ENDBRANCH  47  49
BRANCH  47  72
ATOM     72  C24 non d ame      -5.782   7.626  63.744  0.00  0.00    -0.039 C 
ATOM     73  H35 non d ame      -5.226   6.688  63.760  0.00  0.00     0.036 H 
ATOM     74  H36 non d ame      -5.423   8.461  63.143  0.00  0.00     0.036 H 
BRANCH  72  75
ATOM     75  C25 non d ame      -5.884   8.141  65.257  0.00  0.00    -0.001 C 
ATOM     76  C26 non d ame      -5.378   9.703  65.351  0.00  0.00    -0.035 C 
ATOM     77  C27 non d ame      -4.453   9.802  66.336  0.00  0.00     0.085 C 
ATOM     78  H38 non d ame      -4.824   9.971  64.453  0.00  0.00     0.036 H 
ATOM     79  H39 non d ame      -6.191  10.339  65.701  0.00  0.00     0.036 H 
ATOM     80  N5  non d ame      -4.043   8.395  66.700  0.00  0.00    -0.049 N 
ATOM     81  H40 non d ame      -3.602  10.315  65.886  0.00  0.00     0.075 H 
ATOM     82  H41 non d ame      -4.974  10.250  67.181  0.00  0.00     0.075 H 
ATOM     83  C28 non d ame      -5.155   7.425  66.046  0.00  0.00     0.193 C 
ATOM     84  H42 non d ame      -3.159   8.227  66.242  0.00  0.00     0.280 HD
ATOM     85  H43 non d ame      -4.110   8.329  67.706  0.00  0.00     0.280 HD
ATOM     86  H44 non d ame      -5.924   6.966  66.666  0.00  0.00     0.129 H 
ATOM     87  H37 non d ame      -6.847   7.904  65.709  0.00  0.00     0.046 H 
BRANCH  83  88
ATOM     88  O6  non d ame      -4.523   6.342  65.360  0.00  0.00    -0.369 OA
ATOM     89  H45 non d ame      -5.028   6.124  64.573  0.00  0.00     0.212 HD
ENDBRANCH  83  88
ENDBRANCH  72  75
ENDBRANCH  47  72
ENDBRANCH  45  47
ENDBRANCH   1  43
BRANCH   1  90
ATOM     90  C16 non d ame     -10.250  11.270  63.540  0.00  0.00    -0.035 C 
ATOM     91  H21 non d ame      -9.368  11.896  63.396  0.00  0.00     0.037 H 
ATOM     92  H22 non d ame     -10.771  10.856  62.677  0.00  0.00     0.037 H 
BRANCH  90  93
ATOM     93  C17 non d ame     -11.291  12.146  64.307  0.00  0.00    -0.059 C 
ATOM     94  H23 non d ame     -11.455  11.686  65.282  0.00  0.00     0.038 H 
BRANCH  93  95
ATOM     95  C18 non d ame     -10.774  13.600  64.549  0.00  0.00    -0.073 C 
ATOM     96  H24 non d ame     -11.531  14.169  65.089  0.00  0.00     0.028 H 
ATOM     97  H25 non d ame      -9.856  13.566  65.136  0.00  0.00     0.028 H 
ATOM     98  H26 non d ame     -10.574  14.078  63.589  0.00  0.00     0.028 H 
ENDBRANCH  93  95
BRANCH  93  99
ATOM     99  C19 non d ame     -12.637  12.160  63.579  0.00  0.00    -0.073 C 
ATOM    100  H27 non d ame     -13.432  12.393  64.289  0.00  0.00     0.028 H 
ATOM    101  H28 non d ame     -12.616  12.917  62.794  0.00  0.00     0.028 H 
ATOM    102  H29 non d ame     -12.821  11.182  63.134  0.00  0.00     0.028 H 
ENDBRANCH  93  99
ENDBRANCH  90  93
ENDBRANCH   1  90
TORSDOF 26
ENDMDL
