MODEL 1
REMARK VINA RESULT:      -7.2      0.000      0.000
REMARK  26 active torsions:
REMARK  status: ('A' for Active; 'I' for Inactive)
REMARK    1  A    between atoms: C2_2  and  C3_3 
REMARK    2  A    between atoms: C4_6  and  C5_7 
REMARK       I    between atoms: C5_7  and  N2_9 
REMARK    3  A    between atoms: N2_9  and  C6_10 
REMARK    4  A    between atoms: C6_10  and  C7_11 
REMARK    5  A    between atoms: C6_10  and  C8_13 
REMARK       I    between atoms: C7_11  and  N3_14 
REMARK    6  A    between atoms: N3_14  and  C9_15 
REMARK    7  A    between atoms: C9_15  and  C10_16 
REMARK    8  A    between atoms: C9_15  and  C11_18 
REMARK       I    between atoms: C10_16  and  N4_21 
REMARK    9  A    between atoms: C11_18  and  C12_19 
REMARK   10  A    between atoms: C11_18  and  C13_20 
REMARK   11  A    between atoms: N4_21  and  C14_22 
REMARK   12  A    between atoms: C14_22  and  C15_23 
REMARK   13  A    between atoms: C14_22  and  C16_25 
REMARK       I    between atoms: C15_23  and  N6_40 
REMARK   14  A    between atoms: C16_25  and  C17_26 
REMARK   15  A    between atoms: C17_26  and  C18_27 
REMARK   16  A    between atoms: C17_26  and  C19_28 
REMARK   17  A    between atoms: C20_29  and  C21_30 
REMARK   18  A    between atoms: C20_29  and  C24_33 
REMARK   19  A    between atoms: C20_29  and  N6_40 
REMARK   20  A    between atoms: C21_30  and  C22_31 
REMARK   21  A    between atoms: C22_31  and  C23_32 
REMARK   22  A    between atoms: C23_32  and  O8_43 
REMARK   23  A    between atoms: C24_33  and  C25_34 
REMARK   24  A    between atoms: C28_38  and  O6_39 
REMARK   25  A    between atoms: C29_42  and  O8_43 
REMARK   26  A    between atoms: C29_42  and  C35_49 
ROOT
ATOM      1  C14 non d ame     -10.095  10.414  68.537  0.00  0.00     0.089 C 
ATOM      2  H20 non d ame      -9.376  10.502  69.352  0.00  0.00     0.087 H 
ENDROOT
BRANCH   1   3
ATOM      3  N4  non d ame     -10.693   9.090  68.620  0.00  0.00    -0.346 N 
ATOM      4  C10 non d ame      -9.984   7.978  69.353  0.00  0.00     0.241 C 
ATOM      5  O4  non d ame      -8.931   8.174  69.866  0.00  0.00    -0.271 OA
ATOM      6  H19 non d ame     -11.588   8.943  68.175  0.00  0.00     0.163 HD
BRANCH   4   7
ATOM      7  C9  non d ame     -10.619   6.615  69.434  0.00  0.00     0.092 C 
ATOM      8  H11 non d ame     -11.669   6.691  69.153  0.00  0.00     0.088 H 
BRANCH   7   9
ATOM      9  N3  non d ame      -9.976   5.718  68.469  0.00  0.00    -0.346 N 
ATOM     10  C7  non d ame     -10.326   5.793  67.072  0.00  0.00     0.240 C 
ATOM     11  O3  non d ame     -11.123   6.568  66.706  0.00  0.00    -0.271 OA
ATOM     12  H10 non d ame      -9.287   5.043  68.769  0.00  0.00     0.163 HD
BRANCH  10  13
ATOM     13  C6  non d ame      -9.640   4.833  66.050  0.00  0.00     0.086 C 
ATOM     14  H6  non d ame     -10.257   4.641  65.172  0.00  0.00     0.086 H 
BRANCH  13  15
ATOM     15  N2  non d ame      -8.415   5.453  65.570  0.00  0.00    -0.343 N 
ATOM     16  C5  non d ame      -8.139   5.487  64.132  0.00  0.00     0.273 C 
ATOM     17  O2  non d ame      -8.907   5.011  63.371  0.00  0.00    -0.266 OA
ATOM     18  H5  non d ame      -7.764   5.855  66.229  0.00  0.00     0.163 HD
BRANCH  16  19
ATOM     19  C4  non d ame      -6.849   6.140  63.612  0.00  0.00     0.154 A 
ATOM     20  C1  non d ame      -6.548   7.538  63.558  0.00  0.00    -0.017 A 
ATOM     21  C2  non d ame      -5.251   7.609  63.004  0.00  0.00     0.077 A 
ATOM     22  H1  non d ame      -7.174   8.373  63.874  0.00  0.00     0.091 H 
ATOM     23  O1  non d ame      -4.861   6.390  62.772  0.00  0.00    -0.218 OA
ATOM     24  N1  non d ame      -5.777   5.515  63.118  0.00  0.00    -0.123 NA
BRANCH  21  25
ATOM     25  C3  non d ame      -4.456   8.879  62.730  0.00  0.00    -0.029 C 
ATOM     26  H2  non d ame      -4.736   9.646  63.452  0.00  0.00     0.036 H 
ATOM     27  H3  non d ame      -3.391   8.668  62.820  0.00  0.00     0.036 H 
ATOM     28  H4  non d ame      -4.672   9.234  61.722  0.00  0.00     0.036 H 
ENDBRANCH  21  25
ENDBRANCH  16  19
ENDBRANCH  13  15
BRANCH  13  29
ATOM     29  C8  non d ame      -9.326   3.521  66.721  0.00  0.00    -0.049 C 
ATOM     30  H7  non d ame      -8.750   3.706  67.629  0.00  0.00     0.030 H 
ATOM     31  H8  non d ame     -10.254   3.011  66.977  0.00  0.00     0.030 H 
ATOM     32  H9  non d ame      -8.742   2.897  66.044  0.00  0.00     0.030 H 
ENDBRANCH  13  29
ENDBRANCH  10  13
ENDBRANCH   7   9
BRANCH   7  33
ATOM     33  C11 non d ame     -10.437   6.044  70.871  0.00  0.00    -0.033 C 
ATOM     34  H12 non d ame      -9.637   6.605  71.350  0.00  0.00     0.042 H 
BRANCH  33  35
ATOM     35  C12 non d ame     -11.727   6.240  71.728  0.00  0.00    -0.071 C 
ATOM     36  H13 non d ame     -12.200   7.185  71.461  0.00  0.00     0.028 H 
ATOM     37  H14 non d ame     -12.419   5.421  71.536  0.00  0.00     0.028 H 
ATOM     38  H15 non d ame     -11.461   6.253  72.784  0.00  0.00     0.028 H 
ENDBRANCH  33  35
BRANCH  33  39
ATOM     39  C13 non d ame     -10.013   4.540  70.825  0.00  0.00    -0.071 C 
ATOM     40  H16 non d ame      -9.997   4.199  69.790  0.00  0.00     0.028 H 
ATOM     41  H17 non d ame      -9.019   4.430  71.259  0.00  0.00     0.028 H 
ATOM     42  H18 non d ame     -10.726   3.944  71.393  0.00  0.00     0.028 H 
ENDBRANCH  33  39
ENDBRANCH   7  33
ENDBRANCH   4   7
ENDBRANCH   1   3
BRANCH   1  43
ATOM     43  C15 non d ame     -11.228  11.475  68.636  0.00  0.00     0.240 C 
ATOM     44  O5  non d ame     -12.177  11.396  67.925  0.00  0.00    -0.271 OA
ATOM     45  N6  non d ame     -11.135  12.586  69.627  0.00  0.00    -0.355 N 
ATOM     46  H46 non d ame     -10.336  12.661  70.239  0.00  0.00     0.162 HD
BRANCH  45  47
ATOM     47  C20 non d ame     -12.221  13.586  69.710  0.00  0.00     0.013 C 
ATOM     48  H30 non d ame     -13.035  13.253  69.066  0.00  0.00     0.072 H 
BRANCH  47  49
ATOM     49  C21 non d ame     -11.705  14.926  69.236  0.00  0.00    -0.038 C 
ATOM     50  H31 non d ame     -12.503  15.638  69.441  0.00  0.00     0.036 H 
ATOM     51  H32 non d ame     -10.729  15.049  69.708  0.00  0.00     0.036 H 
BRANCH  49  52
ATOM     52  C22 non d ame     -11.461  14.969  67.712  0.00  0.00     0.018 C 
ATOM     53  H33 non d ame     -11.963  14.090  67.307  0.00  0.00     0.048 H 
ATOM     54  H34 non d ame     -11.766  15.966  67.393  0.00  0.00     0.048 H 
BRANCH  52  55
ATOM     55  C23 non d ame      -9.966  14.829  67.312  0.00  0.00     0.259 C 
ATOM     56  O7  non d ame      -9.159  14.478  68.111  0.00  0.00    -0.265 OA
BRANCH  55  57
ATOM     57  O8  non d ame      -9.568  15.139  65.982  0.00  0.00    -0.317 OA
BRANCH  57  58
ATOM     58  C29 non d ame     -10.654  15.216  65.054  0.00  0.00     0.052 C 
ATOM     59  H47 non d ame     -11.526  15.497  65.643  0.00  0.00     0.082 H 
ATOM     60  H48 non d ame     -10.308  15.865  64.250  0.00  0.00     0.082 H 
BRANCH  58  61
ATOM     61  C35 non d ame     -10.888  13.797  64.472  0.00  0.00    -0.034 A 
ATOM     62  C30 non d ame      -9.819  12.920  64.322  0.00  0.00    -0.075 A 
ATOM     63  C31 non d ame     -10.030  11.644  63.799  0.00  0.00    -0.082 A 
ATOM     64  H49 non d ame      -8.816  13.231  64.614  0.00  0.00     0.084 H 
ATOM     65  C32 non d ame     -11.316  11.249  63.423  0.00  0.00    -0.083 A 
ATOM     66  H50 non d ame      -9.190  10.959  63.686  0.00  0.00     0.083 H 
ATOM     67  C33 non d ame     -12.380  12.128  63.571  0.00  0.00    -0.082 A 
ATOM     68  H51 non d ame     -11.489  10.253  63.015  0.00  0.00     0.083 H 
ATOM     69  C34 non d ame     -12.173  13.403  64.096  0.00  0.00    -0.075 A 
ATOM     70  H52 non d ame     -13.382  11.816  63.275  0.00  0.00     0.083 H 
ATOM     71  H53 non d ame     -13.015  14.088  64.210  0.00  0.00     0.084 H 
ENDBRANCH  58  61
ENDBRANCH  57  58
ENDBRANCH  55  57
ENDBRANCH  52  55
ENDBRANCH  49  52
ENDBRANCH  47  49
BRANCH  47  72
ATOM     72  C24 non d ame     -12.703  13.706  71.154  0.00  0.00    -0.039 C 
ATOM     73  H35 non d ame     -13.707  13.281  71.161  0.00  0.00     0.036 H 
ATOM     74  H36 non d ame     -11.917  13.254  71.760  0.00  0.00     0.036 H 
BRANCH  72  75
ATOM     75  C25 non d ame     -12.833  15.235  71.612  0.00  0.00    -0.001 C 
ATOM     76  C26 non d ame     -11.782  15.543  72.838  0.00  0.00    -0.035 C 
ATOM     77  C27 non d ame     -12.459  16.127  73.856  0.00  0.00     0.085 C 
ATOM     78  H38 non d ame     -11.427  14.609  73.271  0.00  0.00     0.036 H 
ATOM     79  H39 non d ame     -11.068  16.309  72.535  0.00  0.00     0.036 H 
ATOM     80  N5  non d ame     -13.930  15.947  73.568  0.00  0.00    -0.049 N 
ATOM     81  H40 non d ame     -12.198  15.554  74.746  0.00  0.00     0.075 H 
ATOM     82  H41 non d ame     -12.213  17.187  73.799  0.00  0.00     0.075 H 
ATOM     83  C28 non d ame     -14.028  15.502  72.019  0.00  0.00     0.193 C 
ATOM     84  H42 non d ame     -14.242  15.179  74.144  0.00  0.00     0.280 HD
ATOM     85  H43 non d ame     -14.355  16.858  73.668  0.00  0.00     0.280 HD
ATOM     86  H44 non d ame     -14.344  16.214  71.257  0.00  0.00     0.129 H 
ATOM     87  H37 non d ame     -12.821  15.921  70.764  0.00  0.00     0.046 H 
BRANCH  83  88
ATOM     88  O6  non d ame     -14.906  14.383  71.882  0.00  0.00    -0.369 OA
ATOM     89  H45 non d ame     -14.874  13.852  72.682  0.00  0.00     0.212 HD
ENDBRANCH  83  88
ENDBRANCH  72  75
ENDBRANCH  47  72
ENDBRANCH  45  47
ENDBRANCH   1  43
BRANCH   1  90
ATOM     90  C16 non d ame      -9.381  10.553  67.202  0.00  0.00    -0.035 C 
ATOM     91  H21 non d ame      -9.195   9.531  66.867  0.00  0.00     0.037 H 
ATOM     92  H22 non d ame     -10.008  11.215  66.606  0.00  0.00     0.037 H 
BRANCH  90  93
ATOM     93  C17 non d ame      -7.984  11.243  67.308  0.00  0.00    -0.059 C 
ATOM     94  H23 non d ame      -8.100  12.276  66.980  0.00  0.00     0.038 H 
BRANCH  93  95
ATOM     95  C18 non d ame      -7.447  11.268  68.775  0.00  0.00    -0.073 C 
ATOM     96  H24 non d ame      -6.839  10.381  68.953  0.00  0.00     0.028 H 
ATOM     97  H25 non d ame      -6.841  12.161  68.925  0.00  0.00     0.028 H 
ATOM     98  H26 non d ame      -8.288  11.278  69.469  0.00  0.00     0.028 H 
ENDBRANCH  93  95
BRANCH  93  99
ATOM     99  C19 non d ame      -6.973  10.580  66.369  0.00  0.00    -0.073 C 
ATOM    100  H27 non d ame      -7.083   9.496  66.424  0.00  0.00     0.028 H 
ATOM    101  H28 non d ame      -7.155  10.913  65.347  0.00  0.00     0.028 H 
ATOM    102  H29 non d ame      -5.962  10.859  66.667  0.00  0.00     0.028 H 
ENDBRANCH  93  99
ENDBRANCH  90  93
ENDBRANCH   1  90
TORSDOF 26
ENDMDL
MODEL 2
REMARK VINA RESULT:      -7.0      2.432      5.247
REMARK  26 active torsions:
REMARK  status: ('A' for Active; 'I' for Inactive)
REMARK    1  A    between atoms: C2_2  and  C3_3 
REMARK    2  A    between atoms: C4_6  and  C5_7 
REMARK       I    between atoms: C5_7  and  N2_9 
REMARK    3  A    between atoms: N2_9  and  C6_10 
REMARK    4  A    between atoms: C6_10  and  C7_11 
REMARK    5  A    between atoms: C6_10  and  C8_13 
REMARK       I    between atoms: C7_11  and  N3_14 
REMARK    6  A    between atoms: N3_14  and  C9_15 
REMARK    7  A    between atoms: C9_15  and  C10_16 
REMARK    8  A    between atoms: C9_15  and  C11_18 
REMARK       I    between atoms: C10_16  and  N4_21 
REMARK    9  A    between atoms: C11_18  and  C12_19 
REMARK   10  A    between atoms: C11_18  and  C13_20 
REMARK   11  A    between atoms: N4_21  and  C14_22 
REMARK   12  A    between atoms: C14_22  and  C15_23 
REMARK   13  A    between atoms: C14_22  and  C16_25 
REMARK       I    between atoms: C15_23  and  N6_40 
REMARK   14  A    between atoms: C16_25  and  C17_26 
REMARK   15  A    between atoms: C17_26  and  C18_27 
REMARK   16  A    between atoms: C17_26  and  C19_28 
REMARK   17  A    between atoms: C20_29  and  C21_30 
REMARK   18  A    between atoms: C20_29  and  C24_33 
REMARK   19  A    between atoms: C20_29  and  N6_40 
REMARK   20  A    between atoms: C21_30  and  C22_31 
REMARK   21  A    between atoms: C22_31  and  C23_32 
REMARK   22  A    between atoms: C23_32  and  O8_43 
REMARK   23  A    between atoms: C24_33  and  C25_34 
REMARK   24  A    between atoms: C28_38  and  O6_39 
REMARK   25  A    between atoms: C29_42  and  O8_43 
REMARK   26  A    between atoms: C29_42  and  C35_49 
ROOT
ATOM      1  C14 non d ame     -10.935   9.068  69.896  0.00  0.00     0.089 C 
ATOM      2  H20 non d ame     -11.655   8.249  69.868  0.00  0.00     0.087 H 
ENDROOT
BRANCH   1   3
ATOM      3  N4  non d ame      -9.910   8.784  68.902  0.00  0.00    -0.346 N 
ATOM      4  C10 non d ame      -9.706   7.376  68.399  0.00  0.00     0.241 C 
ATOM      5  O4  non d ame     -10.378   6.488  68.812  0.00  0.00    -0.271 OA
ATOM      6  H19 non d ame      -9.348   9.552  68.565  0.00  0.00     0.163 HD
BRANCH   4   7
ATOM      7  C9  non d ame      -8.645   7.101  67.366  0.00  0.00     0.092 C 
ATOM      8  H11 non d ame      -9.068   6.487  66.571  0.00  0.00     0.088 H 
BRANCH   7   9
ATOM      9  N3  non d ame      -8.217   8.364  66.756  0.00  0.00    -0.346 N 
ATOM     10  C7  non d ame      -8.019   8.444  65.331  0.00  0.00     0.240 C 
ATOM     11  O3  non d ame      -8.198   7.503  64.658  0.00  0.00    -0.271 OA
ATOM     12  H10 non d ame      -8.057   9.184  67.324  0.00  0.00     0.163 HD
BRANCH  10  13
ATOM     13  C6  non d ame      -7.560   9.791  64.688  0.00  0.00     0.086 C 
ATOM     14  H6  non d ame      -7.498   9.740  63.601  0.00  0.00     0.086 H 
BRANCH  13  15
ATOM     15  N2  non d ame      -8.538  10.820  65.001  0.00  0.00    -0.343 N 
ATOM     16  C5  non d ame      -9.750  10.935  64.187  0.00  0.00     0.273 C 
ATOM     17  O2  non d ame      -9.926  10.198  63.281  0.00  0.00    -0.266 OA
ATOM     18  H5  non d ame      -8.377  11.447  65.776  0.00  0.00     0.163 HD
BRANCH  16  19
ATOM     19  C4  non d ame     -10.792  12.018  64.507  0.00  0.00     0.154 A 
ATOM     20  C1  non d ame     -10.759  13.394  64.114  0.00  0.00    -0.017 A 
ATOM     21  C2  non d ame     -11.937  13.954  64.655  0.00  0.00     0.077 A 
ATOM     22  H1  non d ame      -9.998  13.906  63.526  0.00  0.00     0.091 H 
ATOM     23  O1  non d ame     -12.567  13.003  65.281  0.00  0.00    -0.218 OA
ATOM     24  N1  non d ame     -11.918  11.864  65.209  0.00  0.00    -0.123 NA
BRANCH  21  25
ATOM     25  C3  non d ame     -12.387  15.403  64.527  0.00  0.00    -0.029 C 
ATOM     26  H2  non d ame     -11.545  16.019  64.212  0.00  0.00     0.036 H 
ATOM     27  H3  non d ame     -13.184  15.472  63.787  0.00  0.00     0.036 H 
ATOM     28  H4  non d ame     -12.755  15.757  65.491  0.00  0.00     0.036 H 
ENDBRANCH  21  25
ENDBRANCH  16  19
ENDBRANCH  13  15
BRANCH  13  29
ATOM     29  C8  non d ame      -6.210  10.178  65.236  0.00  0.00    -0.049 C 
ATOM     30  H7  non d ame      -5.629   9.278  65.439  0.00  0.00     0.030 H 
ATOM     31  H8  non d ame      -5.684  10.793  64.506  0.00  0.00     0.030 H 
ATOM     32  H9  non d ame      -6.341  10.741  66.160  0.00  0.00     0.030 H 
ENDBRANCH  13  29
ENDBRANCH  10  13
ENDBRANCH   7   9
BRANCH   7  33
ATOM     33  C11 non d ame      -7.424   6.416  68.048  0.00  0.00    -0.033 C 
ATOM     34  H12 non d ame      -7.792   5.882  68.923  0.00  0.00     0.042 H 
BRANCH  33  35
ATOM     35  C12 non d ame      -6.761   5.366  67.102  0.00  0.00    -0.071 C 
ATOM     36  H13 non d ame      -6.515   4.469  67.671  0.00  0.00     0.028 H 
ATOM     37  H14 non d ame      -7.453   5.110  66.301  0.00  0.00     0.028 H 
ATOM     38  H15 non d ame      -5.850   5.787  66.677  0.00  0.00     0.028 H 
ENDBRANCH  33  35
BRANCH  33  39
ATOM     39  C13 non d ame      -6.385   7.478  68.531  0.00  0.00    -0.071 C 
ATOM     40  H16 non d ame      -5.377   7.095  68.379  0.00  0.00     0.028 H 
ATOM     41  H17 non d ame      -6.514   8.399  67.960  0.00  0.00     0.028 H 
ATOM     42  H18 non d ame      -6.541   7.684  69.590  0.00  0.00     0.028 H 
ENDBRANCH  33  39
ENDBRANCH   7  33
ENDBRANCH   4   7
ENDBRANCH   1   3
BRANCH   1  43
ATOM     43  C15 non d ame     -11.588  10.437  69.554  0.00  0.00     0.240 C 
ATOM     44  O5  non d ame     -11.970  10.651  68.450  0.00  0.00    -0.271 OA
ATOM     45  N6  non d ame     -11.747  11.480  70.609  0.00  0.00    -0.355 N 
ATOM     46  H46 non d ame     -11.430  11.307  71.551  0.00  0.00     0.162 HD
BRANCH  45  47
ATOM     47  C20 non d ame     -12.371  12.776  70.269  0.00  0.00     0.013 C 
ATOM     48  H30 non d ame     -13.054  12.612  69.436  0.00  0.00     0.072 H 
BRANCH  47  49
ATOM     49  C21 non d ame     -11.295  13.759  69.867  0.00  0.00    -0.038 C 
ATOM     50  H31 non d ame     -11.537  14.688  70.382  0.00  0.00     0.036 H 
ATOM     51  H32 non d ame     -10.348  13.257  70.065  0.00  0.00     0.036 H 
BRANCH  49  52
ATOM     52  C22 non d ame     -11.311  14.081  68.356  0.00  0.00     0.018 C 
ATOM     53  H33 non d ame     -11.981  13.348  67.905  0.00  0.00     0.048 H 
ATOM     54  H34 non d ame     -11.539  15.144  68.283  0.00  0.00     0.048 H 
BRANCH  52  55
ATOM     55  C23 non d ame      -9.935  13.888  67.660  0.00  0.00     0.259 C 
ATOM     56  O7  non d ame      -9.401  12.826  67.663  0.00  0.00    -0.265 OA
BRANCH  55  57
ATOM     57  O8  non d ame      -9.312  15.000  67.029  0.00  0.00    -0.317 OA
BRANCH  57  58
ATOM     58  C29 non d ame      -8.739  15.941  67.942  0.00  0.00     0.052 C 
ATOM     59  H47 non d ame      -9.078  15.635  68.931  0.00  0.00     0.082 H 
ATOM     60  H48 non d ame      -7.674  15.963  67.714  0.00  0.00     0.082 H 
BRANCH  58  61
ATOM     61  C35 non d ame      -9.337  17.338  67.627  0.00  0.00    -0.034 A 
ATOM     62  C30 non d ame      -9.309  18.342  68.590  0.00  0.00    -0.075 A 
ATOM     63  C31 non d ame      -9.847  19.597  68.306  0.00  0.00    -0.082 A 
ATOM     64  H49 non d ame      -8.865  18.146  69.566  0.00  0.00     0.084 H 
ATOM     65  C32 non d ame     -10.417  19.845  67.055  0.00  0.00    -0.083 A 
ATOM     66  H50 non d ame      -9.820  20.382  69.062  0.00  0.00     0.083 H 
ATOM     67  C33 non d ame     -10.447  18.839  66.098  0.00  0.00    -0.082 A 
ATOM     68  H51 non d ame     -10.839  20.823  66.825  0.00  0.00     0.083 H 
ATOM     69  C34 non d ame      -9.909  17.584  66.377  0.00  0.00    -0.075 A 
ATOM     70  H52 non d ame     -10.895  19.035  65.124  0.00  0.00     0.083 H 
ATOM     71  H53 non d ame      -9.935  16.799  65.620  0.00  0.00     0.084 H 
ENDBRANCH  58  61
ENDBRANCH  57  58
ENDBRANCH  55  57
ENDBRANCH  52  55
ENDBRANCH  49  52
ENDBRANCH  47  49
BRANCH  47  72
ATOM     72  C24 non d ame     -13.130  13.317  71.479  0.00  0.00    -0.039 C 
ATOM     73  H35 non d ame     -14.185  13.231  71.221  0.00  0.00     0.036 H 
ATOM     74  H36 non d ame     -12.734  12.773  72.337  0.00  0.00     0.036 H 
BRANCH  72  75
ATOM     75  C25 non d ame     -12.827  14.871  71.724  0.00  0.00    -0.001 C 
ATOM     76  C26 non d ame     -12.080  15.073  73.175  0.00  0.00    -0.035 C 
ATOM     77  C27 non d ame     -12.744  16.023  73.878  0.00  0.00     0.085 C 
ATOM     78  H38 non d ame     -12.197  14.177  73.784  0.00  0.00     0.036 H 
ATOM     79  H39 non d ame     -11.092  15.508  73.030  0.00  0.00     0.036 H 
ATOM     80  N5  non d ame     -14.061  16.251  73.176  0.00  0.00    -0.049 N 
ATOM     81  H40 non d ame     -12.934  15.581  74.857  0.00  0.00     0.075 H 
ATOM     82  H41 non d ame     -12.137  16.923  73.795  0.00  0.00     0.075 H 
ATOM     83  C28 non d ame     -13.915  15.566  71.722  0.00  0.00     0.193 C 
ATOM     84  H42 non d ame     -14.757  15.743  73.703  0.00  0.00     0.280 HD
ATOM     85  H43 non d ame     -14.151  17.249  73.053  0.00  0.00     0.280 HD
ATOM     86  H44 non d ame     -13.758  16.178  70.834  0.00  0.00     0.129 H 
ATOM     87  H37 non d ame     -12.363  15.342  70.857  0.00  0.00     0.046 H 
BRANCH  83  88
ATOM     88  O6  non d ame     -15.064  14.766  71.435  0.00  0.00    -0.369 OA
ATOM     89  H45 non d ame     -15.858  15.253  71.668  0.00  0.00     0.212 HD
ENDBRANCH  83  88
ENDBRANCH  72  75
ENDBRANCH  47  72
ENDBRANCH  45  47
ENDBRANCH   1  43
BRANCH   1  90
ATOM     90  C16 non d ame     -10.287   9.138  71.269  0.00  0.00    -0.035 C 
ATOM     91  H21 non d ame      -9.286   8.725  71.137  0.00  0.00     0.037 H 
ATOM     92  H22 non d ame     -10.412  10.171  71.594  0.00  0.00     0.037 H 
BRANCH  90  93
ATOM     93  C17 non d ame     -10.993   8.249  72.341  0.00  0.00    -0.059 C 
ATOM     94  H23 non d ame     -10.746   8.655  73.322  0.00  0.00     0.038 H 
BRANCH  93  95
ATOM     95  C18 non d ame     -12.548   8.272  72.195  0.00  0.00    -0.073 C 
ATOM     96  H24 non d ame     -12.952   7.292  72.453  0.00  0.00     0.028 H 
ATOM     97  H25 non d ame     -12.965   9.023  72.866  0.00  0.00     0.028 H 
ATOM     98  H26 non d ame     -12.813   8.516  71.166  0.00  0.00     0.028 H 
ENDBRANCH  93  95
BRANCH  93  99
ATOM     99  C19 non d ame     -10.463   6.813  72.297  0.00  0.00    -0.073 C 
ATOM    100  H27 non d ame     -10.868   6.303  71.422  0.00  0.00     0.028 H 
ATOM    101  H28 non d ame      -9.374   6.831  72.237  0.00  0.00     0.028 H 
ATOM    102  H29 non d ame     -10.768   6.285  73.200  0.00  0.00     0.028 H 
ENDBRANCH  93  99
ENDBRANCH  90  93
ENDBRANCH   1  90
TORSDOF 26
ENDMDL
MODEL 3
REMARK VINA RESULT:      -6.9      2.488      6.044
REMARK  26 active torsions:
REMARK  status: ('A' for Active; 'I' for Inactive)
REMARK    1  A    between atoms: C2_2  and  C3_3 
REMARK    2  A    between atoms: C4_6  and  C5_7 
REMARK       I    between atoms: C5_7  and  N2_9 
REMARK    3  A    between atoms: N2_9  and  C6_10 
REMARK    4  A    between atoms: C6_10  and  C7_11 
REMARK    5  A    between atoms: C6_10  and  C8_13 
REMARK       I    between atoms: C7_11  and  N3_14 
REMARK    6  A    between atoms: N3_14  and  C9_15 
REMARK    7  A    between atoms: C9_15  and  C10_16 
REMARK    8  A    between atoms: C9_15  and  C11_18 
REMARK       I    between atoms: C10_16  and  N4_21 
REMARK    9  A    between atoms: C11_18  and  C12_19 
REMARK   10  A    between atoms: C11_18  and  C13_20 
REMARK   11  A    between atoms: N4_21  and  C14_22 
REMARK   12  A    between atoms: C14_22  and  C15_23 
REMARK   13  A    between atoms: C14_22  and  C16_25 
REMARK       I    between atoms: C15_23  and  N6_40 
REMARK   14  A    between atoms: C16_25  and  C17_26 
REMARK   15  A    between atoms: C17_26  and  C18_27 
REMARK   16  A    between atoms: C17_26  and  C19_28 
REMARK   17  A    between atoms: C20_29  and  C21_30 
REMARK   18  A    between atoms: C20_29  and  C24_33 
REMARK   19  A    between atoms: C20_29  and  N6_40 
REMARK   20  A    between atoms: C21_30  and  C22_31 
REMARK   21  A    between atoms: C22_31  and  C23_32 
REMARK   22  A    between atoms: C23_32  and  O8_43 
REMARK   23  A    between atoms: C24_33  and  C25_34 
REMARK   24  A    between atoms: C28_38  and  O6_39 
REMARK   25  A    between atoms: C29_42  and  O8_43 
REMARK   26  A    between atoms: C29_42  and  C35_49 
ROOT
ATOM      1  C14 non d ame      -8.716   9.506  64.666  0.00  0.00     0.089 C 
ATOM      2  H20 non d ame      -7.734   9.663  65.115  0.00  0.00     0.087 H 
ENDROOT
BRANCH   1   3
ATOM      3  N4  non d ame      -8.929   8.070  64.569  0.00  0.00    -0.346 N 
ATOM      4  C10 non d ame      -7.873   7.108  65.055  0.00  0.00     0.241 C 
ATOM      5  O4  non d ame      -6.858   7.515  65.518  0.00  0.00    -0.271 OA
ATOM      6  H19 non d ame      -9.798   7.743  64.170  0.00  0.00     0.163 HD
BRANCH   4   7
ATOM      7  C9  non d ame      -8.112   5.625  64.952  0.00  0.00     0.092 C 
ATOM      8  H11 non d ame      -7.153   5.108  64.912  0.00  0.00     0.088 H 
BRANCH   7   9
ATOM      9  N3  non d ame      -8.805   5.157  66.157  0.00  0.00    -0.346 N 
ATOM     10  C7  non d ame      -8.050   4.612  67.257  0.00  0.00     0.240 C 
ATOM     11  O3  non d ame      -6.883   4.541  67.191  0.00  0.00    -0.271 OA
ATOM     12  H10 non d ame      -9.812   5.211  66.228  0.00  0.00     0.163 HD
BRANCH  10  13
ATOM     13  C6  non d ame      -8.794   4.112  68.535  0.00  0.00     0.086 C 
ATOM     14  H6  non d ame      -8.125   3.973  69.385  0.00  0.00     0.086 H 
BRANCH  13  15
ATOM     15  N2  non d ame      -9.770   5.114  68.934  0.00  0.00    -0.343 N 
ATOM     16  C5  non d ame      -9.367   6.196  69.835  0.00  0.00     0.273 C 
ATOM     17  O2  non d ame      -8.257   6.250  70.235  0.00  0.00    -0.266 OA
ATOM     18  H5  non d ame     -10.717   5.058  68.588  0.00  0.00     0.163 HD
BRANCH  16  19
ATOM     19  C4  non d ame     -10.388   7.261  70.263  0.00  0.00     0.154 A 
ATOM     20  C1  non d ame     -11.374   7.148  71.294  0.00  0.00    -0.017 A 
ATOM     21  C2  non d ame     -12.049   8.389  71.288  0.00  0.00     0.077 A 
ATOM     22  H1  non d ame     -11.570   6.297  71.947  0.00  0.00     0.091 H 
ATOM     23  O1  non d ame     -11.505   9.122  70.361  0.00  0.00    -0.218 OA
ATOM     24  N1  non d ame     -10.534   8.485  69.748  0.00  0.00    -0.123 NA
BRANCH  21  25
ATOM     25  C3  non d ame     -13.199   8.794  72.201  0.00  0.00    -0.029 C 
ATOM     26  H2  non d ame     -12.899   8.671  73.241  0.00  0.00     0.036 H 
ATOM     27  H3  non d ame     -13.458   9.836  72.018  0.00  0.00     0.036 H 
ATOM     28  H4  non d ame     -14.066   8.163  71.996  0.00  0.00     0.036 H 
ENDBRANCH  21  25
ENDBRANCH  16  19
ENDBRANCH  13  15
BRANCH  13  29
ATOM     29  C8  non d ame      -9.485   2.806  68.239  0.00  0.00    -0.049 C 
ATOM     30  H7  non d ame      -9.663   2.270  69.172  0.00  0.00     0.030 H 
ATOM     31  H8  non d ame     -10.437   3.001  67.745  0.00  0.00     0.030 H 
ATOM     32  H9  non d ame      -8.855   2.200  67.589  0.00  0.00     0.030 H 
ENDBRANCH  13  29
ENDBRANCH  10  13
ENDBRANCH   7   9
BRANCH   7  33
ATOM     33  C11 non d ame      -8.991   5.327  63.702  0.00  0.00    -0.033 C 
ATOM     34  H12 non d ame      -9.664   6.172  63.565  0.00  0.00     0.042 H 
BRANCH  33  35
ATOM     35  C12 non d ame      -8.121   5.204  62.412  0.00  0.00    -0.071 C 
ATOM     36  H13 non d ame      -7.116   5.575  62.615  0.00  0.00     0.028 H 
ATOM     37  H14 non d ame      -8.068   4.160  62.108  0.00  0.00     0.028 H 
ATOM     38  H15 non d ame      -8.571   5.794  61.615  0.00  0.00     0.028 H 
ENDBRANCH  33  35
BRANCH  33  39
ATOM     39  C13 non d ame      -9.860   4.047  63.922  0.00  0.00    -0.071 C 
ATOM     40  H16 non d ame      -9.354   3.185  63.488  0.00  0.00     0.028 H 
ATOM     41  H17 non d ame     -10.003   3.884  64.991  0.00  0.00     0.028 H 
ATOM     42  H18 non d ame     -10.829   4.179  63.442  0.00  0.00     0.028 H 
ENDBRANCH  33  39
ENDBRANCH   7  33
ENDBRANCH   4   7
ENDBRANCH   1   3
BRANCH   1  43
ATOM     43  C15 non d ame      -9.859  10.119  65.524  0.00  0.00     0.240 C 
ATOM     44  O5  non d ame     -10.399   9.457  66.350  0.00  0.00    -0.271 OA
ATOM     45  N6  non d ame     -10.275  11.537  65.322  0.00  0.00    -0.355 N 
ATOM     46  H46 non d ame      -9.821  12.110  64.627  0.00  0.00     0.162 HD
BRANCH  45  47
ATOM     47  C20 non d ame     -11.363  12.105  66.146  0.00  0.00     0.013 C 
ATOM     48  H30 non d ame     -12.019  11.288  66.447  0.00  0.00     0.072 H 
BRANCH  47  49
ATOM     49  C21 non d ame     -12.138  13.112  65.327  0.00  0.00    -0.038 C 
ATOM     50  H31 non d ame     -12.748  12.527  64.640  0.00  0.00     0.036 H 
ATOM     51  H32 non d ame     -12.614  13.776  66.050  0.00  0.00     0.036 H 
BRANCH  49  52
ATOM     52  C22 non d ame     -11.226  14.001  64.453  0.00  0.00     0.018 C 
ATOM     53  H33 non d ame     -10.285  14.084  64.997  0.00  0.00     0.048 H 
ATOM     54  H34 non d ame     -11.243  13.555  63.459  0.00  0.00     0.048 H 
BRANCH  52  55
ATOM     55  C23 non d ame     -11.749  15.455  64.280  0.00  0.00     0.259 C 
ATOM     56  O7  non d ame     -12.850  15.656  63.879  0.00  0.00    -0.265 OA
BRANCH  55  57
ATOM     57  O8  non d ame     -10.891  16.546  64.591  0.00  0.00    -0.317 OA
BRANCH  57  58
ATOM     58  C29 non d ame     -10.034  16.310  65.713  0.00  0.00     0.052 C 
ATOM     59  H47 non d ame     -10.508  15.512  66.283  0.00  0.00     0.082 H 
ATOM     60  H48 non d ame      -9.038  16.164  65.297  0.00  0.00     0.082 H 
BRANCH  58  61
ATOM     61  C35 non d ame     -10.020  17.595  66.583  0.00  0.00    -0.034 A 
ATOM     62  C30 non d ame     -10.446  18.805  66.046  0.00  0.00    -0.075 A 
ATOM     63  C31 non d ame     -10.433  19.959  66.828  0.00  0.00    -0.082 A 
ATOM     64  H49 non d ame     -10.792  18.849  65.013  0.00  0.00     0.084 H 
ATOM     65  C32 non d ame      -9.988  19.900  68.151  0.00  0.00    -0.083 A 
ATOM     66  H50 non d ame     -10.771  20.905  66.405  0.00  0.00     0.083 H 
ATOM     67  C33 non d ame      -9.559  18.691  68.682  0.00  0.00    -0.082 A 
ATOM     68  H51 non d ame      -9.975  20.798  68.769  0.00  0.00     0.083 H 
ATOM     69  C34 non d ame      -9.573  17.535  67.904  0.00  0.00    -0.075 A 
ATOM     70  H52 non d ame      -9.211  18.649  69.714  0.00  0.00     0.083 H 
ATOM     71  H53 non d ame      -9.237  16.588  68.329  0.00  0.00     0.084 H 
ENDBRANCH  58  61
ENDBRANCH  57  58
ENDBRANCH  55  57
ENDBRANCH  52  55
ENDBRANCH  49  52
ENDBRANCH  47  49
BRANCH  47  72
ATOM     72  C24 non d ame     -10.773  12.792  67.376  0.00  0.00    -0.039 C 
ATOM     73  H35 non d ame     -10.186  12.026  67.883  0.00  0.00     0.036 H 
ATOM     74  H36 non d ame     -10.285  13.692  67.000  0.00  0.00     0.036 H 
BRANCH  72  75
ATOM     75  C25 non d ame     -11.914  13.265  68.397  0.00  0.00    -0.001 C 
ATOM     76  C26 non d ame     -11.816  14.889  68.632  0.00  0.00    -0.035 C 
ATOM     77  C27 non d ame     -11.791  15.136  69.964  0.00  0.00     0.085 C 
ATOM     78  H38 non d ame     -10.852  15.260  68.286  0.00  0.00     0.036 H 
ATOM     79  H39 non d ame     -12.735  15.372  68.302  0.00  0.00     0.036 H 
ATOM     80  N5  non d ame     -11.532  13.816  70.652  0.00  0.00    -0.049 N 
ATOM     81  H40 non d ame     -10.935  15.793  70.123  0.00  0.00     0.075 H 
ATOM     82  H41 non d ame     -12.794  15.477  70.216  0.00  0.00     0.075 H 
ATOM     83  C28 non d ame     -11.794  12.677  69.540  0.00  0.00     0.193 C 
ATOM     84  H42 non d ame     -10.553  13.809  70.897  0.00  0.00     0.280 HD
ATOM     85  H43 non d ame     -12.234  13.728  71.373  0.00  0.00     0.280 HD
ATOM     86  H44 non d ame     -12.709  12.085  69.556  0.00  0.00     0.129 H 
ATOM     87  H37 non d ame     -12.893  12.860  68.137  0.00  0.00     0.046 H 
BRANCH  83  88
ATOM     88  O6  non d ame     -10.726  11.727  69.546  0.00  0.00    -0.369 OA
ATOM     89  H45 non d ame     -10.788  11.182  70.334  0.00  0.00     0.212 HD
ENDBRANCH  83  88
ENDBRANCH  72  75
ENDBRANCH  47  72
ENDBRANCH  45  47
ENDBRANCH   1  43
BRANCH   1  90
ATOM     90  C16 non d ame      -8.746  10.107  63.270  0.00  0.00    -0.035 C 
ATOM     91  H21 non d ame      -9.357   9.426  62.676  0.00  0.00     0.037 H 
ATOM     92  H22 non d ame      -9.059  11.141  63.408  0.00  0.00     0.037 H 
BRANCH  90  93
ATOM     93  C17 non d ame      -7.346  10.158  62.580  0.00  0.00    -0.059 C 
ATOM     94  H23 non d ame      -7.326  11.039  61.938  0.00  0.00     0.038 H 
BRANCH  93  95
ATOM     95  C18 non d ame      -6.183  10.296  63.614  0.00  0.00    -0.073 C 
ATOM     96  H24 non d ame      -6.427   9.729  64.512  0.00  0.00     0.028 H 
ATOM     97  H25 non d ame      -5.262   9.908  63.178  0.00  0.00     0.028 H 
ATOM     98  H26 non d ame      -6.049  11.347  63.871  0.00  0.00     0.028 H 
ENDBRANCH  93  95
BRANCH  93  99
ATOM     99  C19 non d ame      -7.133   8.937  61.681  0.00  0.00    -0.073 C 
ATOM    100  H27 non d ame      -7.884   8.181  61.912  0.00  0.00     0.028 H 
ATOM    101  H28 non d ame      -7.227   9.236  60.636  0.00  0.00     0.028 H 
ATOM    102  H29 non d ame      -6.138   8.527  61.853  0.00  0.00     0.028 H 
ENDBRANCH  93  99
ENDBRANCH  90  93
ENDBRANCH   1  90
TORSDOF 26
ENDMDL
MODEL 4
REMARK VINA RESULT:      -6.9      2.310      8.898
REMARK  26 active torsions:
REMARK  status: ('A' for Active; 'I' for Inactive)
REMARK    1  A    between atoms: C2_2  and  C3_3 
REMARK    2  A    between atoms: C4_6  and  C5_7 
REMARK       I    between atoms: C5_7  and  N2_9 
REMARK    3  A    between atoms: N2_9  and  C6_10 
REMARK    4  A    between atoms: C6_10  and  C7_11 
REMARK    5  A    between atoms: C6_10  and  C8_13 
REMARK       I    between atoms: C7_11  and  N3_14 
REMARK    6  A    between atoms: N3_14  and  C9_15 
REMARK    7  A    between atoms: C9_15  and  C10_16 
REMARK    8  A    between atoms: C9_15  and  C11_18 
REMARK       I    between atoms: C10_16  and  N4_21 
REMARK    9  A    between atoms: C11_18  and  C12_19 
REMARK   10  A    between atoms: C11_18  and  C13_20 
REMARK   11  A    between atoms: N4_21  and  C14_22 
REMARK   12  A    between atoms: C14_22  and  C15_23 
REMARK   13  A    between atoms: C14_22  and  C16_25 
REMARK       I    between atoms: C15_23  and  N6_40 
REMARK   14  A    between atoms: C16_25  and  C17_26 
REMARK   15  A    between atoms: C17_26  and  C18_27 
REMARK   16  A    between atoms: C17_26  and  C19_28 
REMARK   17  A    between atoms: C20_29  and  C21_30 
REMARK   18  A    between atoms: C20_29  and  C24_33 
REMARK   19  A    between atoms: C20_29  and  N6_40 
REMARK   20  A    between atoms: C21_30  and  C22_31 
REMARK   21  A    between atoms: C22_31  and  C23_32 
REMARK   22  A    between atoms: C23_32  and  O8_43 
REMARK   23  A    between atoms: C24_33  and  C25_34 
REMARK   24  A    between atoms: C28_38  and  O6_39 
REMARK   25  A    between atoms: C29_42  and  O8_43 
REMARK   26  A    between atoms: C29_42  and  C35_49 
ROOT
ATOM      1  C14 non d ame      -7.718   8.523  67.521  0.00  0.00     0.089 C 
ATOM      2  H20 non d ame      -7.724   7.730  66.772  0.00  0.00     0.087 H 
ENDROOT
BRANCH   1   3
ATOM      3  N4  non d ame      -8.496   9.632  66.991  0.00  0.00    -0.346 N 
ATOM      4  C10 non d ame      -9.693   9.372  66.110  0.00  0.00     0.241 C 
ATOM      5  O4  non d ame     -10.008   8.259  65.839  0.00  0.00    -0.271 OA
ATOM      6  H19 non d ame      -8.211  10.571  67.230  0.00  0.00     0.163 HD
BRANCH   4   7
ATOM      7  C9  non d ame     -10.490  10.531  65.574  0.00  0.00     0.092 C 
ATOM      8  H11 non d ame     -11.543  10.383  65.811  0.00  0.00     0.088 H 
BRANCH   7   9
ATOM      9  N3  non d ame     -10.066  11.766  66.242  0.00  0.00    -0.346 N 
ATOM     10  C7  non d ame     -10.934  12.400  67.202  0.00  0.00     0.240 C 
ATOM     11  O3  non d ame     -11.977  11.931  67.451  0.00  0.00    -0.271 OA
ATOM     12  H10 non d ame      -9.169  12.183  66.037  0.00  0.00     0.163 HD
BRANCH  10  13
ATOM     13  C6  non d ame     -10.478  13.716  67.907  0.00  0.00     0.086 C 
ATOM     14  H6  non d ame     -10.908  14.609  67.453  0.00  0.00     0.086 H 
BRANCH  13  15
ATOM     15  N2  non d ame     -10.933  13.692  69.288  0.00  0.00    -0.343 N 
ATOM     16  C5  non d ame     -11.787  14.773  69.786  0.00  0.00     0.273 C 
ATOM     17  O2  non d ame     -12.100  15.658  69.069  0.00  0.00    -0.266 OA
ATOM     18  H5  non d ame     -10.657  12.933  69.895  0.00  0.00     0.163 HD
BRANCH  16  19
ATOM     19  C4  non d ame     -12.275  14.760  71.243  0.00  0.00     0.154 A 
ATOM     20  C1  non d ame     -11.836  15.607  72.310  0.00  0.00    -0.017 A 
ATOM     21  C2  non d ame     -12.587  15.194  73.433  0.00  0.00     0.077 A 
ATOM     22  H1  non d ame     -11.088  16.399  72.274  0.00  0.00     0.091 H 
ATOM     23  O1  non d ame     -13.364  14.226  73.046  0.00  0.00    -0.218 OA
ATOM     24  N1  non d ame     -13.200  13.954  71.771  0.00  0.00    -0.123 NA
BRANCH  21  25
ATOM     25  C3  non d ame     -12.502  15.779  74.837  0.00  0.00    -0.029 C 
ATOM     26  H2  non d ame     -13.143  15.207  75.508  0.00  0.00     0.036 H 
ATOM     27  H3  non d ame     -11.473  15.731  75.189  0.00  0.00     0.036 H 
ATOM     28  H4  non d ame     -12.832  16.819  74.818  0.00  0.00     0.036 H 
ENDBRANCH  21  25
ENDBRANCH  16  19
ENDBRANCH  13  15
BRANCH  13  29
ATOM     29  C8  non d ame      -8.975  13.820  67.860  0.00  0.00    -0.049 C 
ATOM     30  H7  non d ame      -8.683  14.485  67.047  0.00  0.00     0.030 H 
ATOM     31  H8  non d ame      -8.608  14.219  68.805  0.00  0.00     0.030 H 
ATOM     32  H9  non d ame      -8.548  12.832  67.691  0.00  0.00     0.030 H 
ENDBRANCH  13  29
ENDBRANCH  10  13
ENDBRANCH   7   9
BRANCH   7  33
ATOM     33  C11 non d ame     -10.247  10.663  64.042  0.00  0.00    -0.033 C 
ATOM     34  H12 non d ame     -10.734   9.818  63.558  0.00  0.00     0.042 H 
BRANCH  33  35
ATOM     35  C12 non d ame     -10.893  11.966  63.474  0.00  0.00    -0.071 C 
ATOM     36  H13 non d ame     -10.600  12.815  64.090  0.00  0.00     0.028 H 
ATOM     37  H14 non d ame     -10.554  12.124  62.451  0.00  0.00     0.028 H 
ATOM     38  H15 non d ame     -11.978  11.866  63.486  0.00  0.00     0.028 H 
ENDBRANCH  33  35
BRANCH  33  39
ATOM     39  C13 non d ame      -8.722  10.598  63.710  0.00  0.00    -0.071 C 
ATOM     40  H16 non d ame      -8.551  10.988  62.707  0.00  0.00     0.028 H 
ATOM     41  H17 non d ame      -8.166  11.197  64.432  0.00  0.00     0.028 H 
ATOM     42  H18 non d ame      -8.383   9.563  63.760  0.00  0.00     0.028 H 
ENDBRANCH  33  39
ENDBRANCH   7  33
ENDBRANCH   4   7
ENDBRANCH   1   3
BRANCH   1  43
ATOM     43  C15 non d ame      -8.358   8.068  68.864  0.00  0.00     0.240 C 
ATOM     44  O5  non d ame      -7.853   8.376  69.894  0.00  0.00    -0.271 OA
ATOM     45  N6  non d ame      -9.607   7.254  68.865  0.00  0.00    -0.355 N 
ATOM     46  H46 non d ame     -10.048   6.990  67.996  0.00  0.00     0.162 HD
BRANCH  45  47
ATOM     47  C20 non d ame     -10.204   6.830  70.150  0.00  0.00     0.013 C 
ATOM     48  H30 non d ame      -9.507   7.091  70.946  0.00  0.00     0.072 H 
BRANCH  47  49
ATOM     49  C21 non d ame     -10.426   5.334  70.129  0.00  0.00    -0.038 C 
ATOM     50  H31 non d ame     -10.587   5.046  71.167  0.00  0.00     0.036 H 
ATOM     51  H32 non d ame     -11.207   5.163  69.388  0.00  0.00     0.036 H 
BRANCH  49  52
ATOM     52  C22 non d ame      -9.186   4.552  69.645  0.00  0.00     0.018 C 
ATOM     53  H33 non d ame      -8.351   5.249  69.713  0.00  0.00     0.048 H 
ATOM     54  H34 non d ame      -9.174   3.629  70.225  0.00  0.00     0.048 H 
BRANCH  52  55
ATOM     55  C23 non d ame      -9.260   4.119  68.154  0.00  0.00     0.259 C 
ATOM     56  O7  non d ame      -9.447   2.982  67.865  0.00  0.00    -0.265 OA
BRANCH  55  57
ATOM     57  O8  non d ame      -9.089   5.097  67.136  0.00  0.00    -0.317 OA
BRANCH  57  58
ATOM     58  C29 non d ame      -9.047   4.557  65.811  0.00  0.00     0.052 C 
ATOM     59  H47 non d ame      -8.976   3.477  65.935  0.00  0.00     0.082 H 
ATOM     60  H48 non d ame      -9.900   4.991  65.290  0.00  0.00     0.082 H 
BRANCH  58  61
ATOM     61  C35 non d ame      -7.747   5.061  65.130  0.00  0.00    -0.034 A 
ATOM     62  C30 non d ame      -7.812   5.726  63.909  0.00  0.00    -0.075 A 
ATOM     63  C31 non d ame      -6.644   6.178  63.298  0.00  0.00    -0.082 A 
ATOM     64  H49 non d ame      -8.778   5.893  63.433  0.00  0.00     0.084 H 
ATOM     65  C32 non d ame      -5.407   5.960  63.909  0.00  0.00    -0.083 A 
ATOM     66  H50 non d ame      -6.699   6.702  62.343  0.00  0.00     0.083 H 
ATOM     67  C33 non d ame      -5.346   5.292  65.125  0.00  0.00    -0.082 A 
ATOM     68  H51 non d ame      -4.489   6.311  63.438  0.00  0.00     0.083 H 
ATOM     69  C34 non d ame      -6.511   4.841  65.741  0.00  0.00    -0.075 A 
ATOM     70  H52 non d ame      -4.378   5.122  65.598  0.00  0.00     0.083 H 
ATOM     71  H53 non d ame      -6.455   4.318  66.697  0.00  0.00     0.084 H 
ENDBRANCH  58  61
ENDBRANCH  57  58
ENDBRANCH  55  57
ENDBRANCH  52  55
ENDBRANCH  49  52
ENDBRANCH  47  49
BRANCH  47  72
ATOM     72  C24 non d ame     -11.539   7.541  70.358  0.00  0.00    -0.039 C 
ATOM     73  H35 non d ame     -11.913   7.755  69.356  0.00  0.00     0.036 H 
ATOM     74  H36 non d ame     -12.111   6.896  71.026  0.00  0.00     0.036 H 
BRANCH  72  75
ATOM     75  C25 non d ame     -11.353   8.947  71.103  0.00  0.00    -0.001 C 
ATOM     76  C26 non d ame     -12.563   9.166  72.195  0.00  0.00    -0.035 C 
ATOM     77  C27 non d ame     -13.125  10.381  71.985  0.00  0.00     0.085 C 
ATOM     78  H38 non d ame     -13.377   8.471  71.996  0.00  0.00     0.036 H 
ATOM     79  H39 non d ame     -12.149   9.247  73.200  0.00  0.00     0.036 H 
ATOM     80  N5  non d ame     -12.629  10.871  70.646  0.00  0.00    -0.049 N 
ATOM     81  H40 non d ame     -14.198  10.198  71.922  0.00  0.00     0.075 H 
ATOM     82  H41 non d ame     -12.726  11.025  72.768  0.00  0.00     0.075 H 
ATOM     83  C28 non d ame     -11.375   9.929  70.264  0.00  0.00     0.193 C 
ATOM     84  H42 non d ame     -13.373  10.700  69.986  0.00  0.00     0.280 HD
ATOM     85  H43 non d ame     -12.290  11.811  70.793  0.00  0.00     0.280 HD
ATOM     86  H44 non d ame     -10.354  10.297  70.362  0.00  0.00     0.129 H 
ATOM     87  H37 non d ame     -10.332   9.094  71.457  0.00  0.00     0.046 H 
BRANCH  83  88
ATOM     88  O6  non d ame     -11.490   9.478  68.912  0.00  0.00    -0.369 OA
ATOM     89  H45 non d ame     -12.298   9.826  68.528  0.00  0.00     0.212 HD
ENDBRANCH  83  88
ENDBRANCH  72  75
ENDBRANCH  47  72
ENDBRANCH  45  47
ENDBRANCH   1  43
BRANCH   1  90
ATOM     90  C16 non d ame      -6.292   8.989  67.766  0.00  0.00    -0.035 C 
ATOM     91  H21 non d ame      -6.332  10.078  67.712  0.00  0.00     0.037 H 
ATOM     92  H22 non d ame      -5.983   8.501  68.690  0.00  0.00     0.037 H 
BRANCH  90  93
ATOM     93  C17 non d ame      -5.285   8.530  66.665  0.00  0.00    -0.059 C 
ATOM     94  H23 non d ame      -5.552   7.513  66.376  0.00  0.00     0.038 H 
BRANCH  93  95
ATOM     95  C18 non d ame      -5.360   9.424  65.386  0.00  0.00    -0.073 C 
ATOM     96  H24 non d ame      -4.499   9.220  64.750  0.00  0.00     0.028 H 
ATOM     97  H25 non d ame      -6.276   9.201  64.841  0.00  0.00     0.028 H 
ATOM     98  H26 non d ame      -5.356  10.475  65.677  0.00  0.00     0.028 H 
ENDBRANCH  93  95
BRANCH  93  99
ATOM     99  C19 non d ame      -3.856   8.484  67.215  0.00  0.00    -0.073 C 
ATOM    100  H27 non d ame      -3.820   9.000  68.175  0.00  0.00     0.028 H 
ATOM    101  H28 non d ame      -3.552   7.446  67.347  0.00  0.00     0.028 H 
ATOM    102  H29 non d ame      -3.181   8.973  66.513  0.00  0.00     0.028 H 
ENDBRANCH  93  99
ENDBRANCH  90  93
ENDBRANCH   1  90
TORSDOF 26
ENDMDL
MODEL 5
REMARK VINA RESULT:      -6.8      2.268      5.724
REMARK  26 active torsions:
REMARK  status: ('A' for Active; 'I' for Inactive)
REMARK    1  A    between atoms: C2_2  and  C3_3 
REMARK    2  A    between atoms: C4_6  and  C5_7 
REMARK       I    between atoms: C5_7  and  N2_9 
REMARK    3  A    between atoms: N2_9  and  C6_10 
REMARK    4  A    between atoms: C6_10  and  C7_11 
REMARK    5  A    between atoms: C6_10  and  C8_13 
REMARK       I    between atoms: C7_11  and  N3_14 
REMARK    6  A    between atoms: N3_14  and  C9_15 
REMARK    7  A    between atoms: C9_15  and  C10_16 
REMARK    8  A    between atoms: C9_15  and  C11_18 
REMARK       I    between atoms: C10_16  and  N4_21 
REMARK    9  A    between atoms: C11_18  and  C12_19 
REMARK   10  A    between atoms: C11_18  and  C13_20 
REMARK   11  A    between atoms: N4_21  and  C14_22 
REMARK   12  A    between atoms: C14_22  and  C15_23 
REMARK   13  A    between atoms: C14_22  and  C16_25 
REMARK       I    between atoms: C15_23  and  N6_40 
REMARK   14  A    between atoms: C16_25  and  C17_26 
REMARK   15  A    between atoms: C17_26  and  C18_27 
REMARK   16  A    between atoms: C17_26  and  C19_28 
REMARK   17  A    between atoms: C20_29  and  C21_30 
REMARK   18  A    between atoms: C20_29  and  C24_33 
REMARK   19  A    between atoms: C20_29  and  N6_40 
REMARK   20  A    between atoms: C21_30  and  C22_31 
REMARK   21  A    between atoms: C22_31  and  C23_32 
REMARK   22  A    between atoms: C23_32  and  O8_43 
REMARK   23  A    between atoms: C24_33  and  C25_34 
REMARK   24  A    between atoms: C28_38  and  O6_39 
REMARK   25  A    between atoms: C29_42  and  O8_43 
REMARK   26  A    between atoms: C29_42  and  C35_49 
ROOT
ATOM      1  C14 non d ame     -12.037  14.060  69.904  0.00  0.00     0.089 C 
ATOM      2  H20 non d ame     -13.034  13.624  69.840  0.00  0.00     0.087 H 
ENDROOT
BRANCH   1   3
ATOM      3  N4  non d ame     -11.077  12.969  69.830  0.00  0.00    -0.346 N 
ATOM      4  C10 non d ame     -11.518  11.593  69.396  0.00  0.00     0.241 C 
ATOM      5  O4  non d ame     -12.653  11.389  69.113  0.00  0.00    -0.271 OA
ATOM      6  H19 non d ame     -10.116  13.162  70.077  0.00  0.00     0.163 HD
BRANCH   4   7
ATOM      7  C9  non d ame     -10.511  10.477  69.320  0.00  0.00     0.092 C 
ATOM      8  H11 non d ame      -9.860  10.520  70.193  0.00  0.00     0.088 H 
BRANCH   7   9
ATOM      9  N3  non d ame     -11.207   9.186  69.364  0.00  0.00    -0.346 N 
ATOM     10  C7  non d ame     -11.097   8.348  70.532  0.00  0.00     0.240 C 
ATOM     11  O3  non d ame     -10.453   8.694  71.446  0.00  0.00    -0.271 OA
ATOM     12  H10 non d ame     -11.766   8.874  68.583  0.00  0.00     0.163 HD
BRANCH  10  13
ATOM     13  C6  non d ame     -11.838   6.975  70.571  0.00  0.00     0.086 C 
ATOM     14  H6  non d ame     -12.920   7.081  70.648  0.00  0.00     0.086 H 
BRANCH  13  15
ATOM     15  N2  non d ame     -11.577   6.263  69.330  0.00  0.00    -0.343 N 
ATOM     16  C5  non d ame     -10.212   5.832  69.018  0.00  0.00     0.273 C 
ATOM     17  O2  non d ame      -9.332   6.065  69.771  0.00  0.00    -0.266 OA
ATOM     18  H5  non d ame     -12.336   6.071  68.692  0.00  0.00     0.163 HD
BRANCH  16  19
ATOM     19  C4  non d ame      -9.923   5.078  67.711  0.00  0.00     0.154 A 
ATOM     20  C1  non d ame     -10.708   5.089  66.515  0.00  0.00    -0.017 A 
ATOM     21  C2  non d ame     -10.016   4.244  65.619  0.00  0.00     0.077 A 
ATOM     22  H1  non d ame     -11.637   5.627  66.326  0.00  0.00     0.091 H 
ATOM     23  O1  non d ame      -8.958   3.807  66.236  0.00  0.00    -0.218 OA
ATOM     24  N1  non d ame      -8.882   4.280  67.459  0.00  0.00    -0.123 NA
BRANCH  21  25
ATOM     25  C3  non d ame     -10.432   3.910  64.192  0.00  0.00    -0.029 C 
ATOM     26  H2  non d ame     -11.210   4.602  63.868  0.00  0.00     0.036 H 
ATOM     27  H3  non d ame      -9.570   3.998  63.532  0.00  0.00     0.036 H 
ATOM     28  H4  non d ame     -10.816   2.889  64.155  0.00  0.00     0.036 H 
ENDBRANCH  21  25
ENDBRANCH  16  19
ENDBRANCH  13  15
BRANCH  13  29
ATOM     29  C8  non d ame     -11.343   6.167  71.743  0.00  0.00    -0.049 C 
ATOM     30  H7  non d ame     -10.256   6.237  71.799  0.00  0.00     0.030 H 
ATOM     31  H8  non d ame     -11.780   6.554  72.663  0.00  0.00     0.030 H 
ATOM     32  H9  non d ame     -11.632   5.124  71.613  0.00  0.00     0.030 H 
ENDBRANCH  13  29
ENDBRANCH  10  13
ENDBRANCH   7   9
BRANCH   7  33
ATOM     33  C11 non d ame      -9.713  10.588  67.988  0.00  0.00    -0.033 C 
ATOM     34  H12 non d ame     -10.087  11.459  67.453  0.00  0.00     0.042 H 
BRANCH  33  35
ATOM     35  C12 non d ame      -8.192  10.816  68.254  0.00  0.00    -0.071 C 
ATOM     36  H13 non d ame      -7.994  11.885  68.338  0.00  0.00     0.028 H 
ATOM     37  H14 non d ame      -7.907  10.321  69.182  0.00  0.00     0.028 H 
ATOM     38  H15 non d ame      -7.614  10.404  67.428  0.00  0.00     0.028 H 
ENDBRANCH  33  35
BRANCH  33  39
ATOM     39  C13 non d ame      -9.947   9.331  67.090  0.00  0.00    -0.071 C 
ATOM     40  H16 non d ame      -9.440   9.468  66.135  0.00  0.00     0.028 H 
ATOM     41  H17 non d ame      -9.548   8.447  67.590  0.00  0.00     0.028 H 
ATOM     42  H18 non d ame     -11.015   9.200  66.919  0.00  0.00     0.028 H 
ENDBRANCH  33  39
ENDBRANCH   7  33
ENDBRANCH   4   7
ENDBRANCH   1   3
BRANCH   1  43
ATOM     43  C15 non d ame     -11.752  15.049  68.738  0.00  0.00     0.240 C 
ATOM     44  O5  non d ame     -12.151  16.166  68.798  0.00  0.00    -0.271 OA
ATOM     45  N6  non d ame     -10.971  14.604  67.547  0.00  0.00    -0.355 N 
ATOM     46  H46 non d ame     -10.623  13.659  67.487  0.00  0.00     0.162 HD
BRANCH  45  47
ATOM     47  C20 non d ame     -10.707  15.556  66.447  0.00  0.00     0.013 C 
ATOM     48  H30 non d ame     -11.458  16.344  66.498  0.00  0.00     0.072 H 
BRANCH  47  49
ATOM     49  C21 non d ame     -10.808  14.832  65.124  0.00  0.00    -0.038 C 
ATOM     50  H31 non d ame     -11.874  14.685  64.949  0.00  0.00     0.036 H 
ATOM     51  H32 non d ame     -10.216  15.419  64.421  0.00  0.00     0.036 H 
BRANCH  49  52
ATOM     52  C22 non d ame     -10.173  13.425  65.161  0.00  0.00     0.018 C 
ATOM     53  H33 non d ame      -9.536  13.364  64.278  0.00  0.00     0.048 H 
ATOM     54  H34 non d ame      -9.738  13.323  66.155  0.00  0.00     0.048 H 
BRANCH  52  55
ATOM     55  C23 non d ame     -11.204  12.269  65.025  0.00  0.00     0.259 C 
ATOM     56  O7  non d ame     -12.138  12.205  65.756  0.00  0.00    -0.265 OA
BRANCH  55  57
ATOM     57  O8  non d ame     -11.010  11.277  64.025  0.00  0.00    -0.317 OA
BRANCH  57  58
ATOM     58  C29 non d ame     -10.087  11.658  62.999  0.00  0.00     0.052 C 
ATOM     59  H47 non d ame     -10.667  11.690  62.078  0.00  0.00     0.082 H 
ATOM     60  H48 non d ame      -9.595  12.559  63.366  0.00  0.00     0.082 H 
BRANCH  58  61
ATOM     61  C35 non d ame      -9.023  10.535  62.872  0.00  0.00    -0.034 A 
ATOM     62  C30 non d ame      -9.039   9.456  63.750  0.00  0.00    -0.075 A 
ATOM     63  C31 non d ame      -8.083   8.448  63.635  0.00  0.00    -0.082 A 
ATOM     64  H49 non d ame      -9.802   9.399  64.527  0.00  0.00     0.084 H 
ATOM     65  C32 non d ame      -7.105   8.524  62.640  0.00  0.00    -0.083 A 
ATOM     66  H50 non d ame      -8.101   7.602  64.322  0.00  0.00     0.083 H 
ATOM     67  C33 non d ame      -7.090   9.605  61.769  0.00  0.00    -0.082 A 
ATOM     68  H51 non d ame      -6.354   7.740  62.543  0.00  0.00     0.083 H 
ATOM     69  C34 non d ame      -8.045  10.613  61.878  0.00  0.00    -0.075 A 
ATOM     70  H52 non d ame      -6.324   9.662  60.994  0.00  0.00     0.083 H 
ATOM     71  H53 non d ame      -8.027  11.459  61.189  0.00  0.00     0.084 H 
ENDBRANCH  58  61
ENDBRANCH  57  58
ENDBRANCH  55  57
ENDBRANCH  52  55
ENDBRANCH  49  52
ENDBRANCH  47  49
BRANCH  47  72
ATOM     72  C24 non d ame      -9.307  16.147  66.600  0.00  0.00    -0.039 C 
ATOM     73  H35 non d ame      -8.792  15.492  67.305  0.00  0.00     0.036 H 
ATOM     74  H36 non d ame      -8.927  16.259  65.585  0.00  0.00     0.036 H 
BRANCH  72  75
ATOM     75  C25 non d ame      -9.347  17.608  67.255  0.00  0.00    -0.001 C 
ATOM     76  C26 non d ame      -8.450  18.650  66.354  0.00  0.00    -0.035 C 
ATOM     77  C27 non d ame      -7.584  19.298  67.170  0.00  0.00     0.085 C 
ATOM     78  H38 non d ame      -7.798  18.095  65.680  0.00  0.00     0.036 H 
ATOM     79  H39 non d ame      -9.081  19.449  65.966  0.00  0.00     0.036 H 
ATOM     80  N5  non d ame      -7.583  18.560  68.487  0.00  0.00    -0.049 N 
ATOM     81  H40 non d ame      -6.605  19.190  66.701  0.00  0.00     0.075 H 
ATOM     82  H41 non d ame      -8.011  20.289  67.319  0.00  0.00     0.075 H 
ATOM     83  C28 non d ame      -8.877  17.596  68.458  0.00  0.00     0.193 C 
ATOM     84  H42 non d ame      -6.753  17.985  68.492  0.00  0.00     0.280 HD
ATOM     85  H43 non d ame      -7.719  19.257  69.206  0.00  0.00     0.280 HD
ATOM     86  H44 non d ame      -9.773  17.852  69.023  0.00  0.00     0.129 H 
ATOM     87  H37 non d ame     -10.361  17.918  67.509  0.00  0.00     0.046 H 
BRANCH  83  88
ATOM     88  O6  non d ame      -8.521  16.279  68.883  0.00  0.00    -0.369 OA
ATOM     89  H45 non d ame      -8.641  16.206  69.833  0.00  0.00     0.212 HD
ENDBRANCH  83  88
ENDBRANCH  72  75
ENDBRANCH  47  72
ENDBRANCH  45  47
ENDBRANCH   1  43
BRANCH   1  90
ATOM     90  C16 non d ame     -11.872  14.777  71.234  0.00  0.00    -0.035 C 
ATOM     91  H21 non d ame     -11.120  14.204  71.779  0.00  0.00     0.037 H 
ATOM     92  H22 non d ame     -11.683  15.819  70.979  0.00  0.00     0.037 H 
BRANCH  90  93
ATOM     93  C17 non d ame     -13.160  14.765  72.117  0.00  0.00    -0.059 C 
ATOM     94  H23 non d ame     -13.929  15.327  71.587  0.00  0.00     0.038 H 
BRANCH  93  95
ATOM     95  C18 non d ame     -13.702  13.318  72.349  0.00  0.00    -0.073 C 
ATOM     96  H24 non d ame     -13.826  12.819  71.388  0.00  0.00     0.028 H 
ATOM     97  H25 non d ame     -12.994  12.759  72.961  0.00  0.00     0.028 H 
ATOM     98  H26 non d ame     -14.664  13.369  72.860  0.00  0.00     0.028 H 
ENDBRANCH  93  95
BRANCH  93  99
ATOM     99  C19 non d ame     -12.916  15.476  73.451  0.00  0.00    -0.073 C 
ATOM    100  H27 non d ame     -13.458  14.957  74.243  0.00  0.00     0.028 H 
ATOM    101  H28 non d ame     -11.849  15.469  73.675  0.00  0.00     0.028 H 
ATOM    102  H29 non d ame     -13.266  16.506  73.384  0.00  0.00     0.028 H 
ENDBRANCH  93  99
ENDBRANCH  90  93
ENDBRANCH   1  90
TORSDOF 26
ENDMDL
MODEL 6
REMARK VINA RESULT:      -6.7      3.909      8.265
REMARK  26 active torsions:
REMARK  status: ('A' for Active; 'I' for Inactive)
REMARK    1  A    between atoms: C2_2  and  C3_3 
REMARK    2  A    between atoms: C4_6  and  C5_7 
REMARK       I    between atoms: C5_7  and  N2_9 
REMARK    3  A    between atoms: N2_9  and  C6_10 
REMARK    4  A    between atoms: C6_10  and  C7_11 
REMARK    5  A    between atoms: C6_10  and  C8_13 
REMARK       I    between atoms: C7_11  and  N3_14 
REMARK    6  A    between atoms: N3_14  and  C9_15 
REMARK    7  A    between atoms: C9_15  and  C10_16 
REMARK    8  A    between atoms: C9_15  and  C11_18 
REMARK       I    between atoms: C10_16  and  N4_21 
REMARK    9  A    between atoms: C11_18  and  C12_19 
REMARK   10  A    between atoms: C11_18  and  C13_20 
REMARK   11  A    between atoms: N4_21  and  C14_22 
REMARK   12  A    between atoms: C14_22  and  C15_23 
REMARK   13  A    between atoms: C14_22  and  C16_25 
REMARK       I    between atoms: C15_23  and  N6_40 
REMARK   14  A    between atoms: C16_25  and  C17_26 
REMARK   15  A    between atoms: C17_26  and  C18_27 
REMARK   16  A    between atoms: C17_26  and  C19_28 
REMARK   17  A    between atoms: C20_29  and  C21_30 
REMARK   18  A    between atoms: C20_29  and  C24_33 
REMARK   19  A    between atoms: C20_29  and  N6_40 
REMARK   20  A    between atoms: C21_30  and  C22_31 
REMARK   21  A    between atoms: C22_31  and  C23_32 
REMARK   22  A    between atoms: C23_32  and  O8_43 
REMARK   23  A    between atoms: C24_33  and  C25_34 
REMARK   24  A    between atoms: C28_38  and  O6_39 
REMARK   25  A    between atoms: C29_42  and  O8_43 
REMARK   26  A    between atoms: C29_42  and  C35_49 
ROOT
ATOM      1  C14 non d ame      -6.550  16.021  67.778  0.00  0.00     0.089 C 
ATOM      2  H20 non d ame      -5.948  16.616  67.090  0.00  0.00     0.087 H 
ENDROOT
BRANCH   1   3
ATOM      3  N4  non d ame      -7.944  16.184  67.393  0.00  0.00    -0.346 N 
ATOM      4  C10 non d ame      -8.338  17.237  66.387  0.00  0.00     0.241 C 
ATOM      5  O4  non d ame      -7.515  17.943  65.903  0.00  0.00    -0.271 OA
ATOM      6  H19 non d ame      -8.629  15.575  67.817  0.00  0.00     0.163 HD
BRANCH   4   7
ATOM      7  C9  non d ame      -9.784  17.389  65.996  0.00  0.00     0.092 C 
ATOM      8  H11 non d ame      -9.845  17.909  65.040  0.00  0.00     0.088 H 
BRANCH   7   9
ATOM      9  N3  non d ame     -10.381  16.063  65.805  0.00  0.00    -0.346 N 
ATOM     10  C7  non d ame     -11.270  15.826  64.695  0.00  0.00     0.240 C 
ATOM     11  O3  non d ame     -11.518  16.689  63.945  0.00  0.00    -0.271 OA
ATOM     12  H10 non d ame     -10.178  15.307  66.444  0.00  0.00     0.163 HD
BRANCH  10  13
ATOM     13  C6  non d ame     -11.904  14.413  64.500  0.00  0.00     0.086 C 
ATOM     14  H6  non d ame     -12.518  14.346  63.601  0.00  0.00     0.086 H 
BRANCH  13  15
ATOM     15  N2  non d ame     -10.839  13.435  64.349  0.00  0.00    -0.343 N 
ATOM     16  C5  non d ame     -11.110  12.173  63.656  0.00  0.00     0.273 C 
ATOM     17  O2  non d ame     -12.188  11.954  63.226  0.00  0.00    -0.266 OA
ATOM     18  H5  non d ame      -9.921  13.630  64.722  0.00  0.00     0.163 HD
BRANCH  16  19
ATOM     19  C4  non d ame      -9.993  11.132  63.489  0.00  0.00     0.154 A 
ATOM     20  C1  non d ame      -8.973  11.110  62.485  0.00  0.00    -0.017 A 
ATOM     21  C2  non d ame      -8.206   9.959  62.771  0.00  0.00     0.077 A 
ATOM     22  H1  non d ame      -8.815  11.820  61.674  0.00  0.00     0.091 H 
ATOM     23  O1  non d ame      -8.730   9.395  63.820  0.00  0.00    -0.218 OA
ATOM     24  N1  non d ame      -9.774  10.061  64.257  0.00  0.00    -0.123 NA
BRANCH  21  25
ATOM     25  C3  non d ame      -6.989   9.471  61.996  0.00  0.00    -0.029 C 
ATOM     26  H2  non d ame      -7.268   8.614  61.384  0.00  0.00     0.036 H 
ATOM     27  H3  non d ame      -6.622  10.272  61.355  0.00  0.00     0.036 H 
ATOM     28  H4  non d ame      -6.205   9.179  62.696  0.00  0.00     0.036 H 
ENDBRANCH  21  25
ENDBRANCH  16  19
ENDBRANCH  13  15
BRANCH  13  29
ATOM     29  C8  non d ame     -12.754  14.070  65.696  0.00  0.00    -0.049 C 
ATOM     30  H7  non d ame     -12.906  12.991  65.737  0.00  0.00     0.030 H 
ATOM     31  H8  non d ame     -12.254  14.402  66.606  0.00  0.00     0.030 H 
ATOM     32  H9  non d ame     -13.720  14.568  65.610  0.00  0.00     0.030 H 
ENDBRANCH  13  29
ENDBRANCH  10  13
ENDBRANCH   7   9
BRANCH   7  33
ATOM     33  C11 non d ame     -10.550  18.142  67.122  0.00  0.00    -0.033 C 
ATOM     34  H12 non d ame     -11.580  17.788  67.114  0.00  0.00     0.042 H 
BRANCH  33  35
ATOM     35  C12 non d ame      -9.953  17.821  68.528  0.00  0.00    -0.071 C 
ATOM     36  H13 non d ame     -10.610  18.220  69.301  0.00  0.00     0.028 H 
ATOM     37  H14 non d ame      -9.866  16.741  68.647  0.00  0.00     0.028 H 
ATOM     38  H15 non d ame      -8.969  18.278  68.616  0.00  0.00     0.028 H 
ENDBRANCH  33  35
BRANCH  33  39
ATOM     39  C13 non d ame     -10.566  19.682  66.854  0.00  0.00    -0.071 C 
ATOM     40  H16 non d ame     -10.463  20.216  67.798  0.00  0.00     0.028 H 
ATOM     41  H17 non d ame      -9.737  19.945  66.195  0.00  0.00     0.028 H 
ATOM     42  H18 non d ame     -11.508  19.958  66.380  0.00  0.00     0.028 H 
ENDBRANCH  33  39
ENDBRANCH   7  33
ENDBRANCH   4   7
ENDBRANCH   1   3
BRANCH   1  43
ATOM     43  C15 non d ame      -6.193  14.509  67.713  0.00  0.00     0.240 C 
ATOM     44  O5  non d ame      -5.101  14.172  67.387  0.00  0.00    -0.271 OA
ATOM     45  N6  non d ame      -7.212  13.479  68.068  0.00  0.00    -0.355 N 
ATOM     46  H46 non d ame      -8.141  13.753  68.350  0.00  0.00     0.162 HD
BRANCH  45  47
ATOM     47  C20 non d ame      -6.857  12.045  68.002  0.00  0.00     0.013 C 
ATOM     48  H30 non d ame      -5.948  11.950  67.408  0.00  0.00     0.072 H 
BRANCH  47  49
ATOM     49  C21 non d ame      -7.984  11.280  67.346  0.00  0.00    -0.038 C 
ATOM     50  H31 non d ame      -7.655  11.089  66.325  0.00  0.00     0.036 H 
ATOM     51  H32 non d ame      -8.202  10.446  68.014  0.00  0.00     0.036 H 
BRANCH  49  52
ATOM     52  C22 non d ame      -9.285  12.105  67.239  0.00  0.00     0.018 C 
ATOM     53  H33 non d ame      -8.999  13.136  67.445  0.00  0.00     0.048 H 
ATOM     54  H34 non d ame      -9.723  11.843  66.276  0.00  0.00     0.048 H 
BRANCH  52  55
ATOM     55  C23 non d ame     -10.351  11.736  68.309  0.00  0.00     0.259 C 
ATOM     56  O7  non d ame     -10.225  10.758  68.973  0.00  0.00    -0.265 OA
BRANCH  55  57
ATOM     57  O8  non d ame     -11.488  12.573  68.477  0.00  0.00    -0.317 OA
BRANCH  57  58
ATOM     58  C29 non d ame     -11.187  13.860  69.024  0.00  0.00     0.052 C 
ATOM     59  H47 non d ame     -10.158  13.798  69.376  0.00  0.00     0.082 H 
ATOM     60  H48 non d ame     -11.455  14.579  68.250  0.00  0.00     0.082 H 
BRANCH  58  61
ATOM     61  C35 non d ame     -12.113  14.089  70.248  0.00  0.00    -0.034 A 
ATOM     62  C30 non d ame     -12.546  13.006  71.007  0.00  0.00    -0.075 A 
ATOM     63  C31 non d ame     -13.377  13.212  72.107  0.00  0.00    -0.082 A 
ATOM     64  H49 non d ame     -12.232  11.996  70.740  0.00  0.00     0.084 H 
ATOM     65  C32 non d ame     -13.779  14.506  72.445  0.00  0.00    -0.083 A 
ATOM     66  H50 non d ame     -13.712  12.361  72.701  0.00  0.00     0.083 H 
ATOM     67  C33 non d ame     -13.348  15.584  71.683  0.00  0.00    -0.082 A 
ATOM     68  H51 non d ame     -14.429  14.676  73.303  0.00  0.00     0.083 H 
ATOM     69  C34 non d ame     -12.515  15.383  70.584  0.00  0.00    -0.075 A 
ATOM     70  H52 non d ame     -13.666  16.593  71.949  0.00  0.00     0.083 H 
ATOM     71  H53 non d ame     -12.179  16.235  69.991  0.00  0.00     0.084 H 
ENDBRANCH  58  61
ENDBRANCH  57  58
ENDBRANCH  55  57
ENDBRANCH  52  55
ENDBRANCH  49  52
ENDBRANCH  47  49
BRANCH  47  72
ATOM     72  C24 non d ame      -6.627  11.505  69.413  0.00  0.00    -0.039 C 
ATOM     73  H35 non d ame      -7.234  12.134  70.066  0.00  0.00     0.036 H 
ATOM     74  H36 non d ame      -6.825  10.435  69.350  0.00  0.00     0.036 H 
BRANCH  72  75
ATOM     75  C25 non d ame      -5.102  11.678  69.873  0.00  0.00    -0.001 C 
ATOM     76  C26 non d ame      -4.545  10.265  70.504  0.00  0.00    -0.035 C 
ATOM     77  C27 non d ame      -3.990  10.517  71.714  0.00  0.00     0.085 C 
ATOM     78  H38 non d ame      -5.380   9.606  70.739  0.00  0.00     0.036 H 
ATOM     79  H39 non d ame      -3.708   9.896  69.912  0.00  0.00     0.036 H 
ATOM     80  N5  non d ame      -4.410  11.913  72.110  0.00  0.00    -0.049 N 
ATOM     81  H40 non d ame      -4.446   9.801  72.399  0.00  0.00     0.075 H 
ATOM     82  H41 non d ame      -2.914  10.504  71.549  0.00  0.00     0.075 H 
ATOM     83  C28 non d ame      -4.985  12.601  70.768  0.00  0.00     0.193 C 
ATOM     84  H42 non d ame      -5.167  11.808  72.768  0.00  0.00     0.280 HD
ATOM     85  H43 non d ame      -3.567  12.398  72.383  0.00  0.00     0.280 HD
ATOM     86  H44 non d ame      -4.391  13.333  70.221  0.00  0.00     0.129 H 
ATOM     87  H37 non d ame      -4.491  12.154  69.106  0.00  0.00     0.046 H 
BRANCH  83  88
ATOM     88  O6  non d ame      -6.230  13.248  71.040  0.00  0.00    -0.369 OA
ATOM     89  H45 non d ame      -6.236  13.559  71.949  0.00  0.00     0.212 HD
ENDBRANCH  83  88
ENDBRANCH  72  75
ENDBRANCH  47  72
ENDBRANCH  45  47
ENDBRANCH   1  43
BRANCH   1  90
ATOM     90  C16 non d ame      -6.365  16.530  69.198  0.00  0.00    -0.035 C 
ATOM     91  H21 non d ame      -7.245  17.142  69.402  0.00  0.00     0.037 H 
ATOM     92  H22 non d ame      -6.168  15.643  69.799  0.00  0.00     0.037 H 
BRANCH  90  93
ATOM     93  C17 non d ame      -5.127  17.466  69.372  0.00  0.00    -0.059 C 
ATOM     94  H23 non d ame      -4.286  16.846  69.682  0.00  0.00     0.038 H 
BRANCH  93  95
ATOM     95  C18 non d ame      -4.730  18.174  68.038  0.00  0.00    -0.073 C 
ATOM     96  H24 non d ame      -4.891  17.492  67.203  0.00  0.00     0.028 H 
ATOM     97  H25 non d ame      -5.345  19.064  67.903  0.00  0.00     0.028 H 
ATOM     98  H26 non d ame      -3.679  18.461  68.077  0.00  0.00     0.028 H 
ENDBRANCH  93  95
BRANCH  93  99
ATOM     99  C19 non d ame      -5.368  18.492  70.483  0.00  0.00    -0.073 C 
ATOM    100  H27 non d ame      -4.452  19.057  70.660  0.00  0.00     0.028 H 
ATOM    101  H28 non d ame      -6.164  19.173  70.180  0.00  0.00     0.028 H 
ATOM    102  H29 non d ame      -5.661  17.976  71.397  0.00  0.00     0.028 H 
ENDBRANCH  93  99
ENDBRANCH  90  93
ENDBRANCH   1  90
TORSDOF 26
ENDMDL
MODEL 7
REMARK VINA RESULT:      -6.7      3.714      8.153
REMARK  26 active torsions:
REMARK  status: ('A' for Active; 'I' for Inactive)
REMARK    1  A    between atoms: C2_2  and  C3_3 
REMARK    2  A    between atoms: C4_6  and  C5_7 
REMARK       I    between atoms: C5_7  and  N2_9 
REMARK    3  A    between atoms: N2_9  and  C6_10 
REMARK    4  A    between atoms: C6_10  and  C7_11 
REMARK    5  A    between atoms: C6_10  and  C8_13 
REMARK       I    between atoms: C7_11  and  N3_14 
REMARK    6  A    between atoms: N3_14  and  C9_15 
REMARK    7  A    between atoms: C9_15  and  C10_16 
REMARK    8  A    between atoms: C9_15  and  C11_18 
REMARK       I    between atoms: C10_16  and  N4_21 
REMARK    9  A    between atoms: C11_18  and  C12_19 
REMARK   10  A    between atoms: C11_18  and  C13_20 
REMARK   11  A    between atoms: N4_21  and  C14_22 
REMARK   12  A    between atoms: C14_22  and  C15_23 
REMARK   13  A    between atoms: C14_22  and  C16_25 
REMARK       I    between atoms: C15_23  and  N6_40 
REMARK   14  A    between atoms: C16_25  and  C17_26 
REMARK   15  A    between atoms: C17_26  and  C18_27 
REMARK   16  A    between atoms: C17_26  and  C19_28 
REMARK   17  A    between atoms: C20_29  and  C21_30 
REMARK   18  A    between atoms: C20_29  and  C24_33 
REMARK   19  A    between atoms: C20_29  and  N6_40 
REMARK   20  A    between atoms: C21_30  and  C22_31 
REMARK   21  A    between atoms: C22_31  and  C23_32 
REMARK   22  A    between atoms: C23_32  and  O8_43 
REMARK   23  A    between atoms: C24_33  and  C25_34 
REMARK   24  A    between atoms: C28_38  and  O6_39 
REMARK   25  A    between atoms: C29_42  and  O8_43 
REMARK   26  A    between atoms: C29_42  and  C35_49 
ROOT
ATOM      1  C14 non d ame      -6.449  15.838  67.578  0.00  0.00     0.089 C 
ATOM      2  H20 non d ame      -5.908  16.248  66.724  0.00  0.00     0.087 H 
ENDROOT
BRANCH   1   3
ATOM      3  N4  non d ame      -7.871  16.005  67.318  0.00  0.00    -0.346 N 
ATOM      4  C10 non d ame      -8.352  17.078  66.373  0.00  0.00     0.241 C 
ATOM      5  O4  non d ame      -7.574  17.797  65.835  0.00  0.00    -0.271 OA
ATOM      6  H19 non d ame      -8.516  15.386  67.787  0.00  0.00     0.163 HD
BRANCH   4   7
ATOM      7  C9  non d ame      -9.826  17.234  66.111  0.00  0.00     0.092 C 
ATOM      8  H11 non d ame      -9.970  17.823  65.205  0.00  0.00     0.088 H 
BRANCH   7   9
ATOM      9  N3  non d ame     -10.422  15.916  65.869  0.00  0.00    -0.346 N 
ATOM     10  C7  non d ame     -11.260  15.705  64.715  0.00  0.00     0.240 C 
ATOM     11  O3  non d ame     -11.466  16.584  63.970  0.00  0.00    -0.271 OA
ATOM     12  H10 non d ame     -10.254  15.148  66.503  0.00  0.00     0.163 HD
BRANCH  10  13
ATOM     13  C6  non d ame     -11.893  14.301  64.465  0.00  0.00     0.086 C 
ATOM     14  H6  non d ame     -12.498  14.266  63.559  0.00  0.00     0.086 H 
BRANCH  13  15
ATOM     15  N2  non d ame     -10.827  13.327  64.290  0.00  0.00    -0.343 N 
ATOM     16  C5  non d ame     -11.092  12.093  63.548  0.00  0.00     0.273 C 
ATOM     17  O2  non d ame     -12.165  11.891  63.098  0.00  0.00    -0.266 OA
ATOM     18  H5  non d ame      -9.913  13.507  64.681  0.00  0.00     0.163 HD
BRANCH  16  19
ATOM     19  C4  non d ame      -9.974  11.056  63.355  0.00  0.00     0.154 A 
ATOM     20  C1  non d ame      -8.911  11.098  62.397  0.00  0.00    -0.017 A 
ATOM     21  C2  non d ame      -8.164   9.923  62.633  0.00  0.00     0.077 A 
ATOM     22  H1  non d ame      -8.713  11.864  61.647  0.00  0.00     0.091 H 
ATOM     23  O1  non d ame      -8.736   9.289  63.614  0.00  0.00    -0.218 OA
ATOM     24  N1  non d ame      -9.795   9.931  64.052  0.00  0.00    -0.123 NA
BRANCH  21  25
ATOM     25  C3  non d ame      -6.916   9.482  61.878  0.00  0.00    -0.029 C 
ATOM     26  H2  non d ame      -6.805   8.401  61.959  0.00  0.00     0.036 H 
ATOM     27  H3  non d ame      -7.009   9.760  60.829  0.00  0.00     0.036 H 
ATOM     28  H4  non d ame      -6.040   9.971  62.307  0.00  0.00     0.036 H 
ENDBRANCH  21  25
ENDBRANCH  16  19
ENDBRANCH  13  15
BRANCH  13  29
ATOM     29  C8  non d ame     -12.754  13.918  65.641  0.00  0.00    -0.049 C 
ATOM     30  H7  non d ame     -13.657  14.529  65.644  0.00  0.00     0.030 H 
ATOM     31  H8  non d ame     -13.028  12.866  65.565  0.00  0.00     0.030 H 
ATOM     32  H9  non d ame     -12.201  14.084  66.565  0.00  0.00     0.030 H 
ENDBRANCH  13  29
ENDBRANCH  10  13
ENDBRANCH   7   9
BRANCH   7  33
ATOM     33  C11 non d ame     -10.506  17.889  67.349  0.00  0.00    -0.033 C 
ATOM     34  H12 non d ame     -11.467  18.286  67.025  0.00  0.00     0.042 H 
BRANCH  33  35
ATOM     35  C12 non d ame     -10.785  16.836  68.467  0.00  0.00    -0.071 C 
ATOM     36  H13 non d ame      -9.934  16.793  69.146  0.00  0.00     0.028 H 
ATOM     37  H14 non d ame     -11.678  17.123  69.021  0.00  0.00     0.028 H 
ATOM     38  H15 non d ame     -10.937  15.858  68.013  0.00  0.00     0.028 H 
ENDBRANCH  33  35
BRANCH  33  39
ATOM     39  C13 non d ame      -9.651  19.078  67.893  0.00  0.00    -0.071 C 
ATOM     40  H16 non d ame      -8.973  19.424  67.114  0.00  0.00     0.028 H 
ATOM     41  H17 non d ame     -10.310  19.895  68.189  0.00  0.00     0.028 H 
ATOM     42  H18 non d ame      -9.074  18.746  68.756  0.00  0.00     0.028 H 
ENDBRANCH  33  39
ENDBRANCH   7  33
ENDBRANCH   4   7
ENDBRANCH   1   3
BRANCH   1  43
ATOM     43  C15 non d ame      -6.159  14.324  67.784  0.00  0.00     0.240 C 
ATOM     44  O5  non d ame      -5.198  13.983  68.394  0.00  0.00    -0.271 OA
ATOM     45  N6  non d ame      -7.086  13.297  67.228  0.00  0.00    -0.355 N 
ATOM     46  H46 non d ame      -7.908  13.575  66.712  0.00  0.00     0.162 HD
BRANCH  45  47
ATOM     47  C20 non d ame      -6.797  11.861  67.433  0.00  0.00     0.013 C 
ATOM     48  H30 non d ame      -5.957  11.783  68.122  0.00  0.00     0.072 H 
BRANCH  47  49
ATOM     49  C21 non d ame      -6.438  11.229  66.108  0.00  0.00    -0.038 C 
ATOM     50  H31 non d ame      -6.990  10.290  66.071  0.00  0.00     0.036 H 
ATOM     51  H32 non d ame      -6.618  11.998  65.356  0.00  0.00     0.036 H 
BRANCH  49  52
ATOM     52  C22 non d ame      -4.942  10.861  66.006  0.00  0.00     0.018 C 
ATOM     53  H33 non d ame      -4.396  11.752  66.317  0.00  0.00     0.048 H 
ATOM     54  H34 non d ame      -4.828   9.931  66.562  0.00  0.00     0.048 H 
BRANCH  52  55
ATOM     55  C23 non d ame      -4.469  10.554  64.557  0.00  0.00     0.259 C 
ATOM     56  O7  non d ame      -4.581  11.371  63.701  0.00  0.00    -0.265 OA
BRANCH  55  57
ATOM     57  O8  non d ame      -3.914   9.279  64.261  0.00  0.00    -0.317 OA
BRANCH  57  58
ATOM     58  C29 non d ame      -4.165   8.288  65.262  0.00  0.00     0.052 C 
ATOM     59  H47 non d ame      -3.259   7.685  65.315  0.00  0.00     0.082 H 
ATOM     60  H48 non d ame      -4.506   8.836  66.140  0.00  0.00     0.082 H 
BRANCH  58  61
ATOM     61  C35 non d ame      -5.327   7.388  64.764  0.00  0.00    -0.034 A 
ATOM     62  C30 non d ame      -5.191   6.662  63.584  0.00  0.00    -0.075 A 
ATOM     63  C31 non d ame      -6.235   5.854  63.137  0.00  0.00    -0.082 A 
ATOM     64  H49 non d ame      -4.265   6.726  63.011  0.00  0.00     0.084 H 
ATOM     65  C32 non d ame      -7.420   5.776  63.872  0.00  0.00    -0.083 A 
ATOM     66  H50 non d ame      -6.123   5.284  62.214  0.00  0.00     0.083 H 
ATOM     67  C33 non d ame      -7.554   6.505  65.046  0.00  0.00    -0.082 A 
ATOM     68  H51 non d ame      -8.241   5.145  63.530  0.00  0.00     0.083 H 
ATOM     69  C34 non d ame      -6.512   7.312  65.498  0.00  0.00    -0.075 A 
ATOM     70  H52 non d ame      -8.482   6.442  65.616  0.00  0.00     0.083 H 
ATOM     71  H53 non d ame      -6.624   7.880  66.423  0.00  0.00     0.084 H 
ENDBRANCH  58  61
ENDBRANCH  57  58
ENDBRANCH  55  57
ENDBRANCH  52  55
ENDBRANCH  49  52
ENDBRANCH  47  49
BRANCH  47  72
ATOM     72  C24 non d ame      -8.027  11.166  68.014  0.00  0.00    -0.039 C 
ATOM     73  H35 non d ame      -7.971  10.136  67.661  0.00  0.00     0.036 H 
ATOM     74  H36 non d ame      -8.001  11.377  69.084  0.00  0.00     0.036 H 
BRANCH  72  75
ATOM     75  C25 non d ame      -9.387  11.788  67.442  0.00  0.00    -0.001 C 
ATOM     76  C26 non d ame     -10.150  12.644  68.621  0.00  0.00    -0.035 C 
ATOM     77  C27 non d ame     -11.437  12.227  68.699  0.00  0.00     0.085 C 
ATOM     78  H38 non d ame      -9.739  12.385  69.596  0.00  0.00     0.036 H 
ATOM     79  H39 non d ame     -10.239  13.689  68.327  0.00  0.00     0.036 H 
ATOM     80  N5  non d ame     -11.533  10.944  67.909  0.00  0.00    -0.049 N 
ATOM     81  H40 non d ame     -11.610  12.009  69.753  0.00  0.00     0.075 H 
ATOM     82  H41 non d ame     -12.023  12.997  68.198  0.00  0.00     0.075 H 
ATOM     83  C28 non d ame     -10.186  10.864  67.024  0.00  0.00     0.193 C 
ATOM     84  H42 non d ame     -11.521  10.192  68.582  0.00  0.00     0.280 HD
ATOM     85  H43 non d ame     -12.321  11.050  67.285  0.00  0.00     0.280 HD
ATOM     86  H44 non d ame     -10.208  11.089  65.958  0.00  0.00     0.129 H 
ATOM     87  H37 non d ame      -9.241  12.287  66.483  0.00  0.00     0.046 H 
BRANCH  83  88
ATOM     88  O6  non d ame      -9.604   9.563  67.126  0.00  0.00    -0.369 OA
ATOM     89  H45 non d ame      -9.805   9.190  67.988  0.00  0.00     0.212 HD
ENDBRANCH  83  88
ENDBRANCH  72  75
ENDBRANCH  47  72
ENDBRANCH  45  47
ENDBRANCH   1  43
BRANCH   1  90
ATOM     90  C16 non d ame      -6.081  16.605  68.837  0.00  0.00    -0.035 C 
ATOM     91  H21 non d ame      -7.031  16.835  69.323  0.00  0.00     0.037 H 
ATOM     92  H22 non d ame      -5.344  15.986  69.348  0.00  0.00     0.037 H 
BRANCH  90  93
ATOM     93  C17 non d ame      -5.387  17.976  68.556  0.00  0.00    -0.059 C 
ATOM     94  H23 non d ame      -5.382  18.129  67.477  0.00  0.00     0.038 H 
BRANCH  93  95
ATOM     95  C18 non d ame      -6.159  19.171  69.203  0.00  0.00    -0.073 C 
ATOM     96  H24 non d ame      -6.902  18.787  69.902  0.00  0.00     0.028 H 
ATOM     97  H25 non d ame      -5.456  19.812  69.734  0.00  0.00     0.028 H 
ATOM     98  H26 non d ame      -6.657  19.746  68.422  0.00  0.00     0.028 H 
ENDBRANCH  93  95
BRANCH  93  99
ATOM     99  C19 non d ame      -3.928  17.956  69.019  0.00  0.00    -0.073 C 
ATOM    100  H27 non d ame      -3.869  18.308  70.049  0.00  0.00     0.028 H 
ATOM    101  H28 non d ame      -3.543  16.938  68.959  0.00  0.00     0.028 H 
ATOM    102  H29 non d ame      -3.334  18.606  68.376  0.00  0.00     0.028 H 
ENDBRANCH  93  99
ENDBRANCH  90  93
ENDBRANCH   1  90
TORSDOF 26
ENDMDL
MODEL 8
REMARK VINA RESULT:      -6.6      3.386      7.178
REMARK  26 active torsions:
REMARK  status: ('A' for Active; 'I' for Inactive)
REMARK    1  A    between atoms: C2_2  and  C3_3 
REMARK    2  A    between atoms: C4_6  and  C5_7 
REMARK       I    between atoms: C5_7  and  N2_9 
REMARK    3  A    between atoms: N2_9  and  C6_10 
REMARK    4  A    between atoms: C6_10  and  C7_11 
REMARK    5  A    between atoms: C6_10  and  C8_13 
REMARK       I    between atoms: C7_11  and  N3_14 
REMARK    6  A    between atoms: N3_14  and  C9_15 
REMARK    7  A    between atoms: C9_15  and  C10_16 
REMARK    8  A    between atoms: C9_15  and  C11_18 
REMARK       I    between atoms: C10_16  and  N4_21 
REMARK    9  A    between atoms: C11_18  and  C12_19 
REMARK   10  A    between atoms: C11_18  and  C13_20 
REMARK   11  A    between atoms: N4_21  and  C14_22 
REMARK   12  A    between atoms: C14_22  and  C15_23 
REMARK   13  A    between atoms: C14_22  and  C16_25 
REMARK       I    between atoms: C15_23  and  N6_40 
REMARK   14  A    between atoms: C16_25  and  C17_26 
REMARK   15  A    between atoms: C17_26  and  C18_27 
REMARK   16  A    between atoms: C17_26  and  C19_28 
REMARK   17  A    between atoms: C20_29  and  C21_30 
REMARK   18  A    between atoms: C20_29  and  C24_33 
REMARK   19  A    between atoms: C20_29  and  N6_40 
REMARK   20  A    between atoms: C21_30  and  C22_31 
REMARK   21  A    between atoms: C22_31  and  C23_32 
REMARK   22  A    between atoms: C23_32  and  O8_43 
REMARK   23  A    between atoms: C24_33  and  C25_34 
REMARK   24  A    between atoms: C28_38  and  O6_39 
REMARK   25  A    between atoms: C29_42  and  O8_43 
REMARK   26  A    between atoms: C29_42  and  C35_49 
ROOT
ATOM      1  C14 non d ame     -10.102   9.952  68.973  0.00  0.00     0.089 C 
ATOM      2  H20 non d ame     -10.384   9.054  68.421  0.00  0.00     0.087 H 
ENDROOT
BRANCH   1   3
ATOM      3  N4  non d ame      -8.929  10.515  68.322  0.00  0.00    -0.346 N 
ATOM      4  C10 non d ame      -8.372   9.880  67.072  0.00  0.00     0.241 C 
ATOM      5  O4  non d ame      -8.884   8.914  66.611  0.00  0.00    -0.271 OA
ATOM      6  H19 non d ame      -8.506  11.336  68.732  0.00  0.00     0.163 HD
BRANCH   4   7
ATOM      7  C9  non d ame      -7.161  10.480  66.408  0.00  0.00     0.092 C 
ATOM      8  H11 non d ame      -7.446  11.405  65.908  0.00  0.00     0.088 H 
BRANCH   7   9
ATOM      9  N3  non d ame      -6.166  10.828  67.428  0.00  0.00    -0.346 N 
ATOM     10  C7  non d ame      -5.910  12.211  67.742  0.00  0.00     0.240 C 
ATOM     11  O3  non d ame      -6.494  13.059  67.184  0.00  0.00    -0.271 OA
ATOM     12  H10 non d ame      -5.654  10.108  67.918  0.00  0.00     0.163 HD
BRANCH  10  13
ATOM     13  C6  non d ame      -4.848  12.576  68.826  0.00  0.00     0.086 C 
ATOM     14  H6  non d ame      -3.854  12.734  68.407  0.00  0.00     0.086 H 
BRANCH  13  15
ATOM     15  N2  non d ame      -5.234  13.824  69.463  0.00  0.00    -0.343 N 
ATOM     16  C5  non d ame      -4.373  15.001  69.326  0.00  0.00     0.273 C 
ATOM     17  O2  non d ame      -3.370  14.931  68.705  0.00  0.00    -0.266 OA
ATOM     18  H5  non d ame      -6.092  13.874  69.995  0.00  0.00     0.163 HD
BRANCH  16  19
ATOM     19  C4  non d ame      -4.769  16.327  69.993  0.00  0.00     0.154 A 
ATOM     20  C1  non d ame      -5.296  17.494  69.353  0.00  0.00    -0.017 A 
ATOM     21  C2  non d ame      -5.492  18.424  70.398  0.00  0.00     0.077 A 
ATOM     22  H1  non d ame      -5.506  17.642  68.293  0.00  0.00     0.091 H 
ATOM     23  O1  non d ame      -5.120  17.849  71.504  0.00  0.00    -0.218 OA
ATOM     24  N1  non d ame      -4.695  16.625  71.293  0.00  0.00    -0.123 NA
BRANCH  21  25
ATOM     25  C3  non d ame      -6.039  19.838  70.254  0.00  0.00    -0.029 C 
ATOM     26  H2  non d ame      -5.303  20.552  70.624  0.00  0.00     0.036 H 
ATOM     27  H3  non d ame      -6.248  20.042  69.205  0.00  0.00     0.036 H 
ATOM     28  H4  non d ame      -6.959  19.932  70.833  0.00  0.00     0.036 H 
ENDBRANCH  21  25
ENDBRANCH  16  19
ENDBRANCH  13  15
BRANCH  13  29
ATOM     29  C8  non d ame      -4.775  11.474  69.853  0.00  0.00    -0.049 C 
ATOM     30  H7  non d ame      -4.121  10.681  69.488  0.00  0.00     0.030 H 
ATOM     31  H8  non d ame      -4.379  11.872  70.786  0.00  0.00     0.030 H 
ATOM     32  H9  non d ame      -5.773  11.070  70.023  0.00  0.00     0.030 H 
ENDBRANCH  13  29
ENDBRANCH  10  13
ENDBRANCH   7   9
BRANCH   7  33
ATOM     33  C11 non d ame      -6.546   9.446  65.420  0.00  0.00    -0.033 C 
ATOM     34  H12 non d ame      -7.175   8.557  65.440  0.00  0.00     0.042 H 
BRANCH  33  35
ATOM     35  C12 non d ame      -6.547   9.988  63.957  0.00  0.00    -0.071 C 
ATOM     36  H13 non d ame      -5.521  10.074  63.600  0.00  0.00     0.028 H 
ATOM     37  H14 non d ame      -7.098   9.302  63.315  0.00  0.00     0.028 H 
ATOM     38  H15 non d ame      -7.022  10.968  63.934  0.00  0.00     0.028 H 
ENDBRANCH  33  35
BRANCH  33  39
ATOM     39  C13 non d ame      -5.108   9.030  65.868  0.00  0.00    -0.071 C 
ATOM     40  H16 non d ame      -4.873   8.045  65.468  0.00  0.00     0.028 H 
ATOM     41  H17 non d ame      -4.386   9.756  65.491  0.00  0.00     0.028 H 
ATOM     42  H18 non d ame      -5.060   9.002  66.956  0.00  0.00     0.028 H 
ENDBRANCH  33  39
ENDBRANCH   7  33
ENDBRANCH   4   7
ENDBRANCH   1   3
BRANCH   1  43
ATOM     43  C15 non d ame     -11.230  11.022  68.972  0.00  0.00     0.240 C 
ATOM     44  O5  non d ame     -12.244  10.812  68.390  0.00  0.00    -0.271 OA
ATOM     45  N6  non d ame     -11.049  12.308  69.706  0.00  0.00    -0.355 N 
ATOM     46  H46 non d ame     -10.193  12.495  70.208  0.00  0.00     0.162 HD
BRANCH  45  47
ATOM     47  C20 non d ame     -12.131  13.315  69.697  0.00  0.00     0.013 C 
ATOM     48  H30 non d ame     -12.947  12.926  69.086  0.00  0.00     0.072 H 
BRANCH  47  49
ATOM     49  C21 non d ame     -11.610  14.603  69.101  0.00  0.00    -0.038 C 
ATOM     50  H31 non d ame     -12.300  15.380  69.430  0.00  0.00     0.036 H 
ATOM     51  H32 non d ame     -10.558  14.654  69.383  0.00  0.00     0.036 H 
BRANCH  49  52
ATOM     52  C22 non d ame     -11.650  14.609  67.558  0.00  0.00     0.018 C 
ATOM     53  H33 non d ame     -12.338  13.811  67.276  0.00  0.00     0.048 H 
ATOM     54  H34 non d ame     -11.864  15.638  67.271  0.00  0.00     0.048 H 
BRANCH  52  55
ATOM     55  C23 non d ame     -10.290  14.253  66.894  0.00  0.00     0.259 C 
ATOM     56  O7  non d ame      -9.848  13.154  66.979  0.00  0.00    -0.265 OA
BRANCH  55  57
ATOM     57  O8  non d ame      -9.571  15.262  66.196  0.00  0.00    -0.317 OA
BRANCH  57  58
ATOM     58  C29 non d ame      -8.631  15.974  67.007  0.00  0.00     0.052 C 
ATOM     59  H47 non d ame      -8.607  15.448  67.961  0.00  0.00     0.082 H 
ATOM     60  H48 non d ame      -7.726  16.055  66.407  0.00  0.00     0.082 H 
BRANCH  58  61
ATOM     61  C35 non d ame      -9.191  17.402  67.246  0.00  0.00    -0.034 A 
ATOM     62  C30 non d ame      -8.864  18.094  68.407  0.00  0.00    -0.075 A 
ATOM     63  C31 non d ame      -9.367  19.377  68.621  0.00  0.00    -0.082 A 
ATOM     64  H49 non d ame      -8.212  17.632  69.149  0.00  0.00     0.084 H 
ATOM     65  C32 non d ame     -10.204  19.965  67.670  0.00  0.00    -0.083 A 
ATOM     66  H50 non d ame      -9.105  19.917  69.531  0.00  0.00     0.083 H 
ATOM     67  C33 non d ame     -10.531  19.269  66.514  0.00  0.00    -0.082 A 
ATOM     68  H51 non d ame     -10.601  20.968  67.829  0.00  0.00     0.083 H 
ATOM     69  C34 non d ame     -10.028  17.988  66.295  0.00  0.00    -0.075 A 
ATOM     70  H52 non d ame     -11.186  19.731  65.775  0.00  0.00     0.083 H 
ATOM     71  H53 non d ame     -10.290  17.448  65.384  0.00  0.00     0.084 H 
ENDBRANCH  58  61
ENDBRANCH  57  58
ENDBRANCH  55  57
ENDBRANCH  52  55
ENDBRANCH  49  52
ENDBRANCH  47  49
BRANCH  47  72
ATOM     72  C24 non d ame     -12.612  13.570  71.124  0.00  0.00    -0.039 C 
ATOM     73  H35 non d ame     -13.603  13.120  71.181  0.00  0.00     0.036 H 
ATOM     74  H36 non d ame     -11.811  13.206  71.769  0.00  0.00     0.036 H 
BRANCH  72  75
ATOM     75  C25 non d ame     -12.785  15.134  71.422  0.00  0.00    -0.001 C 
ATOM     76  C26 non d ame     -11.748  15.595  72.613  0.00  0.00    -0.035 C 
ATOM     77  C27 non d ame     -12.446  16.261  73.564  0.00  0.00     0.085 C 
ATOM     78  H38 non d ame     -11.371  14.719  73.140  0.00  0.00     0.036 H 
ATOM     79  H39 non d ame     -11.053  16.344  72.235  0.00  0.00     0.036 H 
ATOM     80  N5  non d ame     -13.911  16.013  73.292  0.00  0.00    -0.049 N 
ATOM     81  H40 non d ame     -12.175  15.789  74.509  0.00  0.00     0.075 H 
ATOM     82  H41 non d ame     -12.228  17.316  73.399  0.00  0.00     0.075 H 
ATOM     83  C28 non d ame     -13.989  15.409  71.797  0.00  0.00     0.193 C 
ATOM     84  H42 non d ame     -14.205  15.300  73.943  0.00  0.00     0.280 HD
ATOM     85  H43 non d ame     -14.360  16.918  73.296  0.00  0.00     0.280 HD
ATOM     86  H44 non d ame     -14.319  16.030  70.965  0.00  0.00     0.129 H 
ATOM     87  H37 non d ame     -12.787  15.730  70.509  0.00  0.00     0.046 H 
BRANCH  83  88
ATOM     88  O6  non d ame     -14.836  14.259  71.773  0.00  0.00    -0.369 OA
ATOM     89  H45 non d ame     -15.633  14.438  72.278  0.00  0.00     0.212 HD
ENDBRANCH  83  88
ENDBRANCH  72  75
ENDBRANCH  47  72
ENDBRANCH  45  47
ENDBRANCH   1  43
BRANCH   1  90
ATOM     90  C16 non d ame      -9.746   9.584  70.405  0.00  0.00    -0.035 C 
ATOM     91  H21 non d ame      -8.692   9.306  70.378  0.00  0.00     0.037 H 
ATOM     92  H22 non d ame     -10.070  10.431  71.009  0.00  0.00     0.037 H 
BRANCH  90  93
ATOM     93  C17 non d ame     -10.517   8.337  70.942  0.00  0.00    -0.059 C 
ATOM     94  H23 non d ame      -9.848   7.799  71.613  0.00  0.00     0.038 H 
BRANCH  93  95
ATOM     95  C18 non d ame     -11.789   8.737  71.757  0.00  0.00    -0.073 C 
ATOM     96  H24 non d ame     -12.112   9.734  71.460  0.00  0.00     0.028 H 
ATOM     97  H25 non d ame     -12.587   8.022  71.558  0.00  0.00     0.028 H 
ATOM     98  H26 non d ame     -11.554   8.732  72.822  0.00  0.00     0.028 H 
ENDBRANCH  93  95
BRANCH  93  99
ATOM     99  C19 non d ame     -10.880   7.383  69.801  0.00  0.00    -0.073 C 
ATOM    100  H27 non d ame     -10.052   7.335  69.092  0.00  0.00     0.028 H 
ATOM    101  H28 non d ame     -11.070   6.389  70.207  0.00  0.00     0.028 H 
ATOM    102  H29 non d ame     -11.773   7.746  69.294  0.00  0.00     0.028 H 
ENDBRANCH  93  99
ENDBRANCH  90  93
ENDBRANCH   1  90
TORSDOF 26
ENDMDL
MODEL 9
REMARK VINA RESULT:      -6.5      2.587      8.168
REMARK  26 active torsions:
REMARK  status: ('A' for Active; 'I' for Inactive)
REMARK    1  A    between atoms: C2_2  and  C3_3 
REMARK    2  A    between atoms: C4_6  and  C5_7 
REMARK       I    between atoms: C5_7  and  N2_9 
REMARK    3  A    between atoms: N2_9  and  C6_10 
REMARK    4  A    between atoms: C6_10  and  C7_11 
REMARK    5  A    between atoms: C6_10  and  C8_13 
REMARK       I    between atoms: C7_11  and  N3_14 
REMARK    6  A    between atoms: N3_14  and  C9_15 
REMARK    7  A    between atoms: C9_15  and  C10_16 
REMARK    8  A    between atoms: C9_15  and  C11_18 
REMARK       I    between atoms: C10_16  and  N4_21 
REMARK    9  A    between atoms: C11_18  and  C12_19 
REMARK   10  A    between atoms: C11_18  and  C13_20 
REMARK   11  A    between atoms: N4_21  and  C14_22 
REMARK   12  A    between atoms: C14_22  and  C15_23 
REMARK   13  A    between atoms: C14_22  and  C16_25 
REMARK       I    between atoms: C15_23  and  N6_40 
REMARK   14  A    between atoms: C16_25  and  C17_26 
REMARK   15  A    between atoms: C17_26  and  C18_27 
REMARK   16  A    between atoms: C17_26  and  C19_28 
REMARK   17  A    between atoms: C20_29  and  C21_30 
REMARK   18  A    between atoms: C20_29  and  C24_33 
REMARK   19  A    between atoms: C20_29  and  N6_40 
REMARK   20  A    between atoms: C21_30  and  C22_31 
REMARK   21  A    between atoms: C22_31  and  C23_32 
REMARK   22  A    between atoms: C23_32  and  O8_43 
REMARK   23  A    between atoms: C24_33  and  C25_34 
REMARK   24  A    between atoms: C28_38  and  O6_39 
REMARK   25  A    between atoms: C29_42  and  O8_43 
REMARK   26  A    between atoms: C29_42  and  C35_49 
ROOT
ATOM      1  C14 non d ame      -9.137   6.947  66.931  0.00  0.00     0.089 C 
ATOM      2  H20 non d ame      -9.464   6.577  65.959  0.00  0.00     0.087 H 
ENDROOT
BRANCH   1   3
ATOM      3  N4  non d ame      -8.835   8.363  66.782  0.00  0.00    -0.346 N 
ATOM      4  C10 non d ame      -8.429   8.918  65.439  0.00  0.00     0.241 C 
ATOM      5  O4  non d ame      -8.351   8.205  64.494  0.00  0.00    -0.271 OA
ATOM      6  H19 non d ame      -8.904   8.953  67.599  0.00  0.00     0.163 HD
BRANCH   4   7
ATOM      7  C9  non d ame      -8.125  10.387  65.302  0.00  0.00     0.092 C 
ATOM      8  H11 non d ame      -7.744  10.582  64.299  0.00  0.00     0.088 H 
BRANCH   7   9
ATOM      9  N3  non d ame      -9.363  11.159  65.452  0.00  0.00    -0.346 N 
ATOM     10  C7  non d ame     -10.069  11.623  64.285  0.00  0.00     0.240 C 
ATOM     11  O3  non d ame      -9.657  11.385  63.215  0.00  0.00    -0.271 OA
ATOM     12  H10 non d ame      -9.731  11.372  66.369  0.00  0.00     0.163 HD
BRANCH  10  13
ATOM     13  C6  non d ame     -11.384  12.447  64.452  0.00  0.00     0.086 C 
ATOM     14  H6  non d ame     -11.956  12.154  65.333  0.00  0.00     0.086 H 
BRANCH  13  15
ATOM     15  N2  non d ame     -11.043  13.849  64.625  0.00  0.00    -0.343 N 
ATOM     16  C5  non d ame     -10.788  14.370  65.970  0.00  0.00     0.273 C 
ATOM     17  O2  non d ame     -10.863  13.653  66.906  0.00  0.00    -0.266 OA
ATOM     18  H5  non d ame     -10.984  14.455  63.819  0.00  0.00     0.163 HD
BRANCH  16  19
ATOM     19  C4  non d ame     -10.425  15.850  66.166  0.00  0.00     0.154 A 
ATOM     20  C1  non d ame      -9.961  16.474  67.368  0.00  0.00    -0.017 A 
ATOM     21  C2  non d ame      -9.773  17.831  67.022  0.00  0.00     0.077 A 
ATOM     22  H1  non d ame      -9.786  16.013  68.340  0.00  0.00     0.091 H 
ATOM     23  O1  non d ame     -10.093  17.960  65.768  0.00  0.00    -0.218 OA
ATOM     24  N1  non d ame     -10.476  16.817  65.247  0.00  0.00    -0.123 NA
BRANCH  21  25
ATOM     25  C3  non d ame      -9.285  18.937  67.948  0.00  0.00    -0.029 C 
ATOM     26  H2  non d ame      -9.301  19.889  67.418  0.00  0.00     0.036 H 
ATOM     27  H3  non d ame      -9.936  18.996  68.820  0.00  0.00     0.036 H 
ATOM     28  H4  non d ame      -8.266  18.718  68.270  0.00  0.00     0.036 H 
ENDBRANCH  21  25
ENDBRANCH  16  19
ENDBRANCH  13  15
BRANCH  13  29
ATOM     29  C8  non d ame     -12.249  12.273  63.229  0.00  0.00    -0.049 C 
ATOM     30  H7  non d ame     -12.541  13.252  62.849  0.00  0.00     0.030 H 
ATOM     31  H8  non d ame     -11.691  11.736  62.462  0.00  0.00     0.030 H 
ATOM     32  H9  non d ame     -13.142  11.706  63.494  0.00  0.00     0.030 H 
ENDBRANCH  13  29
ENDBRANCH  10  13
ENDBRANCH   7   9
BRANCH   7  33
ATOM     33  C11 non d ame      -7.113  10.812  66.406  0.00  0.00    -0.033 C 
ATOM     34  H12 non d ame      -7.062  10.004  67.134  0.00  0.00     0.042 H 
BRANCH  33  35
ATOM     35  C12 non d ame      -5.680  11.007  65.819  0.00  0.00    -0.071 C 
ATOM     36  H13 non d ame      -5.614  11.982  65.337  0.00  0.00     0.028 H 
ATOM     37  H14 non d ame      -4.948  10.949  66.623  0.00  0.00     0.028 H 
ATOM     38  H15 non d ame      -5.480  10.226  65.086  0.00  0.00     0.028 H 
ENDBRANCH  33  35
BRANCH  33  39
ATOM     39  C13 non d ame      -7.601  12.100  67.145  0.00  0.00    -0.071 C 
ATOM     40  H16 non d ame      -7.429  11.991  68.215  0.00  0.00     0.028 H 
ATOM     41  H17 non d ame      -7.048  12.964  66.774  0.00  0.00     0.028 H 
ATOM     42  H18 non d ame      -8.666  12.244  66.961  0.00  0.00     0.028 H 
ENDBRANCH  33  39
ENDBRANCH   7  33
ENDBRANCH   4   7
ENDBRANCH   1   3
BRANCH   1  43
ATOM     43  C15 non d ame     -10.235   6.788  68.021  0.00  0.00     0.240 C 
ATOM     44  O5  non d ame     -11.114   6.004  67.864  0.00  0.00    -0.271 OA
ATOM     45  N6  non d ame     -10.186   7.608  69.265  0.00  0.00    -0.355 N 
ATOM     46  H46 non d ame      -9.441   8.274  69.410  0.00  0.00     0.162 HD
BRANCH  45  47
ATOM     47  C20 non d ame     -11.237   7.445  70.292  0.00  0.00     0.013 C 
ATOM     48  H30 non d ame     -12.096   6.968  69.821  0.00  0.00     0.072 H 
BRANCH  47  49
ATOM     49  C21 non d ame     -11.631   8.804  70.826  0.00  0.00    -0.038 C 
ATOM     50  H31 non d ame     -12.700   8.896  70.637  0.00  0.00     0.036 H 
ATOM     51  H32 non d ame     -11.252   8.840  71.848  0.00  0.00     0.036 H 
BRANCH  49  52
ATOM     52  C22 non d ame     -10.952   9.965  70.067  0.00  0.00     0.018 C 
ATOM     53  H33 non d ame     -10.275  10.431  70.783  0.00  0.00     0.048 H 
ATOM     54  H34 non d ame     -10.557   9.528  69.150  0.00  0.00     0.048 H 
BRANCH  52  55
ATOM     55  C23 non d ame     -11.936  11.082  69.620  0.00  0.00     0.259 C 
ATOM     56  O7  non d ame     -12.353  11.108  68.508  0.00  0.00    -0.265 OA
BRANCH  55  57
ATOM     57  O8  non d ame     -12.323  12.083  70.553  0.00  0.00    -0.317 OA
BRANCH  57  58
ATOM     58  C29 non d ame     -12.371  13.403  70.002  0.00  0.00     0.052 C 
ATOM     59  H47 non d ame     -11.369  13.602  69.624  0.00  0.00     0.082 H 
ATOM     60  H48 non d ame     -13.222  13.407  69.321  0.00  0.00     0.082 H 
BRANCH  58  61
ATOM     61  C35 non d ame     -12.666  14.394  71.160  0.00  0.00    -0.034 A 
ATOM     62  C30 non d ame     -13.978  14.637  71.553  0.00  0.00    -0.075 A 
ATOM     63  C31 non d ame     -14.242  15.527  72.593  0.00  0.00    -0.082 A 
ATOM     64  H49 non d ame     -14.799  14.129  71.047  0.00  0.00     0.084 H 
ATOM     65  C32 non d ame     -13.188  16.178  73.238  0.00  0.00    -0.083 A 
ATOM     66  H50 non d ame     -15.272  15.712  72.901  0.00  0.00     0.083 H 
ATOM     67  C33 non d ame     -11.880  15.936  72.840  0.00  0.00    -0.082 A 
ATOM     68  H51 non d ame     -13.386  16.875  74.053  0.00  0.00     0.083 H 
ATOM     69  C34 non d ame     -11.612  15.045  71.803  0.00  0.00    -0.075 A 
ATOM     70  H52 non d ame     -11.060  16.448  73.345  0.00  0.00     0.083 H 
ATOM     71  H53 non d ame     -10.581  14.859  71.497  0.00  0.00     0.084 H 
ENDBRANCH  58  61
ENDBRANCH  57  58
ENDBRANCH  55  57
ENDBRANCH  52  55
ENDBRANCH  49  52
ENDBRANCH  47  49
BRANCH  47  72
ATOM     72  C24 non d ame     -10.711   6.580  71.436  0.00  0.00    -0.039 C 
ATOM     73  H35 non d ame     -11.564   5.988  71.767  0.00  0.00     0.036 H 
ATOM     74  H36 non d ame      -9.824   6.084  71.040  0.00  0.00     0.036 H 
BRANCH  72  75
ATOM     75  C25 non d ame     -10.239   7.468  72.683  0.00  0.00    -0.001 C 
ATOM     76  C26 non d ame      -8.618   7.733  72.599  0.00  0.00    -0.035 C 
ATOM     77  C27 non d ame      -8.060   7.398  73.787  0.00  0.00     0.085 C 
ATOM     78  H38 non d ame      -8.161   7.037  71.897  0.00  0.00     0.036 H 
ATOM     79  H39 non d ame      -8.417   8.801  72.516  0.00  0.00     0.036 H 
ATOM     80  N5  non d ame      -9.100   6.622  74.560  0.00  0.00    -0.049 N 
ATOM     81  H40 non d ame      -7.230   6.733  73.542  0.00  0.00     0.075 H 
ATOM     82  H41 non d ame      -7.870   8.342  74.297  0.00  0.00     0.075 H 
ATOM     83  C28 non d ame     -10.501   6.881  73.802  0.00  0.00     0.193 C 
ATOM     84  H42 non d ame      -8.858   5.646  74.465  0.00  0.00     0.280 HD
ATOM     85  H43 non d ame      -9.148   7.043  75.477  0.00  0.00     0.280 HD
ATOM     86  H44 non d ame     -11.238   7.567  74.218  0.00  0.00     0.129 H 
ATOM     87  H37 non d ame     -10.877   8.339  72.833  0.00  0.00     0.046 H 
BRANCH  83  88
ATOM     88  O6  non d ame     -11.195   5.646  73.612  0.00  0.00    -0.369 OA
ATOM     89  H45 non d ame     -10.786   4.964  74.150  0.00  0.00     0.212 HD
ENDBRANCH  83  88
ENDBRANCH  72  75
ENDBRANCH  47  72
ENDBRANCH  45  47
ENDBRANCH   1  43
BRANCH   1  90
ATOM     90  C16 non d ame      -7.877   6.214  67.363  0.00  0.00    -0.035 C 
ATOM     91  H21 non d ame      -7.053   6.881  67.108  0.00  0.00     0.037 H 
ATOM     92  H22 non d ame      -8.049   5.933  68.402  0.00  0.00     0.037 H 
BRANCH  90  93
ATOM     93  C17 non d ame      -7.626   4.885  66.583  0.00  0.00    -0.059 C 
ATOM     94  H23 non d ame      -6.558   4.672  66.627  0.00  0.00     0.038 H 
BRANCH  93  95
ATOM     95  C18 non d ame      -8.379   3.674  67.222  0.00  0.00    -0.073 C 
ATOM     96  H24 non d ame      -8.987   3.183  66.462  0.00  0.00     0.028 H 
ATOM     97  H25 non d ame      -7.654   2.966  67.621  0.00  0.00     0.028 H 
ATOM     98  H26 non d ame      -9.022   4.031  68.027  0.00  0.00     0.028 H 
ENDBRANCH  93  95
BRANCH  93  99
ATOM     99  C19 non d ame      -7.997   5.039  65.105  0.00  0.00    -0.073 C 
ATOM    100  H27 non d ame      -7.374   4.377  64.503  0.00  0.00     0.028 H 
ATOM    101  H28 non d ame      -9.047   4.778  64.966  0.00  0.00     0.028 H 
ATOM    102  H29 non d ame      -7.837   6.072  64.796  0.00  0.00     0.028 H 
ENDBRANCH  93  99
ENDBRANCH  90  93
ENDBRANCH   1  90
TORSDOF 26
ENDMDL
MODEL 10
REMARK VINA RESULT:      -6.5      2.867      7.584
REMARK  26 active torsions:
REMARK  status: ('A' for Active; 'I' for Inactive)
REMARK    1  A    between atoms: C2_2  and  C3_3 
REMARK    2  A    between atoms: C4_6  and  C5_7 
REMARK       I    between atoms: C5_7  and  N2_9 
REMARK    3  A    between atoms: N2_9  and  C6_10 
REMARK    4  A    between atoms: C6_10  and  C7_11 
REMARK    5  A    between atoms: C6_10  and  C8_13 
REMARK       I    between atoms: C7_11  and  N3_14 
REMARK    6  A    between atoms: N3_14  and  C9_15 
REMARK    7  A    between atoms: C9_15  and  C10_16 
REMARK    8  A    between atoms: C9_15  and  C11_18 
REMARK       I    between atoms: C10_16  and  N4_21 
REMARK    9  A    between atoms: C11_18  and  C12_19 
REMARK   10  A    between atoms: C11_18  and  C13_20 
REMARK   11  A    between atoms: N4_21  and  C14_22 
REMARK   12  A    between atoms: C14_22  and  C15_23 
REMARK   13  A    between atoms: C14_22  and  C16_25 
REMARK       I    between atoms: C15_23  and  N6_40 
REMARK   14  A    between atoms: C16_25  and  C17_26 
REMARK   15  A    between atoms: C17_26  and  C18_27 
REMARK   16  A    between atoms: C17_26  and  C19_28 
REMARK   17  A    between atoms: C20_29  and  C21_30 
REMARK   18  A    between atoms: C20_29  and  C24_33 
REMARK   19  A    between atoms: C20_29  and  N6_40 
REMARK   20  A    between atoms: C21_30  and  C22_31 
REMARK   21  A    between atoms: C22_31  and  C23_32 
REMARK   22  A    between atoms: C23_32  and  O8_43 
REMARK   23  A    between atoms: C24_33  and  C25_34 
REMARK   24  A    between atoms: C28_38  and  O6_39 
REMARK   25  A    between atoms: C29_42  and  O8_43 
REMARK   26  A    between atoms: C29_42  and  C35_49 
ROOT
ATOM      1  C14 non d ame      -6.212   8.662  65.705  0.00  0.00     0.089 C 
ATOM      2  H20 non d ame      -5.288   9.044  66.142  0.00  0.00     0.087 H 
ENDROOT
BRANCH   1   3
ATOM      3  N4  non d ame      -6.481   7.367  66.312  0.00  0.00    -0.346 N 
ATOM      4  C10 non d ame      -5.918   7.031  67.671  0.00  0.00     0.241 C 
ATOM      5  O4  non d ame      -5.248   7.819  68.255  0.00  0.00    -0.271 OA
ATOM      6  H19 non d ame      -7.050   6.710  65.798  0.00  0.00     0.163 HD
BRANCH   4   7
ATOM      7  C9  non d ame      -6.210   5.688  68.287  0.00  0.00     0.092 C 
ATOM      8  H11 non d ame      -5.544   5.529  69.135  0.00  0.00     0.088 H 
BRANCH   7   9
ATOM      9  N3  non d ame      -7.582   5.676  68.805  0.00  0.00    -0.346 N 
ATOM     10  C7  non d ame      -7.817   5.779  70.223  0.00  0.00     0.240 C 
ATOM     11  O3  non d ame      -6.915   5.872  70.964  0.00  0.00    -0.271 OA
ATOM     12  H10 non d ame      -8.370   5.595  68.179  0.00  0.00     0.163 HD
BRANCH  10  13
ATOM     13  C6  non d ame      -9.279   5.762  70.769  0.00  0.00     0.086 C 
ATOM     14  H6  non d ame      -9.328   5.557  71.838  0.00  0.00     0.086 H 
BRANCH  13  15
ATOM     15  N2  non d ame      -9.871   7.075  70.570  0.00  0.00    -0.343 N 
ATOM     16  C5  non d ame     -10.980   7.504  71.425  0.00  0.00     0.273 C 
ATOM     17  O2  non d ame     -11.391   6.784  72.267  0.00  0.00    -0.266 OA
ATOM     18  H5  non d ame      -9.516   7.682  69.845  0.00  0.00     0.163 HD
BRANCH  16  19
ATOM     19  C4  non d ame     -11.614   8.889  71.226  0.00  0.00     0.154 A 
ATOM     20  C1  non d ame     -11.102   9.970  70.441  0.00  0.00    -0.017 A 
ATOM     21  C2  non d ame     -12.050  11.007  70.587  0.00  0.00     0.077 A 
ATOM     22  H1  non d ame     -10.183   9.998  69.855  0.00  0.00     0.091 H 
ATOM     23  O1  non d ame     -12.994  10.562  71.365  0.00  0.00    -0.218 OA
ATOM     24  N1  non d ame     -12.762   9.328  71.751  0.00  0.00    -0.123 NA
BRANCH  21  25
ATOM     25  C3  non d ame     -11.981  12.388  69.950  0.00  0.00    -0.029 C 
ATOM     26  H2  non d ame     -12.848  12.536  69.306  0.00  0.00     0.036 H 
ATOM     27  H3  non d ame     -11.974  13.149  70.730  0.00  0.00     0.036 H 
ATOM     28  H4  non d ame     -11.069  12.469  69.356  0.00  0.00     0.036 H 
ENDBRANCH  21  25
ENDBRANCH  16  19
ENDBRANCH  13  15
BRANCH  13  29
ATOM     29  C8  non d ame     -10.081   4.718  70.035  0.00  0.00    -0.049 C 
ATOM     30  H7  non d ame      -9.548   3.766  70.062  0.00  0.00     0.030 H 
ATOM     31  H8  non d ame     -11.054   4.604  70.511  0.00  0.00     0.030 H 
ATOM     32  H9  non d ame     -10.217   5.027  68.998  0.00  0.00     0.030 H 
ENDBRANCH  13  29
ENDBRANCH  10  13
ENDBRANCH   7   9
BRANCH   7  33
ATOM     33  C11 non d ame      -6.056   4.578  67.206  0.00  0.00    -0.033 C 
ATOM     34  H12 non d ame      -6.622   4.890  66.330  0.00  0.00     0.042 H 
BRANCH  33  35
ATOM     35  C12 non d ame      -4.567   4.412  66.769  0.00  0.00    -0.071 C 
ATOM     36  H13 non d ame      -3.989   4.000  67.597  0.00  0.00     0.028 H 
ATOM     37  H14 non d ame      -4.512   3.738  65.916  0.00  0.00     0.028 H 
ATOM     38  H15 non d ame      -4.161   5.384  66.493  0.00  0.00     0.028 H 
ENDBRANCH  33  35
BRANCH  33  39
ATOM     39  C13 non d ame      -6.652   3.223  67.708  0.00  0.00    -0.071 C 
ATOM     40  H16 non d ame      -6.437   2.440  66.981  0.00  0.00     0.028 H 
ATOM     41  H17 non d ame      -6.202   2.961  68.667  0.00  0.00     0.028 H 
ATOM     42  H18 non d ame      -7.730   3.322  67.829  0.00  0.00     0.028 H 
ENDBRANCH  33  39
ENDBRANCH   7  33
ENDBRANCH   4   7
ENDBRANCH   1   3
BRANCH   1  43
ATOM     43  C15 non d ame      -7.423   9.598  65.981  0.00  0.00     0.240 C 
ATOM     44  O5  non d ame      -7.344  10.436  66.820  0.00  0.00    -0.271 OA
ATOM     45  N6  non d ame      -8.681   9.456  65.193  0.00  0.00    -0.355 N 
ATOM     46  H46 non d ame      -8.758   8.750  64.475  0.00  0.00     0.162 HD
BRANCH  45  47
ATOM     47  C20 non d ame      -9.823  10.354  65.467  0.00  0.00     0.013 C 
ATOM     48  H30 non d ame      -9.456  11.193  66.058  0.00  0.00     0.072 H 
BRANCH  47  49
ATOM     49  C21 non d ame     -10.879   9.598  66.242  0.00  0.00    -0.038 C 
ATOM     50  H31 non d ame     -11.459  10.358  66.765  0.00  0.00     0.036 H 
ATOM     51  H32 non d ame     -11.364   8.944  65.517  0.00  0.00     0.036 H 
BRANCH  49  52
ATOM     52  C22 non d ame     -10.280   8.679  67.329  0.00  0.00     0.018 C 
ATOM     53  H33 non d ame      -9.210   8.887  67.336  0.00  0.00     0.048 H 
ATOM     54  H34 non d ame     -10.875   8.856  68.225  0.00  0.00     0.048 H 
BRANCH  52  55
ATOM     55  C23 non d ame     -10.419   7.164  67.014  0.00  0.00     0.259 C 
ATOM     56  O7  non d ame     -11.427   6.586  67.265  0.00  0.00    -0.265 OA
BRANCH  55  57
ATOM     57  O8  non d ame      -9.322   6.469  66.434  0.00  0.00    -0.317 OA
BRANCH  57  58
ATOM     58  C29 non d ame      -9.546   5.066  66.264  0.00  0.00     0.052 C 
ATOM     59  H47 non d ame      -8.709   4.572  66.757  0.00  0.00     0.082 H 
ATOM     60  H48 non d ame     -10.564   4.887  66.609  0.00  0.00     0.082 H 
BRANCH  58  61
ATOM     61  C35 non d ame      -9.479   4.752  64.746  0.00  0.00    -0.034 A 
ATOM     62  C30 non d ame     -10.412   3.896  64.170  0.00  0.00    -0.075 A 
ATOM     63  C31 non d ame     -10.352   3.614  62.806  0.00  0.00    -0.082 A 
ATOM     64  H49 non d ame     -11.191   3.447  64.786  0.00  0.00     0.084 H 
ATOM     65  C32 non d ame      -9.351   4.188  62.018  0.00  0.00    -0.083 A 
ATOM     66  H50 non d ame     -11.087   2.945  62.357  0.00  0.00     0.083 H 
ATOM     67  C33 non d ame      -8.419   5.038  62.598  0.00  0.00    -0.082 A 
ATOM     68  H51 non d ame      -9.297   3.973  60.951  0.00  0.00     0.083 H 
ATOM     69  C34 non d ame      -8.478   5.325  63.961  0.00  0.00    -0.075 A 
ATOM     70  H52 non d ame      -7.638   5.483  61.981  0.00  0.00     0.083 H 
ATOM     71  H53 non d ame      -7.743   5.995  64.408  0.00  0.00     0.084 H 
ENDBRANCH  58  61
ENDBRANCH  57  58
ENDBRANCH  55  57
ENDBRANCH  52  55
ENDBRANCH  49  52
ENDBRANCH  47  49
BRANCH  47  72
ATOM     72  C24 non d ame     -10.415  10.852  64.150  0.00  0.00    -0.039 C 
ATOM     73  H35 non d ame      -9.640  10.683  63.402  0.00  0.00     0.036 H 
ATOM     74  H36 non d ame     -11.379  10.350  64.057  0.00  0.00     0.036 H 
BRANCH  72  75
ATOM     75  C25 non d ame     -10.703  12.427  64.186  0.00  0.00    -0.001 C 
ATOM     76  C26 non d ame     -10.664  12.967  65.739  0.00  0.00    -0.035 C 
ATOM     77  C27 non d ame     -11.794  13.673  65.983  0.00  0.00     0.085 C 
ATOM     78  H38 non d ame     -10.734  12.127  66.429  0.00  0.00     0.036 H 
ATOM     79  H39 non d ame      -9.872  13.705  65.859  0.00  0.00     0.036 H 
ATOM     80  N5  non d ame     -12.747  13.388  64.847  0.00  0.00    -0.049 N 
ATOM     81  H40 non d ame     -12.205  13.257  66.904  0.00  0.00     0.075 H 
ATOM     82  H41 non d ame     -11.498  14.720  65.943  0.00  0.00     0.075 H 
ATOM     83  C28 non d ame     -11.860  12.703  63.685  0.00  0.00     0.193 C 
ATOM     84  H42 non d ame     -13.407  12.706  65.191  0.00  0.00     0.280 HD
ATOM     85  H43 non d ame     -13.073  14.284  64.515  0.00  0.00     0.280 HD
ATOM     86  H44 non d ame     -11.564  13.273  62.805  0.00  0.00     0.129 H 
ATOM     87  H37 non d ame     -10.104  12.973  63.456  0.00  0.00     0.046 H 
BRANCH  83  88
ATOM     88  O6  non d ame     -12.520  11.540  63.181  0.00  0.00    -0.369 OA
ATOM     89  H45 non d ame     -12.977  11.096  63.899  0.00  0.00     0.212 HD
ENDBRANCH  83  88
ENDBRANCH  72  75
ENDBRANCH  47  72
ENDBRANCH  45  47
ENDBRANCH   1  43
BRANCH   1  90
ATOM     90  C16 non d ame      -6.037   8.481  64.206  0.00  0.00    -0.035 C 
ATOM     91  H21 non d ame      -6.835   7.800  63.903  0.00  0.00     0.037 H 
ATOM     92  H22 non d ame      -5.997   9.489  63.796  0.00  0.00     0.037 H 
BRANCH  90  93
ATOM     93  C17 non d ame      -4.694   7.789  63.811  0.00  0.00    -0.059 C 
ATOM     94  H23 non d ame      -4.105   7.667  64.720  0.00  0.00     0.038 H 
BRANCH  93  95
ATOM     95  C18 non d ame      -4.919   6.372  63.195  0.00  0.00    -0.073 C 
ATOM     96  H24 non d ame      -5.177   5.669  63.987  0.00  0.00     0.028 H 
ATOM     97  H25 non d ame      -5.731   6.416  62.470  0.00  0.00     0.028 H 
ATOM     98  H26 non d ame      -4.006   6.042  62.699  0.00  0.00     0.028 H 
ENDBRANCH  93  95
BRANCH  93  99
ATOM     99  C19 non d ame      -3.882   8.674  62.860  0.00  0.00    -0.073 C 
ATOM    100  H27 non d ame      -4.000   8.311  61.838  0.00  0.00     0.028 H 
ATOM    101  H28 non d ame      -4.242   9.701  62.926  0.00  0.00     0.028 H 
ATOM    102  H29 non d ame      -2.830   8.639  63.140  0.00  0.00     0.028 H 
ENDBRANCH  93  99
ENDBRANCH  90  93
ENDBRANCH   1  90
TORSDOF 26
ENDMDL
MODEL 11
REMARK VINA RESULT:      -6.5      2.696      8.814
REMARK  26 active torsions:
REMARK  status: ('A' for Active; 'I' for Inactive)
REMARK    1  A    between atoms: C2_2  and  C3_3 
REMARK    2  A    between atoms: C4_6  and  C5_7 
REMARK       I    between atoms: C5_7  and  N2_9 
REMARK    3  A    between atoms: N2_9  and  C6_10 
REMARK    4  A    between atoms: C6_10  and  C7_11 
REMARK    5  A    between atoms: C6_10  and  C8_13 
REMARK       I    between atoms: C7_11  and  N3_14 
REMARK    6  A    between atoms: N3_14  and  C9_15 
REMARK    7  A    between atoms: C9_15  and  C10_16 
REMARK    8  A    between atoms: C9_15  and  C11_18 
REMARK       I    between atoms: C10_16  and  N4_21 
REMARK    9  A    between atoms: C11_18  and  C12_19 
REMARK   10  A    between atoms: C11_18  and  C13_20 
REMARK   11  A    between atoms: N4_21  and  C14_22 
REMARK   12  A    between atoms: C14_22  and  C15_23 
REMARK   13  A    between atoms: C14_22  and  C16_25 
REMARK       I    between atoms: C15_23  and  N6_40 
REMARK   14  A    between atoms: C16_25  and  C17_26 
REMARK   15  A    between atoms: C17_26  and  C18_27 
REMARK   16  A    between atoms: C17_26  and  C19_28 
REMARK   17  A    between atoms: C20_29  and  C21_30 
REMARK   18  A    between atoms: C20_29  and  C24_33 
REMARK   19  A    between atoms: C20_29  and  N6_40 
REMARK   20  A    between atoms: C21_30  and  C22_31 
REMARK   21  A    between atoms: C22_31  and  C23_32 
REMARK   22  A    between atoms: C23_32  and  O8_43 
REMARK   23  A    between atoms: C24_33  and  C25_34 
REMARK   24  A    between atoms: C28_38  and  O6_39 
REMARK   25  A    between atoms: C29_42  and  O8_43 
REMARK   26  A    between atoms: C29_42  and  C35_49 
ROOT
ATOM      1  C14 non d ame      -7.290   9.570  64.905  0.00  0.00     0.089 C 
ATOM      2  H20 non d ame      -7.796   8.759  64.380  0.00  0.00     0.087 H 
ENDROOT
BRANCH   1   3
ATOM      3  N4  non d ame      -8.256  10.642  65.091  0.00  0.00    -0.346 N 
ATOM      4  C10 non d ame      -9.704  10.323  65.372  0.00  0.00     0.241 C 
ATOM      5  O4  non d ame     -10.067   9.195  65.440  0.00  0.00    -0.271 OA
ATOM      6  H19 non d ame      -7.928  11.595  65.027  0.00  0.00     0.163 HD
BRANCH   4   7
ATOM      7  C9  non d ame     -10.690  11.444  65.567  0.00  0.00     0.092 C 
ATOM      8  H11 non d ame     -11.656  11.027  65.850  0.00  0.00     0.088 H 
BRANCH   7   9
ATOM      9  N3  non d ame     -10.247  12.297  66.675  0.00  0.00    -0.346 N 
ATOM     10  C7  non d ame     -11.210  12.819  67.612  0.00  0.00     0.240 C 
ATOM     11  O3  non d ame     -12.346  12.564  67.492  0.00  0.00    -0.271 OA
ATOM     12  H10 non d ame      -9.270  12.527  66.792  0.00  0.00     0.163 HD
BRANCH  10  13
ATOM     13  C6  non d ame     -10.732  13.728  68.787  0.00  0.00     0.086 C 
ATOM     14  H6  non d ame      -9.813  13.371  69.251  0.00  0.00     0.086 H 
BRANCH  13  15
ATOM     15  N2  non d ame     -10.447  15.056  68.269  0.00  0.00    -0.343 N 
ATOM     16  C5  non d ame      -9.116  15.352  67.734  0.00  0.00     0.273 C 
ATOM     17  O2  non d ame      -8.281  14.516  67.729  0.00  0.00    -0.266 OA
ATOM     18  H5  non d ame     -11.166  15.766  68.281  0.00  0.00     0.163 HD
BRANCH  16  19
ATOM     19  C4  non d ame      -8.802  16.752  67.183  0.00  0.00     0.154 A 
ATOM     20  C1  non d ame      -8.320  17.882  67.916  0.00  0.00    -0.017 A 
ATOM     21  C2  non d ame      -8.195  18.911  66.956  0.00  0.00     0.077 A 
ATOM     22  H1  non d ame      -8.094  17.946  68.980  0.00  0.00     0.091 H 
ATOM     23  O1  non d ame      -8.563  18.419  65.810  0.00  0.00    -0.218 OA
ATOM     24  N1  non d ame      -8.922  17.160  65.916  0.00  0.00    -0.123 NA
BRANCH  21  25
ATOM     25  C3  non d ame      -7.716  20.333  67.216  0.00  0.00    -0.029 C 
ATOM     26  H2  non d ame      -8.362  20.804  67.958  0.00  0.00     0.036 H 
ATOM     27  H3  non d ame      -6.693  20.310  67.589  0.00  0.00     0.036 H 
ATOM     28  H4  non d ame      -7.752  20.905  66.288  0.00  0.00     0.036 H 
ENDBRANCH  21  25
ENDBRANCH  16  19
ENDBRANCH  13  15
BRANCH  13  29
ATOM     29  C8  non d ame     -11.810  13.805  69.838  0.00  0.00    -0.049 C 
ATOM     30  H7  non d ame     -11.524  13.196  70.697  0.00  0.00     0.030 H 
ATOM     31  H8  non d ame     -11.939  14.840  70.153  0.00  0.00     0.030 H 
ATOM     32  H9  non d ame     -12.747  13.430  69.425  0.00  0.00     0.030 H 
ENDBRANCH  13  29
ENDBRANCH  10  13
ENDBRANCH   7   9
BRANCH   7  33
ATOM     33  C11 non d ame     -10.775  12.292  64.265  0.00  0.00    -0.033 C 
ATOM     34  H12 non d ame     -10.020  11.915  63.576  0.00  0.00     0.042 H 
BRANCH  33  35
ATOM     35  C12 non d ame     -12.165  12.132  63.572  0.00  0.00    -0.071 C 
ATOM     36  H13 non d ame     -12.598  11.169  63.845  0.00  0.00     0.028 H 
ATOM     37  H14 non d ame     -12.827  12.933  63.897  0.00  0.00     0.028 H 
ATOM     38  H15 non d ame     -12.038  12.180  62.492  0.00  0.00     0.028 H 
ENDBRANCH  33  35
BRANCH  33  39
ATOM     39  C13 non d ame     -10.458  13.795  64.554  0.00  0.00    -0.071 C 
ATOM     40  H16 non d ame      -9.613  13.862  65.239  0.00  0.00     0.028 H 
ATOM     41  H17 non d ame     -10.210  14.300  63.620  0.00  0.00     0.028 H 
ATOM     42  H18 non d ame     -11.329  14.271  65.003  0.00  0.00     0.028 H 
ENDBRANCH  33  39
ENDBRANCH   7  33
ENDBRANCH   4   7
ENDBRANCH   1   3
BRANCH   1  43
ATOM     43  C15 non d ame      -6.766   9.129  66.301  0.00  0.00     0.240 C 
ATOM     44  O5  non d ame      -5.728   9.546  66.702  0.00  0.00    -0.271 OA
ATOM     45  N6  non d ame      -7.564   8.192  67.143  0.00  0.00    -0.355 N 
ATOM     46  H46 non d ame      -8.449   7.835  66.815  0.00  0.00     0.162 HD
BRANCH  45  47
ATOM     47  C20 non d ame      -7.052   7.783  68.469  0.00  0.00     0.013 C 
ATOM     48  H30 non d ame      -6.174   8.388  68.692  0.00  0.00     0.072 H 
BRANCH  47  49
ATOM     49  C21 non d ame      -6.674   6.319  68.429  0.00  0.00    -0.038 C 
ATOM     50  H31 non d ame      -5.595   6.290  68.577  0.00  0.00     0.036 H 
ATOM     51  H32 non d ame      -7.336   5.825  69.141  0.00  0.00     0.036 H 
BRANCH  49  52
ATOM     52  C22 non d ame      -6.945   5.668  67.056  0.00  0.00     0.018 C 
ATOM     53  H33 non d ame      -6.662   6.415  66.313  0.00  0.00     0.048 H 
ATOM     54  H34 non d ame      -6.436   4.705  67.080  0.00  0.00     0.048 H 
BRANCH  52  55
ATOM     55  C23 non d ame      -8.445   5.354  66.796  0.00  0.00     0.259 C 
ATOM     56  O7  non d ame      -9.085   4.759  67.602  0.00  0.00    -0.265 OA
BRANCH  55  57
ATOM     57  O8  non d ame      -9.043   5.773  65.576  0.00  0.00    -0.317 OA
BRANCH  57  58
ATOM     58  C29 non d ame      -8.130   5.853  64.477  0.00  0.00     0.052 C 
ATOM     59  H47 non d ame      -8.114   6.901  64.183  0.00  0.00     0.082 H 
ATOM     60  H48 non d ame      -7.215   5.369  64.819  0.00  0.00     0.082 H 
BRANCH  58  61
ATOM     61  C35 non d ame      -8.716   5.021  63.306  0.00  0.00    -0.034 A 
ATOM     62  C30 non d ame      -9.868   4.265  63.495  0.00  0.00    -0.075 A 
ATOM     63  C31 non d ame     -10.395   3.518  62.442  0.00  0.00    -0.082 A 
ATOM     64  H49 non d ame     -10.359   4.258  64.469  0.00  0.00     0.084 H 
ATOM     65  C32 non d ame      -9.762   3.526  61.197  0.00  0.00    -0.083 A 
ATOM     66  H50 non d ame     -11.299   2.929  62.594  0.00  0.00     0.083 H 
ATOM     67  C33 non d ame      -8.610   4.279  61.012  0.00  0.00    -0.082 A 
ATOM     68  H51 non d ame     -10.168   2.946  60.368  0.00  0.00     0.083 H 
ATOM     69  C34 non d ame      -8.082   5.029  62.062  0.00  0.00    -0.075 A 
ATOM     70  H52 non d ame      -8.118   4.282  60.039  0.00  0.00     0.083 H 
ATOM     71  H53 non d ame      -7.178   5.620  61.908  0.00  0.00     0.084 H 
ENDBRANCH  58  61
ENDBRANCH  57  58
ENDBRANCH  55  57
ENDBRANCH  52  55
ENDBRANCH  49  52
ENDBRANCH  47  49
BRANCH  47  72
ATOM     72  C24 non d ame      -8.130   8.003  69.528  0.00  0.00    -0.039 C 
ATOM     73  H35 non d ame      -8.311   7.021  69.967  0.00  0.00     0.036 H 
ATOM     74  H36 non d ame      -7.763   8.818  70.152  0.00  0.00     0.036 H 
BRANCH  72  75
ATOM     75  C25 non d ame      -9.511   8.491  68.878  0.00  0.00    -0.001 C 
ATOM     76  C26 non d ame      -9.921   9.966  69.478  0.00  0.00    -0.035 C 
ATOM     77  C27 non d ame     -11.198   9.915  69.926  0.00  0.00     0.085 C 
ATOM     78  H38 non d ame      -9.344  10.178  70.377  0.00  0.00     0.036 H 
ATOM     79  H39 non d ame      -9.963  10.699  68.672  0.00  0.00     0.036 H 
ATOM     80  N5  non d ame     -11.586   8.457  69.987  0.00  0.00    -0.049 N 
ATOM     81  H40 non d ame     -11.168  10.317  70.939  0.00  0.00     0.075 H 
ATOM     82  H41 non d ame     -11.795  10.409  69.160  0.00  0.00     0.075 H 
ATOM     83  C28 non d ame     -10.468   7.664  69.134  0.00  0.00     0.193 C 
ATOM     84  H42 non d ame     -11.509   8.181  70.954  0.00  0.00     0.280 HD
ATOM     85  H43 non d ame     -12.472   8.376  69.507  0.00  0.00     0.280 HD
ATOM     86  H44 non d ame     -10.690   7.300  68.131  0.00  0.00     0.129 H 
ATOM     87  H37 non d ame      -9.519   8.377  67.794  0.00  0.00     0.046 H 
BRANCH  83  88
ATOM     88  O6  non d ame     -10.012   6.521  69.862  0.00  0.00    -0.369 OA
ATOM     89  H45 non d ame     -10.768   6.013  70.166  0.00  0.00     0.212 HD
ENDBRANCH  83  88
ENDBRANCH  72  75
ENDBRANCH  47  72
ENDBRANCH  45  47
ENDBRANCH   1  43
BRANCH   1  90
ATOM     90  C16 non d ame      -6.133  10.086  64.064  0.00  0.00    -0.035 C 
ATOM     91  H21 non d ame      -6.415  11.100  63.777  0.00  0.00     0.037 H 
ATOM     92  H22 non d ame      -5.241   9.918  64.666  0.00  0.00     0.037 H 
BRANCH  90  93
ATOM     93  C17 non d ame      -5.924   9.294  62.734  0.00  0.00    -0.059 C 
ATOM     94  H23 non d ame      -5.388   9.945  62.043  0.00  0.00     0.038 H 
BRANCH  93  95
ATOM     95  C18 non d ame      -5.061   8.008  62.943  0.00  0.00    -0.073 C 
ATOM     96  H24 non d ame      -4.246   7.997  62.219  0.00  0.00     0.028 H 
ATOM     97  H25 non d ame      -4.651   8.007  63.952  0.00  0.00     0.028 H 
ATOM     98  H26 non d ame      -5.685   7.126  62.802  0.00  0.00     0.028 H 
ENDBRANCH  93  95
BRANCH  93  99
ATOM     99  C19 non d ame      -7.266   8.950  62.084  0.00  0.00    -0.073 C 
ATOM    100  H27 non d ame      -7.249   9.248  61.035  0.00  0.00     0.028 H 
ATOM    101  H28 non d ame      -7.438   7.875  62.154  0.00  0.00     0.028 H 
ATOM    102  H29 non d ame      -8.067   9.479  62.601  0.00  0.00     0.028 H 
ENDBRANCH  93  99
ENDBRANCH  90  93
ENDBRANCH   1  90
TORSDOF 26
ENDMDL
MODEL 12
REMARK VINA RESULT:      -6.5      3.166      8.103
REMARK  26 active torsions:
REMARK  status: ('A' for Active; 'I' for Inactive)
REMARK    1  A    between atoms: C2_2  and  C3_3 
REMARK    2  A    between atoms: C4_6  and  C5_7 
REMARK       I    between atoms: C5_7  and  N2_9 
REMARK    3  A    between atoms: N2_9  and  C6_10 
REMARK    4  A    between atoms: C6_10  and  C7_11 
REMARK    5  A    between atoms: C6_10  and  C8_13 
REMARK       I    between atoms: C7_11  and  N3_14 
REMARK    6  A    between atoms: N3_14  and  C9_15 
REMARK    7  A    between atoms: C9_15  and  C10_16 
REMARK    8  A    between atoms: C9_15  and  C11_18 
REMARK       I    between atoms: C10_16  and  N4_21 
REMARK    9  A    between atoms: C11_18  and  C12_19 
REMARK   10  A    between atoms: C11_18  and  C13_20 
REMARK   11  A    between atoms: N4_21  and  C14_22 
REMARK   12  A    between atoms: C14_22  and  C15_23 
REMARK   13  A    between atoms: C14_22  and  C16_25 
REMARK       I    between atoms: C15_23  and  N6_40 
REMARK   14  A    between atoms: C16_25  and  C17_26 
REMARK   15  A    between atoms: C17_26  and  C18_27 
REMARK   16  A    between atoms: C17_26  and  C19_28 
REMARK   17  A    between atoms: C20_29  and  C21_30 
REMARK   18  A    between atoms: C20_29  and  C24_33 
REMARK   19  A    between atoms: C20_29  and  N6_40 
REMARK   20  A    between atoms: C21_30  and  C22_31 
REMARK   21  A    between atoms: C22_31  and  C23_32 
REMARK   22  A    between atoms: C23_32  and  O8_43 
REMARK   23  A    between atoms: C24_33  and  C25_34 
REMARK   24  A    between atoms: C28_38  and  O6_39 
REMARK   25  A    between atoms: C29_42  and  O8_43 
REMARK   26  A    between atoms: C29_42  and  C35_49 
ROOT
ATOM      1  C14 non d ame      -7.071  10.083  63.289  0.00  0.00     0.089 C 
ATOM      2  H20 non d ame      -6.582  10.924  62.797  0.00  0.00     0.087 H 
ENDROOT
BRANCH   1   3
ATOM      3  N4  non d ame      -6.503   9.967  64.624  0.00  0.00    -0.346 N 
ATOM      4  C10 non d ame      -5.204  10.654  64.962  0.00  0.00     0.241 C 
ATOM      5  O4  non d ame      -4.632  11.294  64.141  0.00  0.00    -0.271 OA
ATOM      6  H19 non d ame      -7.003   9.416  65.308  0.00  0.00     0.163 HD
BRANCH   4   7
ATOM      7  C9  non d ame      -4.633  10.528  66.350  0.00  0.00     0.092 C 
ATOM      8  H11 non d ame      -3.549  10.633  66.303  0.00  0.00     0.088 H 
BRANCH   7   9
ATOM      9  N3  non d ame      -5.136  11.621  67.187  0.00  0.00    -0.346 N 
ATOM     10  C7  non d ame      -4.373  12.836  67.323  0.00  0.00     0.240 C 
ATOM     11  O3  non d ame      -3.350  12.953  66.766  0.00  0.00    -0.271 OA
ATOM     12  H10 non d ame      -6.017  11.536  67.675  0.00  0.00     0.163 HD
BRANCH  10  13
ATOM     13  C6  non d ame      -4.913  13.995  68.218  0.00  0.00     0.086 C 
ATOM     14  H6  non d ame      -4.807  14.974  67.751  0.00  0.00     0.086 H 
BRANCH  13  15
ATOM     15  N2  non d ame      -6.335  13.793  68.443  0.00  0.00    -0.343 N 
ATOM     16  C5  non d ame      -7.216  14.954  68.582  0.00  0.00     0.273 C 
ATOM     17  O2  non d ame      -6.771  16.047  68.515  0.00  0.00    -0.266 OA
ATOM     18  H5  non d ame      -6.707  12.855  68.501  0.00  0.00     0.163 HD
BRANCH  16  19
ATOM     19  C4  non d ame      -8.721  14.755  68.818  0.00  0.00     0.154 A 
ATOM     20  C1  non d ame      -9.607  15.624  69.531  0.00  0.00    -0.017 A 
ATOM     21  C2  non d ame     -10.869  14.994  69.459  0.00  0.00     0.077 A 
ATOM     22  H1  non d ame      -9.371  16.567  70.023  0.00  0.00     0.091 H 
ATOM     23  O1  non d ame     -10.716  13.894  68.781  0.00  0.00    -0.218 OA
ATOM     24  N1  non d ame      -9.471  13.733  68.396  0.00  0.00    -0.123 NA
BRANCH  21  25
ATOM     25  C3  non d ame     -12.170  15.509  70.063  0.00  0.00    -0.029 C 
ATOM     26  H2  non d ame     -12.827  15.858  69.266  0.00  0.00     0.036 H 
ATOM     27  H3  non d ame     -12.659  14.705  70.611  0.00  0.00     0.036 H 
ATOM     28  H4  non d ame     -11.953  16.334  70.743  0.00  0.00     0.036 H 
ENDBRANCH  21  25
ENDBRANCH  16  19
ENDBRANCH  13  15
BRANCH  13  29
ATOM     29  C8  non d ame      -4.178  14.001  69.534  0.00  0.00    -0.049 C 
ATOM     30  H7  non d ame      -3.109  14.115  69.353  0.00  0.00     0.030 H 
ATOM     31  H8  non d ame      -4.534  14.830  70.146  0.00  0.00     0.030 H 
ATOM     32  H9  non d ame      -4.359  13.061  70.055  0.00  0.00     0.030 H 
ENDBRANCH  13  29
ENDBRANCH  10  13
ENDBRANCH   7   9
BRANCH   7  33
ATOM     33  C11 non d ame      -5.064   9.165  66.966  0.00  0.00    -0.033 C 
ATOM     34  H12 non d ame      -5.985   8.858  66.473  0.00  0.00     0.042 H 
BRANCH  33  35
ATOM     35  C12 non d ame      -3.997   8.058  66.698  0.00  0.00    -0.071 C 
ATOM     36  H13 non d ame      -4.494   7.147  66.364  0.00  0.00     0.028 H 
ATOM     37  H14 non d ame      -3.305   8.398  65.928  0.00  0.00     0.028 H 
ATOM     38  H15 non d ame      -3.448   7.855  67.617  0.00  0.00     0.028 H 
ENDBRANCH  33  35
BRANCH  33  39
ATOM     39  C13 non d ame      -5.357   9.310  68.494  0.00  0.00    -0.071 C 
ATOM     40  H16 non d ame      -4.591   8.785  69.062  0.00  0.00     0.028 H 
ATOM     41  H17 non d ame      -5.353  10.366  68.766  0.00  0.00     0.028 H 
ATOM     42  H18 non d ame      -6.334   8.881  68.718  0.00  0.00     0.028 H 
ENDBRANCH  33  39
ENDBRANCH   7  33
ENDBRANCH   4   7
ENDBRANCH   1   3
BRANCH   1  43
ATOM     43  C15 non d ame      -8.607  10.291  63.422  0.00  0.00     0.240 C 
ATOM     44  O5  non d ame      -9.350   9.661  62.742  0.00  0.00    -0.271 OA
ATOM     45  N6  non d ame      -9.152  11.271  64.405  0.00  0.00    -0.355 N 
ATOM     46  H46 non d ame      -8.530  11.809  64.991  0.00  0.00     0.162 HD
BRANCH  45  47
ATOM     47  C20 non d ame     -10.614  11.457  64.520  0.00  0.00     0.013 C 
ATOM     48  H30 non d ame     -11.099  10.671  63.942  0.00  0.00     0.072 H 
BRANCH  47  49
ATOM     49  C21 non d ame     -10.991  12.812  63.966  0.00  0.00    -0.038 C 
ATOM     50  H31 non d ame     -10.100  13.181  63.458  0.00  0.00     0.036 H 
ATOM     51  H32 non d ame     -11.913  12.655  63.404  0.00  0.00     0.036 H 
BRANCH  49  52
ATOM     52  C22 non d ame     -11.322  13.840  65.070  0.00  0.00     0.018 C 
ATOM     53  H33 non d ame     -12.213  13.460  65.570  0.00  0.00     0.048 H 
ATOM     54  H34 non d ame     -10.399  13.977  65.632  0.00  0.00     0.048 H 
BRANCH  52  55
ATOM     55  C23 non d ame     -11.704  15.244  64.524  0.00  0.00     0.259 C 
ATOM     56  O7  non d ame     -12.735  15.410  63.956  0.00  0.00    -0.265 OA
BRANCH  55  57
ATOM     57  O8  non d ame     -10.801  16.329  64.699  0.00  0.00    -0.317 OA
BRANCH  57  58
ATOM     58  C29 non d ame      -9.949  16.198  65.841  0.00  0.00     0.052 C 
ATOM     59  H47 non d ame     -10.533  15.657  66.584  0.00  0.00     0.082 H 
ATOM     60  H48 non d ame      -9.017  15.775  65.466  0.00  0.00     0.082 H 
BRANCH  58  61
ATOM     61  C35 non d ame      -9.657  17.621  66.386  0.00  0.00    -0.034 A 
ATOM     62  C30 non d ame     -10.651  18.331  67.051  0.00  0.00    -0.075 A 
ATOM     63  C31 non d ame     -10.388  19.610  67.541  0.00  0.00    -0.082 A 
ATOM     64  H49 non d ame     -11.636  17.886  67.190  0.00  0.00     0.084 H 
ATOM     65  C32 non d ame      -9.125  20.180  67.359  0.00  0.00    -0.083 A 
ATOM     66  H50 non d ame     -11.168  20.162  68.064  0.00  0.00     0.083 H 
ATOM     67  C33 non d ame      -8.136  19.470  66.691  0.00  0.00    -0.082 A 
ATOM     68  H51 non d ame      -8.911  21.179  67.739  0.00  0.00     0.083 H 
ATOM     69  C34 non d ame      -8.395  18.190  66.203  0.00  0.00    -0.075 A 
ATOM     70  H52 non d ame      -7.153  19.919  66.550  0.00  0.00     0.083 H 
ATOM     71  H53 non d ame      -7.613  17.638  65.680  0.00  0.00     0.084 H 
ENDBRANCH  58  61
ENDBRANCH  57  58
ENDBRANCH  55  57
ENDBRANCH  52  55
ENDBRANCH  49  52
ENDBRANCH  47  49
BRANCH  47  72
ATOM     72  C24 non d ame     -11.031  11.372  65.987  0.00  0.00    -0.039 C 
ATOM     73  H35 non d ame     -10.876  12.372  66.391  0.00  0.00     0.036 H 
ATOM     74  H36 non d ame     -12.031  10.937  65.979  0.00  0.00     0.036 H 
BRANCH  72  75
ATOM     75  C25 non d ame     -10.088  10.376  66.815  0.00  0.00    -0.001 C 
ATOM     76  C26 non d ame     -10.206   8.855  66.202  0.00  0.00    -0.035 C 
ATOM     77  C27 non d ame     -10.469   7.995  67.215  0.00  0.00     0.085 C 
ATOM     78  H38 non d ame     -11.086   8.775  65.565  0.00  0.00     0.036 H 
ATOM     79  H39 non d ame      -9.235   8.524  65.834  0.00  0.00     0.036 H 
ATOM     80  N5  non d ame     -10.866   8.830  68.410  0.00  0.00    -0.049 N 
ATOM     81  H40 non d ame     -11.331   7.413  66.887  0.00  0.00     0.075 H 
ATOM     82  H41 non d ame      -9.524   7.498  67.428  0.00  0.00     0.075 H 
ATOM     83  C28 non d ame     -10.423  10.342  68.062  0.00  0.00     0.193 C 
ATOM     84  H42 non d ame     -11.874   8.794  68.462  0.00  0.00     0.280 HD
ATOM     85  H43 non d ame     -10.309   8.502  69.185  0.00  0.00     0.280 HD
ATOM     86  H44 non d ame      -9.534  10.779  68.517  0.00  0.00     0.129 H 
ATOM     87  H37 non d ame      -9.085  10.778  66.954  0.00  0.00     0.046 H 
BRANCH  83  88
ATOM     88  O6  non d ame     -11.487  11.249  68.358  0.00  0.00    -0.369 OA
ATOM     89  H45 non d ame     -12.239  10.759  68.699  0.00  0.00     0.212 HD
ENDBRANCH  83  88
ENDBRANCH  72  75
ENDBRANCH  47  72
ENDBRANCH  45  47
ENDBRANCH   1  43
BRANCH   1  90
ATOM     90  C16 non d ame      -6.793   8.802  62.519  0.00  0.00    -0.035 C 
ATOM     91  H21 non d ame      -7.692   8.620  61.928  0.00  0.00     0.037 H 
ATOM     92  H22 non d ame      -5.838   8.967  62.021  0.00  0.00     0.037 H 
BRANCH  90  93
ATOM     93  C17 non d ame      -6.605   7.549  63.432  0.00  0.00    -0.059 C 
ATOM     94  H23 non d ame      -6.639   7.887  64.468  0.00  0.00     0.038 H 
BRANCH  93  95
ATOM     95  C18 non d ame      -7.746   6.500  63.237  0.00  0.00    -0.073 C 
ATOM     96  H24 non d ame      -8.169   6.239  64.206  0.00  0.00     0.028 H 
ATOM     97  H25 non d ame      -8.524   6.924  62.603  0.00  0.00     0.028 H 
ATOM     98  H26 non d ame      -7.339   5.606  62.764  0.00  0.00     0.028 H 
ENDBRANCH  93  95
BRANCH  93  99
ATOM     99  C19 non d ame      -5.232   6.910  63.208  0.00  0.00    -0.073 C 
ATOM    100  H27 non d ame      -5.161   5.990  63.790  0.00  0.00     0.028 H 
ATOM    101  H28 non d ame      -5.107   6.682  62.149  0.00  0.00     0.028 H 
ATOM    102  H29 non d ame      -4.452   7.602  63.524  0.00  0.00     0.028 H 
ENDBRANCH  93  99
ENDBRANCH  90  93
ENDBRANCH   1  90
TORSDOF 26
ENDMDL
MODEL 13
REMARK VINA RESULT:      -6.5      2.704      5.483
REMARK  26 active torsions:
REMARK  status: ('A' for Active; 'I' for Inactive)
REMARK    1  A    between atoms: C2_2  and  C3_3 
REMARK    2  A    between atoms: C4_6  and  C5_7 
REMARK       I    between atoms: C5_7  and  N2_9 
REMARK    3  A    between atoms: N2_9  and  C6_10 
REMARK    4  A    between atoms: C6_10  and  C7_11 
REMARK    5  A    between atoms: C6_10  and  C8_13 
REMARK       I    between atoms: C7_11  and  N3_14 
REMARK    6  A    between atoms: N3_14  and  C9_15 
REMARK    7  A    between atoms: C9_15  and  C10_16 
REMARK    8  A    between atoms: C9_15  and  C11_18 
REMARK       I    between atoms: C10_16  and  N4_21 
REMARK    9  A    between atoms: C11_18  and  C12_19 
REMARK   10  A    between atoms: C11_18  and  C13_20 
REMARK   11  A    between atoms: N4_21  and  C14_22 
REMARK   12  A    between atoms: C14_22  and  C15_23 
REMARK   13  A    between atoms: C14_22  and  C16_25 
REMARK       I    between atoms: C15_23  and  N6_40 
REMARK   14  A    between atoms: C16_25  and  C17_26 
REMARK   15  A    between atoms: C17_26  and  C18_27 
REMARK   16  A    between atoms: C17_26  and  C19_28 
REMARK   17  A    between atoms: C20_29  and  C21_30 
REMARK   18  A    between atoms: C20_29  and  C24_33 
REMARK   19  A    between atoms: C20_29  and  N6_40 
REMARK   20  A    between atoms: C21_30  and  C22_31 
REMARK   21  A    between atoms: C22_31  and  C23_32 
REMARK   22  A    between atoms: C23_32  and  O8_43 
REMARK   23  A    between atoms: C24_33  and  C25_34 
REMARK   24  A    between atoms: C28_38  and  O6_39 
REMARK   25  A    between atoms: C29_42  and  O8_43 
REMARK   26  A    between atoms: C29_42  and  C35_49 
ROOT
ATOM      1  C14 non d ame     -11.043   9.460  70.385  0.00  0.00     0.089 C 
ATOM      2  H20 non d ame     -11.383   8.670  69.714  0.00  0.00     0.087 H 
ENDROOT
BRANCH   1   3
ATOM      3  N4  non d ame      -9.683   9.805  70.001  0.00  0.00    -0.346 N 
ATOM      4  C10 non d ame      -8.884   8.882  69.115  0.00  0.00     0.241 C 
ATOM      5  O4  non d ame      -9.357   7.865  68.725  0.00  0.00    -0.271 OA
ATOM      6  H19 non d ame      -9.296  10.673  70.345  0.00  0.00     0.163 HD
BRANCH   4   7
ATOM      7  C9  non d ame      -7.479   9.257  68.723  0.00  0.00     0.092 C 
ATOM      8  H11 non d ame      -6.866   8.356  68.680  0.00  0.00     0.088 H 
BRANCH   7   9
ATOM      9  N3  non d ame      -7.485   9.840  67.378  0.00  0.00    -0.346 N 
ATOM     10  C7  non d ame      -7.113   9.035  66.241  0.00  0.00     0.240 C 
ATOM     11  O3  non d ame      -6.805   7.916  66.389  0.00  0.00    -0.271 OA
ATOM     12  H10 non d ame      -7.748  10.805  67.234  0.00  0.00     0.163 HD
BRANCH  10  13
ATOM     13  C6  non d ame      -7.120   9.663  64.812  0.00  0.00     0.086 C 
ATOM     14  H6  non d ame      -7.332   8.933  64.032  0.00  0.00     0.086 H 
BRANCH  13  15
ATOM     15  N2  non d ame      -8.171  10.664  64.742  0.00  0.00    -0.343 N 
ATOM     16  C5  non d ame      -9.303  10.461  63.835  0.00  0.00     0.273 C 
ATOM     17  O2  non d ame      -9.356   9.490  63.164  0.00  0.00    -0.266 OA
ATOM     18  H5  non d ame      -8.116  11.493  65.318  0.00  0.00     0.163 HD
BRANCH  16  19
ATOM     19  C4  non d ame     -10.421  11.511  63.752  0.00  0.00     0.154 A 
ATOM     20  C1  non d ame     -10.471  12.776  64.419  0.00  0.00    -0.017 A 
ATOM     21  C2  non d ame     -11.695  13.353  64.013  0.00  0.00     0.077 A 
ATOM     22  H1  non d ame      -9.732  13.210  65.093  0.00  0.00     0.091 H 
ATOM     23  O1  non d ame     -12.271  12.511  63.206  0.00  0.00    -0.218 OA
ATOM     24  N1  non d ame     -11.547  11.428  63.039  0.00  0.00    -0.123 NA
BRANCH  21  25
ATOM     25  C3  non d ame     -12.236  14.711  64.439  0.00  0.00    -0.029 C 
ATOM     26  H2  non d ame     -12.504  15.290  63.555  0.00  0.00     0.036 H 
ATOM     27  H3  non d ame     -13.118  14.571  65.063  0.00  0.00     0.036 H 
ATOM     28  H4  non d ame     -11.472  15.246  65.005  0.00  0.00     0.036 H 
ENDBRANCH  21  25
ENDBRANCH  16  19
ENDBRANCH  13  15
BRANCH  13  29
ATOM     29  C8  non d ame      -5.782  10.299  64.534  0.00  0.00    -0.049 C 
ATOM     30  H7  non d ame      -5.006   9.533  64.545  0.00  0.00     0.030 H 
ATOM     31  H8  non d ame      -5.803  10.781  63.557  0.00  0.00     0.030 H 
ATOM     32  H9  non d ame      -5.566  11.043  65.302  0.00  0.00     0.030 H 
ENDBRANCH  13  29
ENDBRANCH  10  13
ENDBRANCH   7   9
BRANCH   7  33
ATOM     33  C11 non d ame      -6.919  10.298  69.735  0.00  0.00    -0.033 C 
ATOM     34  H12 non d ame      -7.747  10.629  70.360  0.00  0.00     0.042 H 
BRANCH  33  35
ATOM     35  C12 non d ame      -5.848   9.660  70.675  0.00  0.00    -0.071 C 
ATOM     36  H13 non d ame      -4.961   9.406  70.095  0.00  0.00     0.028 H 
ATOM     37  H14 non d ame      -5.581  10.370  71.456  0.00  0.00     0.028 H 
ATOM     38  H15 non d ame      -6.257   8.757  71.127  0.00  0.00     0.028 H 
ENDBRANCH  33  35
BRANCH  33  39
ATOM     39  C13 non d ame      -6.345  11.548  68.992  0.00  0.00    -0.071 C 
ATOM     40  H16 non d ame      -7.149  12.055  68.461  0.00  0.00     0.028 H 
ATOM     41  H17 non d ame      -5.902  12.230  69.718  0.00  0.00     0.028 H 
ATOM     42  H18 non d ame      -5.583  11.229  68.281  0.00  0.00     0.028 H 
ENDBRANCH  33  39
ENDBRANCH   7  33
ENDBRANCH   4   7
ENDBRANCH   1   3
BRANCH   1  43
ATOM     43  C15 non d ame     -11.924  10.737  70.283  0.00  0.00     0.240 C 
ATOM     44  O5  non d ame     -13.099  10.661  70.446  0.00  0.00    -0.271 OA
ATOM     45  N6  non d ame     -11.302  12.060  69.989  0.00  0.00    -0.355 N 
ATOM     46  H46 non d ame     -10.305  12.138  69.853  0.00  0.00     0.162 HD
BRANCH  45  47
ATOM     47  C20 non d ame     -12.153  13.266  69.896  0.00  0.00     0.013 C 
ATOM     48  H30 non d ame     -12.902  13.089  69.124  0.00  0.00     0.072 H 
BRANCH  47  49
ATOM     49  C21 non d ame     -11.297  14.455  69.523  0.00  0.00    -0.038 C 
ATOM     50  H31 non d ame     -11.676  15.288  70.114  0.00  0.00     0.036 H 
ATOM     51  H32 non d ame     -10.265  14.125  69.644  0.00  0.00     0.036 H 
BRANCH  49  52
ATOM     52  C22 non d ame     -11.453  14.864  68.042  0.00  0.00     0.018 C 
ATOM     53  H33 non d ame     -10.803  14.193  67.479  0.00  0.00     0.048 H 
ATOM     54  H34 non d ame     -12.526  14.870  67.849  0.00  0.00     0.048 H 
BRANCH  52  55
ATOM     55  C23 non d ame     -10.954  16.303  67.733  0.00  0.00     0.259 C 
ATOM     56  O7  non d ame     -11.232  17.205  68.454  0.00  0.00    -0.265 OA
BRANCH  55  57
ATOM     57  O8  non d ame     -10.170  16.533  66.569  0.00  0.00    -0.317 OA
BRANCH  57  58
ATOM     58  C29 non d ame      -8.786  16.205  66.725  0.00  0.00     0.052 C 
ATOM     59  H47 non d ame      -8.753  15.417  67.476  0.00  0.00     0.082 H 
ATOM     60  H48 non d ame      -8.412  16.016  65.719  0.00  0.00     0.082 H 
BRANCH  58  61
ATOM     61  C35 non d ame      -8.059  17.455  67.291  0.00  0.00    -0.034 A 
ATOM     62  C30 non d ame      -8.264  18.703  66.712  0.00  0.00    -0.075 A 
ATOM     63  C31 non d ame      -7.611  19.825  67.220  0.00  0.00    -0.082 A 
ATOM     64  H49 non d ame      -8.938  18.802  65.860  0.00  0.00     0.084 H 
ATOM     65  C32 non d ame      -6.747  19.694  68.310  0.00  0.00    -0.083 A 
ATOM     66  H50 non d ame      -7.777  20.802  66.766  0.00  0.00     0.083 H 
ATOM     67  C33 non d ame      -6.542  18.446  68.883  0.00  0.00    -0.082 A 
ATOM     68  H51 non d ame      -6.233  20.567  68.714  0.00  0.00     0.083 H 
ATOM     69  C34 non d ame      -7.195  17.323  68.379  0.00  0.00    -0.075 A 
ATOM     70  H52 non d ame      -5.865  18.348  69.733  0.00  0.00     0.083 H 
ATOM     71  H53 non d ame      -7.029  16.346  68.836  0.00  0.00     0.084 H 
ENDBRANCH  58  61
ENDBRANCH  57  58
ENDBRANCH  55  57
ENDBRANCH  52  55
ENDBRANCH  49  52
ENDBRANCH  47  49
BRANCH  47  72
ATOM     72  C24 non d ame     -12.829  13.525  71.241  0.00  0.00    -0.039 C 
ATOM     73  H35 non d ame     -13.881  13.283  71.088  0.00  0.00     0.036 H 
ATOM     74  H36 non d ame     -12.243  12.969  71.973  0.00  0.00     0.036 H 
BRANCH  72  75
ATOM     75  C25 non d ame     -12.755  15.071  71.654  0.00  0.00    -0.001 C 
ATOM     76  C26 non d ame     -11.752  15.259  72.943  0.00  0.00    -0.035 C 
ATOM     77  C27 non d ame     -12.398  15.971  73.898  0.00  0.00     0.085 C 
ATOM     78  H38 non d ame     -11.573  14.296  73.421  0.00  0.00     0.036 H 
ATOM     79  H39 non d ame     -10.912  15.899  72.674  0.00  0.00     0.036 H 
ATOM     80  N5  non d ame     -13.858  16.003  73.512  0.00  0.00    -0.049 N 
ATOM     81  H40 non d ame     -12.287  15.394  74.817  0.00  0.00     0.075 H 
ATOM     82  H41 non d ame     -11.992  16.979  73.834  0.00  0.00     0.075 H 
ATOM     83  C28 non d ame     -13.921  15.528  71.970  0.00  0.00     0.193 C 
ATOM     84  H42 non d ame     -14.320  15.310  74.082  0.00  0.00     0.280 HD
ATOM     85  H43 non d ame     -14.145  16.971  73.561  0.00  0.00     0.280 HD
ATOM     86  H44 non d ame     -14.074  16.253  71.172  0.00  0.00     0.129 H 
ATOM     87  H37 non d ame     -12.584  15.720  70.794  0.00  0.00     0.046 H 
BRANCH  83  88
ATOM     88  O6  non d ame     -14.947  14.549  71.798  0.00  0.00    -0.369 OA
ATOM     89  H45 non d ame     -15.207  14.518  70.874  0.00  0.00     0.212 HD
ENDBRANCH  83  88
ENDBRANCH  72  75
ENDBRANCH  47  72
ENDBRANCH  45  47
ENDBRANCH   1  43
BRANCH   1  90
ATOM     90  C16 non d ame     -11.041   8.953  71.818  0.00  0.00    -0.035 C 
ATOM     91  H21 non d ame     -10.046   9.180  72.203  0.00  0.00     0.037 H 
ATOM     92  H22 non d ame     -11.919   9.400  72.283  0.00  0.00     0.037 H 
BRANCH  90  93
ATOM     93  C17 non d ame     -11.217   7.406  71.937  0.00  0.00    -0.059 C 
ATOM     94  H23 non d ame     -11.746   7.204  72.868  0.00  0.00     0.038 H 
BRANCH  93  95
ATOM     95  C18 non d ame     -12.070   6.818  70.767  0.00  0.00    -0.073 C 
ATOM     96  H24 non d ame     -11.672   5.844  70.482  0.00  0.00     0.028 H 
ATOM     97  H25 non d ame     -13.104   6.708  71.092  0.00  0.00     0.028 H 
ATOM     98  H26 non d ame     -12.027   7.493  69.912  0.00  0.00     0.028 H 
ENDBRANCH  93  95
BRANCH  93  99
ATOM     99  C19 non d ame      -9.858   6.706  72.026  0.00  0.00    -0.073 C 
ATOM    100  H27 non d ame      -9.386   6.704  71.043  0.00  0.00     0.028 H 
ATOM    101  H28 non d ame      -9.223   7.237  72.734  0.00  0.00     0.028 H 
ATOM    102  H29 non d ame     -10.000   5.680  72.365  0.00  0.00     0.028 H 
ENDBRANCH  93  99
ENDBRANCH  90  93
ENDBRANCH   1  90
TORSDOF 26
ENDMDL
MODEL 14
REMARK VINA RESULT:      -6.5      3.146      8.126
REMARK  26 active torsions:
REMARK  status: ('A' for Active; 'I' for Inactive)
REMARK    1  A    between atoms: C2_2  and  C3_3 
REMARK    2  A    between atoms: C4_6  and  C5_7 
REMARK       I    between atoms: C5_7  and  N2_9 
REMARK    3  A    between atoms: N2_9  and  C6_10 
REMARK    4  A    between atoms: C6_10  and  C7_11 
REMARK    5  A    between atoms: C6_10  and  C8_13 
REMARK       I    between atoms: C7_11  and  N3_14 
REMARK    6  A    between atoms: N3_14  and  C9_15 
REMARK    7  A    between atoms: C9_15  and  C10_16 
REMARK    8  A    between atoms: C9_15  and  C11_18 
REMARK       I    between atoms: C10_16  and  N4_21 
REMARK    9  A    between atoms: C11_18  and  C12_19 
REMARK   10  A    between atoms: C11_18  and  C13_20 
REMARK   11  A    between atoms: N4_21  and  C14_22 
REMARK   12  A    between atoms: C14_22  and  C15_23 
REMARK   13  A    between atoms: C14_22  and  C16_25 
REMARK       I    between atoms: C15_23  and  N6_40 
REMARK   14  A    between atoms: C16_25  and  C17_26 
REMARK   15  A    between atoms: C17_26  and  C18_27 
REMARK   16  A    between atoms: C17_26  and  C19_28 
REMARK   17  A    between atoms: C20_29  and  C21_30 
REMARK   18  A    between atoms: C20_29  and  C24_33 
REMARK   19  A    between atoms: C20_29  and  N6_40 
REMARK   20  A    between atoms: C21_30  and  C22_31 
REMARK   21  A    between atoms: C22_31  and  C23_32 
REMARK   22  A    between atoms: C23_32  and  O8_43 
REMARK   23  A    between atoms: C24_33  and  C25_34 
REMARK   24  A    between atoms: C28_38  and  O6_39 
REMARK   25  A    between atoms: C29_42  and  O8_43 
REMARK   26  A    between atoms: C29_42  and  C35_49 
ROOT
ATOM      1  C14 non d ame      -7.476   9.608  67.806  0.00  0.00     0.089 C 
ATOM      2  H20 non d ame      -6.427   9.533  67.516  0.00  0.00     0.087 H 
ENDROOT
BRANCH   1   3
ATOM      3  N4  non d ame      -8.275   9.494  66.595  0.00  0.00    -0.346 N 
ATOM      4  C10 non d ame      -7.746  10.013  65.281  0.00  0.00     0.241 C 
ATOM      5  O4  non d ame      -6.674  10.522  65.225  0.00  0.00    -0.271 OA
ATOM      6  H19 non d ame      -9.185   9.060  66.664  0.00  0.00     0.163 HD
BRANCH   4   7
ATOM      7  C9  non d ame      -8.583   9.882  64.037  0.00  0.00     0.092 C 
ATOM      8  H11 non d ame      -9.235   9.014  64.132  0.00  0.00     0.088 H 
BRANCH   7   9
ATOM      9  N3  non d ame      -9.448  11.059  63.903  0.00  0.00    -0.346 N 
ATOM     10  C7  non d ame     -10.592  11.215  64.767  0.00  0.00     0.240 C 
ATOM     11  O3  non d ame     -10.833  10.404  65.575  0.00  0.00    -0.271 OA
ATOM     12  H10 non d ame      -9.253  11.768  63.210  0.00  0.00     0.163 HD
BRANCH  10  13
ATOM     13  C6  non d ame     -11.510  12.469  64.617  0.00  0.00     0.086 C 
ATOM     14  H6  non d ame     -12.356  12.456  65.304  0.00  0.00     0.086 H 
BRANCH  13  15
ATOM     15  N2  non d ame     -10.736  13.659  64.932  0.00  0.00    -0.343 N 
ATOM     16  C5  non d ame     -11.217  14.580  65.964  0.00  0.00     0.273 C 
ATOM     17  O2  non d ame     -12.228  14.356  66.533  0.00  0.00    -0.266 OA
ATOM     18  H5  non d ame      -9.875  13.844  64.438  0.00  0.00     0.163 HD
BRANCH  16  19
ATOM     19  C4  non d ame     -10.409  15.841  66.307  0.00  0.00     0.154 A 
ATOM     20  C1  non d ame      -9.939  16.243  67.598  0.00  0.00    -0.017 A 
ATOM     21  C2  non d ame      -9.258  17.460  67.374  0.00  0.00     0.077 A 
ATOM     22  H1  non d ame     -10.071  15.729  68.551  0.00  0.00     0.091 H 
ATOM     23  O1  non d ame      -9.332  17.717  66.101  0.00  0.00    -0.218 OA
ATOM     24  N1  non d ame      -9.999  16.786  65.458  0.00  0.00    -0.123 NA
BRANCH  21  25
ATOM     25  C3  non d ame      -8.564  18.312  68.429  0.00  0.00    -0.029 C 
ATOM     26  H2  non d ame      -8.198  19.230  67.971  0.00  0.00     0.036 H 
ATOM     27  H3  non d ame      -9.271  18.557  69.221  0.00  0.00     0.036 H 
ATOM     28  H4  non d ame      -7.725  17.756  68.851  0.00  0.00     0.036 H 
ENDBRANCH  21  25
ENDBRANCH  16  19
ENDBRANCH  13  15
BRANCH  13  29
ATOM     29  C8  non d ame     -12.029  12.549  63.205  0.00  0.00    -0.049 C 
ATOM     30  H7  non d ame     -11.245  12.245  62.511  0.00  0.00     0.030 H 
ATOM     31  H8  non d ame     -12.888  11.888  63.094  0.00  0.00     0.030 H 
ATOM     32  H9  non d ame     -12.328  13.574  62.986  0.00  0.00     0.030 H 
ENDBRANCH  13  29
ENDBRANCH  10  13
ENDBRANCH   7   9
BRANCH   7  33
ATOM     33  C11 non d ame      -7.652   9.782  62.794  0.00  0.00    -0.033 C 
ATOM     34  H12 non d ame      -6.624   9.807  63.150  0.00  0.00     0.042 H 
BRANCH  33  35
ATOM     35  C12 non d ame      -7.855   8.430  62.039  0.00  0.00    -0.071 C 
ATOM     36  H13 non d ame      -8.580   7.819  62.578  0.00  0.00     0.028 H 
ATOM     37  H14 non d ame      -8.223   8.628  61.033  0.00  0.00     0.028 H 
ATOM     38  H15 non d ame      -6.905   7.902  61.982  0.00  0.00     0.028 H 
ENDBRANCH  33  35
BRANCH  33  39
ATOM     39  C13 non d ame      -7.863  11.000  61.837  0.00  0.00    -0.071 C 
ATOM     40  H16 non d ame      -6.949  11.180  61.272  0.00  0.00     0.028 H 
ATOM     41  H17 non d ame      -8.680  10.784  61.148  0.00  0.00     0.028 H 
ATOM     42  H18 non d ame      -8.107  11.885  62.425  0.00  0.00     0.028 H 
ENDBRANCH  33  39
ENDBRANCH   7  33
ENDBRANCH   4   7
ENDBRANCH   1   3
BRANCH   1  43
ATOM     43  C15 non d ame      -7.898   8.476  68.785  0.00  0.00     0.240 C 
ATOM     44  O5  non d ame      -7.067   7.848  69.357  0.00  0.00    -0.271 OA
ATOM     45  N6  non d ame      -9.341   8.179  69.017  0.00  0.00    -0.355 N 
ATOM     46  H46 non d ame     -10.056   8.708  68.540  0.00  0.00     0.162 HD
BRANCH  45  47
ATOM     47  C20 non d ame      -9.726   7.100  69.951  0.00  0.00     0.013 C 
ATOM     48  H30 non d ame      -8.822   6.556  70.227  0.00  0.00     0.072 H 
BRANCH  47  49
ATOM     49  C21 non d ame     -10.699   6.168  69.266  0.00  0.00    -0.038 C 
ATOM     50  H31 non d ame     -10.191   5.206  69.202  0.00  0.00     0.036 H 
ATOM     51  H32 non d ame     -11.633   6.255  69.822  0.00  0.00     0.036 H 
BRANCH  49  52
ATOM     52  C22 non d ame     -11.014   6.592  67.815  0.00  0.00     0.018 C 
ATOM     53  H33 non d ame     -12.048   6.296  67.637  0.00  0.00     0.048 H 
ATOM     54  H34 non d ame     -10.730   7.642  67.746  0.00  0.00     0.048 H 
BRANCH  52  55
ATOM     55  C23 non d ame     -10.166   5.847  66.746  0.00  0.00     0.259 C 
ATOM     56  O7  non d ame     -10.496   4.774  66.356  0.00  0.00    -0.265 OA
BRANCH  55  57
ATOM     57  O8  non d ame      -8.982   6.457  66.247  0.00  0.00    -0.317 OA
BRANCH  57  58
ATOM     58  C29 non d ame      -7.788   5.718  66.521  0.00  0.00     0.052 C 
ATOM     59  H47 non d ame      -7.427   6.087  67.481  0.00  0.00     0.082 H 
ATOM     60  H48 non d ame      -8.058   4.669  66.407  0.00  0.00     0.082 H 
BRANCH  58  61
ATOM     61  C35 non d ame      -6.743   6.077  65.432  0.00  0.00    -0.034 A 
ATOM     62  C30 non d ame      -6.791   5.458  64.187  0.00  0.00    -0.075 A 
ATOM     63  C31 non d ame      -5.852   5.781  63.209  0.00  0.00    -0.082 A 
ATOM     64  H49 non d ame      -7.566   4.720  63.978  0.00  0.00     0.084 H 
ATOM     65  C32 non d ame      -4.858   6.725  63.481  0.00  0.00    -0.083 A 
ATOM     66  H50 non d ame      -5.896   5.296  62.233  0.00  0.00     0.083 H 
ATOM     67  C33 non d ame      -4.811   7.338  64.726  0.00  0.00    -0.082 A 
ATOM     68  H51 non d ame      -4.121   6.984  62.721  0.00  0.00     0.083 H 
ATOM     69  C34 non d ame      -5.749   7.020  65.705  0.00  0.00    -0.075 A 
ATOM     70  H52 non d ame      -4.033   8.073  64.934  0.00  0.00     0.083 H 
ATOM     71  H53 non d ame      -5.706   7.507  66.680  0.00  0.00     0.084 H 
ENDBRANCH  58  61
ENDBRANCH  57  58
ENDBRANCH  55  57
ENDBRANCH  52  55
ENDBRANCH  49  52
ENDBRANCH  47  49
BRANCH  47  72
ATOM     72  C24 non d ame     -10.383   7.701  71.192  0.00  0.00    -0.039 C 
ATOM     73  H35 non d ame     -10.382   6.904  71.936  0.00  0.00     0.036 H 
ATOM     74  H36 non d ame      -9.842   8.628  71.387  0.00  0.00     0.036 H 
BRANCH  72  75
ATOM     75  C25 non d ame     -11.912   8.095  70.922  0.00  0.00    -0.001 C 
ATOM     76  C26 non d ame     -12.087   9.729  70.973  0.00  0.00    -0.035 C 
ATOM     77  C27 non d ame     -13.104  10.032  71.816  0.00  0.00     0.085 C 
ATOM     78  H38 non d ame     -11.219  10.183  71.449  0.00  0.00     0.036 H 
ATOM     79  H39 non d ame     -12.437  10.098  70.010  0.00  0.00     0.036 H 
ATOM     80  N5  non d ame     -13.422   8.777  72.593  0.00  0.00    -0.049 N 
ATOM     81  H40 non d ame     -12.703  10.781  72.499  0.00  0.00     0.075 H 
ATOM     82  H41 non d ame     -13.950  10.277  71.175  0.00  0.00     0.075 H 
ATOM     83  C28 non d ame     -12.694   7.570  71.806  0.00  0.00     0.193 C 
ATOM     84  H42 non d ame     -12.986   8.882  73.497  0.00  0.00     0.280 HD
ATOM     85  H43 non d ame     -14.422   8.646  72.527  0.00  0.00     0.280 HD
ATOM     86  H44 non d ame     -13.270   6.888  71.182  0.00  0.00     0.129 H 
ATOM     87  H37 non d ame     -12.324   7.579  70.054  0.00  0.00     0.046 H 
BRANCH  83  88
ATOM     88  O6  non d ame     -11.984   6.739  72.726  0.00  0.00    -0.369 OA
ATOM     89  H45 non d ame     -11.088   6.604  72.410  0.00  0.00     0.212 HD
ENDBRANCH  83  88
ENDBRANCH  72  75
ENDBRANCH  47  72
ENDBRANCH  45  47
ENDBRANCH   1  43
BRANCH   1  90
ATOM     90  C16 non d ame      -7.737  10.961  68.447  0.00  0.00    -0.035 C 
ATOM     91  H21 non d ame      -8.461  11.454  67.795  0.00  0.00     0.037 H 
ATOM     92  H22 non d ame      -7.997  10.745  69.483  0.00  0.00     0.037 H 
BRANCH  90  93
ATOM     93  C17 non d ame      -6.481  11.888  68.490  0.00  0.00    -0.059 C 
ATOM     94  H23 non d ame      -5.689  11.397  67.925  0.00  0.00     0.038 H 
BRANCH  93  95
ATOM     95  C18 non d ame      -6.748  13.276  67.826  0.00  0.00    -0.073 C 
ATOM     96  H24 non d ame      -6.325  14.064  68.449  0.00  0.00     0.028 H 
ATOM     97  H25 non d ame      -6.284  13.303  66.840  0.00  0.00     0.028 H 
ATOM     98  H26 non d ame      -7.823  13.429  67.725  0.00  0.00     0.028 H 
ENDBRANCH  93  95
BRANCH  93  99
ATOM     99  C19 non d ame      -5.976  12.059  69.925  0.00  0.00    -0.073 C 
ATOM    100  H27 non d ame      -6.368  12.989  70.339  0.00  0.00     0.028 H 
ATOM    101  H28 non d ame      -6.315  11.219  70.531  0.00  0.00     0.028 H 
ATOM    102  H29 non d ame      -4.886  12.090  69.926  0.00  0.00     0.028 H 
ENDBRANCH  93  99
ENDBRANCH  90  93
ENDBRANCH   1  90
TORSDOF 26
ENDMDL
MODEL 15
REMARK VINA RESULT:      -6.4      3.440      8.652
REMARK  26 active torsions:
REMARK  status: ('A' for Active; 'I' for Inactive)
REMARK    1  A    between atoms: C2_2  and  C3_3 
REMARK    2  A    between atoms: C4_6  and  C5_7 
REMARK       I    between atoms: C5_7  and  N2_9 
REMARK    3  A    between atoms: N2_9  and  C6_10 
REMARK    4  A    between atoms: C6_10  and  C7_11 
REMARK    5  A    between atoms: C6_10  and  C8_13 
REMARK       I    between atoms: C7_11  and  N3_14 
REMARK    6  A    between atoms: N3_14  and  C9_15 
REMARK    7  A    between atoms: C9_15  and  C10_16 
REMARK    8  A    between atoms: C9_15  and  C11_18 
REMARK       I    between atoms: C10_16  and  N4_21 
REMARK    9  A    between atoms: C11_18  and  C12_19 
REMARK   10  A    between atoms: C11_18  and  C13_20 
REMARK   11  A    between atoms: N4_21  and  C14_22 
REMARK   12  A    between atoms: C14_22  and  C15_23 
REMARK   13  A    between atoms: C14_22  and  C16_25 
REMARK       I    between atoms: C15_23  and  N6_40 
REMARK   14  A    between atoms: C16_25  and  C17_26 
REMARK   15  A    between atoms: C17_26  and  C18_27 
REMARK   16  A    between atoms: C17_26  and  C19_28 
REMARK   17  A    between atoms: C20_29  and  C21_30 
REMARK   18  A    between atoms: C20_29  and  C24_33 
REMARK   19  A    between atoms: C20_29  and  N6_40 
REMARK   20  A    between atoms: C21_30  and  C22_31 
REMARK   21  A    between atoms: C22_31  and  C23_32 
REMARK   22  A    between atoms: C23_32  and  O8_43 
REMARK   23  A    between atoms: C24_33  and  C25_34 
REMARK   24  A    between atoms: C28_38  and  O6_39 
REMARK   25  A    between atoms: C29_42  and  O8_43 
REMARK   26  A    between atoms: C29_42  and  C35_49 
ROOT
ATOM      1  C14 non d ame      -9.026  17.017  66.849  0.00  0.00     0.089 C 
ATOM      2  H20 non d ame      -9.504  17.256  67.800  0.00  0.00     0.087 H 
ENDROOT
BRANCH   1   3
ATOM      3  N4  non d ame      -7.841  16.225  67.141  0.00  0.00    -0.346 N 
ATOM      4  C10 non d ame      -7.057  16.465  68.407  0.00  0.00     0.241 C 
ATOM      5  O4  non d ame      -7.398  17.305  69.174  0.00  0.00    -0.271 OA
ATOM      6  H19 non d ame      -7.565  15.517  66.475  0.00  0.00     0.163 HD
BRANCH   4   7
ATOM      7  C9  non d ame      -5.836  15.633  68.697  0.00  0.00     0.092 C 
ATOM      8  H11 non d ame      -5.663  15.611  69.773  0.00  0.00     0.088 H 
BRANCH   7   9
ATOM      9  N3  non d ame      -6.074  14.250  68.269  0.00  0.00    -0.346 N 
ATOM     10  C7  non d ame      -6.167  13.199  69.251  0.00  0.00     0.240 C 
ATOM     11  O3  non d ame      -6.052  13.445  70.389  0.00  0.00    -0.271 OA
ATOM     12  H10 non d ame      -6.175  14.022  67.290  0.00  0.00     0.163 HD
BRANCH  10  13
ATOM     13  C6  non d ame      -6.418  11.729  68.789  0.00  0.00     0.086 C 
ATOM     14  H6  non d ame      -5.737  11.018  69.257  0.00  0.00     0.086 H 
BRANCH  13  15
ATOM     15  N2  non d ame      -7.762  11.335  69.179  0.00  0.00    -0.343 N 
ATOM     16  C5  non d ame      -8.025   9.947  69.565  0.00  0.00     0.273 C 
ATOM     17  O2  non d ame      -7.149   9.154  69.555  0.00  0.00    -0.266 OA
ATOM     18  H5  non d ame      -8.506  12.019  69.182  0.00  0.00     0.163 HD
BRANCH  16  19
ATOM     19  C4  non d ame      -9.441   9.518  69.980  0.00  0.00     0.154 A 
ATOM     20  C1  non d ame      -9.884   9.153  71.291  0.00  0.00    -0.017 A 
ATOM     21  C2  non d ame     -11.255   8.847  71.139  0.00  0.00     0.077 A 
ATOM     22  H1  non d ame      -9.301   9.117  72.212  0.00  0.00     0.091 H 
ATOM     23  O1  non d ame     -11.554   9.021  69.885  0.00  0.00    -0.218 OA
ATOM     24  N1  non d ame     -10.511   9.413  69.188  0.00  0.00    -0.123 NA
BRANCH  21  25
ATOM     25  C3  non d ame     -12.206   8.399  72.240  0.00  0.00    -0.029 C 
ATOM     26  H2  non d ame     -13.169   8.133  71.804  0.00  0.00     0.036 H 
ATOM     27  H3  non d ame     -11.788   7.533  72.751  0.00  0.00     0.036 H 
ATOM     28  H4  non d ame     -12.343   9.211  72.955  0.00  0.00     0.036 H 
ENDBRANCH  21  25
ENDBRANCH  16  19
ENDBRANCH  13  15
BRANCH  13  29
ATOM     29  C8  non d ame      -6.267  11.636  67.292  0.00  0.00    -0.049 C 
ATOM     30  H7  non d ame      -6.022  10.611  67.015  0.00  0.00     0.030 H 
ATOM     31  H8  non d ame      -7.200  11.929  66.813  0.00  0.00     0.030 H 
ATOM     32  H9  non d ame      -5.466  12.301  66.967  0.00  0.00     0.030 H 
ENDBRANCH  13  29
ENDBRANCH  10  13
ENDBRANCH   7   9
BRANCH   7  33
ATOM     33  C11 non d ame      -4.618  16.211  67.919  0.00  0.00    -0.033 C 
ATOM     34  H12 non d ame      -4.523  15.649  66.991  0.00  0.00     0.042 H 
BRANCH  33  35
ATOM     35  C12 non d ame      -4.843  17.708  67.540  0.00  0.00    -0.071 C 
ATOM     36  H13 non d ame      -5.326  17.767  66.565  0.00  0.00     0.028 H 
ATOM     37  H14 non d ame      -5.478  18.180  68.289  0.00  0.00     0.028 H 
ATOM     38  H15 non d ame      -3.883  18.220  67.502  0.00  0.00     0.028 H 
ENDBRANCH  33  35
BRANCH  33  39
ATOM     39  C13 non d ame      -3.296  16.027  68.733  0.00  0.00    -0.071 C 
ATOM     40  H16 non d ame      -2.699  15.235  68.282  0.00  0.00     0.028 H 
ATOM     41  H17 non d ame      -2.730  16.959  68.723  0.00  0.00     0.028 H 
ATOM     42  H18 non d ame      -3.537  15.759  69.762  0.00  0.00     0.028 H 
ENDBRANCH  33  39
ENDBRANCH   7  33
ENDBRANCH   4   7
ENDBRANCH   1   3
BRANCH   1  43
ATOM     43  C15 non d ame      -9.955  16.191  65.915  0.00  0.00     0.240 C 
ATOM     44  O5  non d ame     -10.598  16.743  65.081  0.00  0.00    -0.271 OA
ATOM     45  N6  non d ame     -10.036  14.709  66.053  0.00  0.00    -0.355 N 
ATOM     46  H46 non d ame      -9.491  14.229  66.754  0.00  0.00     0.162 HD
BRANCH  45  47
ATOM     47  C20 non d ame     -10.923  13.937  65.156  0.00  0.00     0.013 C 
ATOM     48  H30 non d ame     -11.408  14.639  64.478  0.00  0.00     0.072 H 
BRANCH  47  49
ATOM     49  C21 non d ame     -11.964  13.215  65.982  0.00  0.00    -0.038 C 
ATOM     50  H31 non d ame     -12.897  13.308  65.427  0.00  0.00     0.036 H 
ATOM     51  H32 non d ame     -11.546  12.229  66.186  0.00  0.00     0.036 H 
BRANCH  49  52
ATOM     52  C22 non d ame     -12.206  13.880  67.355  0.00  0.00     0.018 C 
ATOM     53  H33 non d ame     -12.225  14.953  67.165  0.00  0.00     0.048 H 
ATOM     54  H34 non d ame     -13.082  13.385  67.773  0.00  0.00     0.048 H 
BRANCH  52  55
ATOM     55  C23 non d ame     -11.056  13.647  68.375  0.00  0.00     0.259 C 
ATOM     56  O7  non d ame     -10.541  12.580  68.470  0.00  0.00    -0.265 OA
BRANCH  55  57
ATOM     57  O8  non d ame     -10.633  14.722  69.205  0.00  0.00    -0.317 OA
BRANCH  57  58
ATOM     58  C29 non d ame     -11.583  15.787  69.306  0.00  0.00     0.052 C 
ATOM     59  H47 non d ame     -11.000  16.706  69.264  0.00  0.00     0.082 H 
ATOM     60  H48 non d ame     -12.335  15.584  68.544  0.00  0.00     0.082 H 
BRANCH  58  61
ATOM     61  C35 non d ame     -12.258  15.696  70.700  0.00  0.00    -0.034 A 
ATOM     62  C30 non d ame     -11.596  16.168  71.828  0.00  0.00    -0.075 A 
ATOM     63  C31 non d ame     -12.204  16.085  73.080  0.00  0.00    -0.082 A 
ATOM     64  H49 non d ame     -10.601  16.603  71.732  0.00  0.00     0.084 H 
ATOM     65  C32 non d ame     -13.477  15.524  73.202  0.00  0.00    -0.083 A 
ATOM     66  H50 non d ame     -11.683  16.459  73.962  0.00  0.00     0.083 H 
ATOM     67  C33 non d ame     -14.134  15.050  72.074  0.00  0.00    -0.082 A 
ATOM     68  H51 non d ame     -13.960  15.457  74.177  0.00  0.00     0.083 H 
ATOM     69  C34 non d ame     -13.531  15.134  70.820  0.00  0.00    -0.075 A 
ATOM     70  H52 non d ame     -15.127  14.612  72.173  0.00  0.00     0.083 H 
ATOM     71  H53 non d ame     -14.053  14.760  69.938  0.00  0.00     0.084 H 
ENDBRANCH  58  61
ENDBRANCH  57  58
ENDBRANCH  55  57
ENDBRANCH  52  55
ENDBRANCH  49  52
ENDBRANCH  47  49
BRANCH  47  72
ATOM     72  C24 non d ame     -10.101  12.919  64.368  0.00  0.00    -0.039 C 
ATOM     73  H35 non d ame     -10.347  13.097  63.321  0.00  0.00     0.036 H 
ATOM     74  H36 non d ame      -9.075  13.043  64.715  0.00  0.00     0.036 H 
BRANCH  72  75
ATOM     75  C25 non d ame     -10.536  11.415  64.706  0.00  0.00    -0.001 C 
ATOM     76  C26 non d ame      -9.541  10.790  65.857  0.00  0.00    -0.035 C 
ATOM     77  C27 non d ame      -9.071   9.595  65.425  0.00  0.00     0.085 C 
ATOM     78  H38 non d ame      -8.643  11.400  65.946  0.00  0.00     0.036 H 
ATOM     79  H39 non d ame     -10.114  10.532  66.747  0.00  0.00     0.036 H 
ATOM     80  N5  non d ame      -9.393   9.501  63.952  0.00  0.00    -0.049 N 
ATOM     81  H40 non d ame      -7.989   9.646  65.549  0.00  0.00     0.075 H 
ATOM     82  H41 non d ame      -9.648   8.844  65.963  0.00  0.00     0.075 H 
ATOM     83  C28 non d ame     -10.475  10.663  63.659  0.00  0.00     0.193 C 
ATOM     84  H42 non d ame      -8.541   9.722  63.459  0.00  0.00     0.280 HD
ATOM     85  H43 non d ame      -9.839   8.605  63.814  0.00  0.00     0.280 HD
ATOM     86  H44 non d ame     -11.529  10.419  63.528  0.00  0.00     0.129 H 
ATOM     87  H37 non d ame     -11.609  11.324  64.877  0.00  0.00     0.046 H 
BRANCH  83  88
ATOM     88  O6  non d ame     -10.106  11.397  62.490  0.00  0.00    -0.369 OA
ATOM     89  H45 non d ame     -10.115  10.812  61.729  0.00  0.00     0.212 HD
ENDBRANCH  83  88
ENDBRANCH  72  75
ENDBRANCH  47  72
ENDBRANCH  45  47
ENDBRANCH   1  43
BRANCH   1  90
ATOM     90  C16 non d ame      -8.605  18.299  66.149  0.00  0.00    -0.035 C 
ATOM     91  H21 non d ame      -7.515  18.304  66.187  0.00  0.00     0.037 H 
ATOM     92  H22 non d ame      -9.115  18.283  65.186  0.00  0.00     0.037 H 
BRANCH  90  93
ATOM     93  C17 non d ame      -9.078  19.597  66.878  0.00  0.00    -0.059 C 
ATOM     94  H23 non d ame      -9.580  20.225  66.142  0.00  0.00     0.038 H 
BRANCH  93  95
ATOM     95  C18 non d ame     -10.099  19.292  68.020  0.00  0.00    -0.073 C 
ATOM     96  H24 non d ame      -9.987  18.257  68.341  0.00  0.00     0.028 H 
ATOM     97  H25 non d ame      -9.910  19.957  68.863  0.00  0.00     0.028 H 
ATOM     98  H26 non d ame     -11.113  19.451  67.652  0.00  0.00     0.028 H 
ENDBRANCH  93  95
BRANCH  93  99
ATOM     99  C19 non d ame      -7.883  20.391  67.413  0.00  0.00    -0.073 C 
ATOM    100  H27 non d ame      -7.907  20.392  68.503  0.00  0.00     0.028 H 
ATOM    101  H28 non d ame      -6.958  19.928  67.069  0.00  0.00     0.028 H 
ATOM    102  H29 non d ame      -7.934  21.416  67.046  0.00  0.00     0.028 H 
ENDBRANCH  93  99
ENDBRANCH  90  93
ENDBRANCH   1  90
TORSDOF 26
ENDMDL
MODEL 16
REMARK VINA RESULT:      -6.4      3.711      8.334
REMARK  26 active torsions:
REMARK  status: ('A' for Active; 'I' for Inactive)
REMARK    1  A    between atoms: C2_2  and  C3_3 
REMARK    2  A    between atoms: C4_6  and  C5_7 
REMARK       I    between atoms: C5_7  and  N2_9 
REMARK    3  A    between atoms: N2_9  and  C6_10 
REMARK    4  A    between atoms: C6_10  and  C7_11 
REMARK    5  A    between atoms: C6_10  and  C8_13 
REMARK       I    between atoms: C7_11  and  N3_14 
REMARK    6  A    between atoms: N3_14  and  C9_15 
REMARK    7  A    between atoms: C9_15  and  C10_16 
REMARK    8  A    between atoms: C9_15  and  C11_18 
REMARK       I    between atoms: C10_16  and  N4_21 
REMARK    9  A    between atoms: C11_18  and  C12_19 
REMARK   10  A    between atoms: C11_18  and  C13_20 
REMARK   11  A    between atoms: N4_21  and  C14_22 
REMARK   12  A    between atoms: C14_22  and  C15_23 
REMARK   13  A    between atoms: C14_22  and  C16_25 
REMARK       I    between atoms: C15_23  and  N6_40 
REMARK   14  A    between atoms: C16_25  and  C17_26 
REMARK   15  A    between atoms: C17_26  and  C18_27 
REMARK   16  A    between atoms: C17_26  and  C19_28 
REMARK   17  A    between atoms: C20_29  and  C21_30 
REMARK   18  A    between atoms: C20_29  and  C24_33 
REMARK   19  A    between atoms: C20_29  and  N6_40 
REMARK   20  A    between atoms: C21_30  and  C22_31 
REMARK   21  A    between atoms: C22_31  and  C23_32 
REMARK   22  A    between atoms: C23_32  and  O8_43 
REMARK   23  A    between atoms: C24_33  and  C25_34 
REMARK   24  A    between atoms: C28_38  and  O6_39 
REMARK   25  A    between atoms: C29_42  and  O8_43 
REMARK   26  A    between atoms: C29_42  and  C35_49 
ROOT
ATOM      1  C14 non d ame      -7.043  10.019  63.154  0.00  0.00     0.089 C 
ATOM      2  H20 non d ame      -6.586  10.821  62.573  0.00  0.00     0.087 H 
ENDROOT
BRANCH   1   3
ATOM      3  N4  non d ame      -6.378   9.981  64.447  0.00  0.00    -0.346 N 
ATOM      4  C10 non d ame      -5.041  10.655  64.637  0.00  0.00     0.241 C 
ATOM      5  O4  non d ame      -4.521  11.220  63.732  0.00  0.00    -0.271 OA
ATOM      6  H19 non d ame      -6.836   9.494  65.204  0.00  0.00     0.163 HD
BRANCH   4   7
ATOM      7  C9  non d ame      -4.369  10.611  65.983  0.00  0.00     0.092 C 
ATOM      8  H11 non d ame      -3.396  11.099  65.916  0.00  0.00     0.088 H 
BRANCH   7   9
ATOM      9  N3  non d ame      -5.166  11.368  66.954  0.00  0.00    -0.346 N 
ATOM     10  C7  non d ame      -4.729  12.673  67.382  0.00  0.00     0.240 C 
ATOM     11  O3  non d ame      -3.739  13.131  66.958  0.00  0.00    -0.271 OA
ATOM     12  H10 non d ame      -6.023  10.987  67.329  0.00  0.00     0.163 HD
BRANCH  10  13
ATOM     13  C6  non d ame      -5.581  13.473  68.417  0.00  0.00     0.086 C 
ATOM     14  H6  non d ame      -5.001  13.793  69.283  0.00  0.00     0.086 H 
BRANCH  13  15
ATOM     15  N2  non d ame      -6.081  14.682  67.782  0.00  0.00    -0.343 N 
ATOM     16  C5  non d ame      -5.458  15.971  68.093  0.00  0.00     0.273 C 
ATOM     17  O2  non d ame      -4.559  16.025  68.857  0.00  0.00    -0.266 OA
ATOM     18  H5  non d ame      -6.852  14.627  67.133  0.00  0.00     0.163 HD
BRANCH  16  19
ATOM     19  C4  non d ame      -5.976  17.256  67.429  0.00  0.00     0.154 A 
ATOM     20  C1  non d ame      -5.973  18.577  67.980  0.00  0.00    -0.017 A 
ATOM     21  C2  non d ame      -6.551  19.389  66.980  0.00  0.00     0.077 A 
ATOM     22  H1  non d ame      -5.606  18.896  68.956  0.00  0.00     0.091 H 
ATOM     23  O1  non d ame      -6.846  18.617  65.976  0.00  0.00    -0.218 OA
ATOM     24  N1  non d ame      -6.520  17.367  66.214  0.00  0.00    -0.123 NA
BRANCH  21  25
ATOM     25  C3  non d ame      -6.783  20.892  67.062  0.00  0.00    -0.029 C 
ATOM     26  H2  non d ame      -5.927  21.416  66.638  0.00  0.00     0.036 H 
ATOM     27  H3  non d ame      -7.681  21.153  66.504  0.00  0.00     0.036 H 
ATOM     28  H4  non d ame      -6.907  21.184  68.106  0.00  0.00     0.036 H 
ENDBRANCH  21  25
ENDBRANCH  16  19
ENDBRANCH  13  15
BRANCH  13  29
ATOM     29  C8  non d ame      -6.733  12.624  68.888  0.00  0.00    -0.049 C 
ATOM     30  H7  non d ame      -6.779  11.712  68.292  0.00  0.00     0.030 H 
ATOM     31  H8  non d ame      -6.590  12.365  69.937  0.00  0.00     0.030 H 
ATOM     32  H9  non d ame      -7.664  13.179  68.774  0.00  0.00     0.030 H 
ENDBRANCH  13  29
ENDBRANCH  10  13
ENDBRANCH   7   9
BRANCH   7  33
ATOM     33  C11 non d ame      -4.250   9.132  66.455  0.00  0.00    -0.033 C 
ATOM     34  H12 non d ame      -4.621   8.499  65.650  0.00  0.00     0.042 H 
BRANCH  33  35
ATOM     35  C12 non d ame      -2.763   8.736  66.717  0.00  0.00    -0.071 C 
ATOM     36  H13 non d ame      -2.223   8.707  65.770  0.00  0.00     0.028 H 
ATOM     37  H14 non d ame      -2.303   9.471  67.376  0.00  0.00     0.028 H 
ATOM     38  H15 non d ame      -2.728   7.753  67.185  0.00  0.00     0.028 H 
ENDBRANCH  33  35
BRANCH  33  39
ATOM     39  C13 non d ame      -5.134   8.875  67.718  0.00  0.00    -0.071 C 
ATOM     40  H16 non d ame      -5.653   9.793  67.991  0.00  0.00     0.028 H 
ATOM     41  H17 non d ame      -5.866   8.097  67.497  0.00  0.00     0.028 H 
ATOM     42  H18 non d ame      -4.502   8.554  68.545  0.00  0.00     0.028 H 
ENDBRANCH  33  39
ENDBRANCH   7  33
ENDBRANCH   4   7
ENDBRANCH   1   3
BRANCH   1  43
ATOM     43  C15 non d ame      -8.563  10.255  63.387  0.00  0.00     0.240 C 
ATOM     44  O5  non d ame      -9.359   9.562  62.842  0.00  0.00    -0.271 OA
ATOM     45  N6  non d ame      -9.025  11.342  64.297  0.00  0.00    -0.355 N 
ATOM     46  H46 non d ame      -8.358  11.934  64.769  0.00  0.00     0.162 HD
BRANCH  45  47
ATOM     47  C20 non d ame     -10.473  11.553  64.509  0.00  0.00     0.013 C 
ATOM     48  H30 non d ame     -11.009  10.763  63.982  0.00  0.00     0.072 H 
BRANCH  47  49
ATOM     49  C21 non d ame     -10.869  12.903  63.955  0.00  0.00    -0.038 C 
ATOM     50  H31 non d ame      -9.939  13.373  63.635  0.00  0.00     0.036 H 
ATOM     51  H32 non d ame     -11.657  12.703  63.228  0.00  0.00     0.036 H 
BRANCH  49  52
ATOM     52  C22 non d ame     -11.484  13.833  65.023  0.00  0.00     0.018 C 
ATOM     53  H33 non d ame     -12.499  13.468  65.183  0.00  0.00     0.048 H 
ATOM     54  H34 non d ame     -10.773  13.844  65.849  0.00  0.00     0.048 H 
BRANCH  52  55
ATOM     55  C23 non d ame     -11.628  15.310  64.561  0.00  0.00     0.259 C 
ATOM     56  O7  non d ame     -12.588  15.661  63.955  0.00  0.00    -0.265 OA
BRANCH  55  57
ATOM     57  O8  non d ame     -10.591  16.237  64.858  0.00  0.00    -0.317 OA
BRANCH  57  58
ATOM     58  C29 non d ame     -10.039  16.091  66.170  0.00  0.00     0.052 C 
ATOM     59  H47 non d ame     -10.722  15.433  66.706  0.00  0.00     0.082 H 
ATOM     60  H48 non d ame      -9.001  15.795  66.021  0.00  0.00     0.082 H 
BRANCH  58  61
ATOM     61  C35 non d ame     -10.059  17.484  66.855  0.00  0.00    -0.034 A 
ATOM     62  C30 non d ame      -9.691  17.610  68.190  0.00  0.00    -0.075 A 
ATOM     63  C31 non d ame      -9.709  18.861  68.805  0.00  0.00    -0.082 A 
ATOM     64  H49 non d ame      -9.387  16.728  68.755  0.00  0.00     0.084 H 
ATOM     65  C32 non d ame     -10.101  19.989  68.079  0.00  0.00    -0.083 A 
ATOM     66  H50 non d ame      -9.417  18.957  69.851  0.00  0.00     0.083 H 
ATOM     67  C33 non d ame     -10.471  19.858  66.747  0.00  0.00    -0.082 A 
ATOM     68  H51 non d ame     -10.117  20.971  68.552  0.00  0.00     0.083 H 
ATOM     69  C34 non d ame     -10.452  18.610  66.129  0.00  0.00    -0.075 A 
ATOM     70  H52 non d ame     -10.778  20.741  66.184  0.00  0.00     0.083 H 
ATOM     71  H53 non d ame     -10.743  18.516  65.081  0.00  0.00     0.084 H 
ENDBRANCH  58  61
ENDBRANCH  57  58
ENDBRANCH  55  57
ENDBRANCH  52  55
ENDBRANCH  49  52
ENDBRANCH  47  49
BRANCH  47  72
ATOM     72  C24 non d ame     -10.789  11.503  66.003  0.00  0.00    -0.039 C 
ATOM     73  H35 non d ame     -10.557  12.498  66.382  0.00  0.00     0.036 H 
ATOM     74  H36 non d ame     -11.807  11.118  66.072  0.00  0.00     0.036 H 
BRANCH  72  75
ATOM     75  C25 non d ame      -9.840  10.470  66.776  0.00  0.00    -0.001 C 
ATOM     76  C26 non d ame     -10.353   8.930  66.509  0.00  0.00    -0.035 C 
ATOM     77  C27 non d ame     -10.485   8.302  67.701  0.00  0.00     0.085 C 
ATOM     78  H38 non d ame     -11.368   8.938  66.112  0.00  0.00     0.036 H 
ATOM     79  H39 non d ame      -9.575   8.359  66.004  0.00  0.00     0.036 H 
ATOM     80  N5  non d ame     -10.424   9.366  68.771  0.00  0.00    -0.049 N 
ATOM     81  H40 non d ame     -11.484   7.864  67.692  0.00  0.00     0.075 H 
ATOM     82  H41 non d ame      -9.609   7.660  67.790  0.00  0.00     0.075 H 
ATOM     83  C28 non d ame      -9.846  10.689  68.048  0.00  0.00     0.193 C 
ATOM     84  H42 non d ame     -11.377   9.544  69.052  0.00  0.00     0.280 HD
ATOM     85  H43 non d ame      -9.747   9.051  69.451  0.00  0.00     0.280 HD
ATOM     86  H44 non d ame      -8.812  10.998  68.201  0.00  0.00     0.129 H 
ATOM     87  H37 non d ame      -8.782  10.676  66.607  0.00  0.00     0.046 H 
BRANCH  83  88
ATOM     88  O6  non d ame     -10.639  11.827  68.394  0.00  0.00    -0.369 OA
ATOM     89  H45 non d ame     -11.323  11.563  69.014  0.00  0.00     0.212 HD
ENDBRANCH  83  88
ENDBRANCH  72  75
ENDBRANCH  47  72
ENDBRANCH  45  47
ENDBRANCH   1  43
BRANCH   1  90
ATOM     90  C16 non d ame      -6.834   8.689  62.449  0.00  0.00    -0.035 C 
ATOM     91  H21 non d ame      -7.788   8.463  61.969  0.00  0.00     0.037 H 
ATOM     92  H22 non d ame      -5.938   8.821  61.843  0.00  0.00     0.037 H 
BRANCH  90  93
ATOM     93  C17 non d ame      -6.539   7.504  63.422  0.00  0.00    -0.059 C 
ATOM     94  H23 non d ame      -6.590   7.891  64.439  0.00  0.00     0.038 H 
BRANCH  93  95
ATOM     95  C18 non d ame      -7.595   6.359  63.294  0.00  0.00    -0.073 C 
ATOM     96  H24 non d ame      -8.177   6.299  64.213  0.00  0.00     0.028 H 
ATOM     97  H25 non d ame      -8.258   6.570  62.456  0.00  0.00     0.028 H 
ATOM     98  H26 non d ame      -7.083   5.411  63.124  0.00  0.00     0.028 H 
ENDBRANCH  93  95
BRANCH  93  99
ATOM     99  C19 non d ame      -5.122   6.963  63.213  0.00  0.00    -0.073 C 
ATOM    100  H27 non d ame      -4.401   7.771  63.350  0.00  0.00     0.028 H 
ATOM    101  H28 non d ame      -4.925   6.172  63.936  0.00  0.00     0.028 H 
ATOM    102  H29 non d ame      -5.031   6.562  62.203  0.00  0.00     0.028 H 
ENDBRANCH  93  99
ENDBRANCH  90  93
ENDBRANCH   1  90
TORSDOF 26
ENDMDL
MODEL 17
REMARK VINA RESULT:      -6.4      2.408      5.238
REMARK  26 active torsions:
REMARK  status: ('A' for Active; 'I' for Inactive)
REMARK    1  A    between atoms: C2_2  and  C3_3 
REMARK    2  A    between atoms: C4_6  and  C5_7 
REMARK       I    between atoms: C5_7  and  N2_9 
REMARK    3  A    between atoms: N2_9  and  C6_10 
REMARK    4  A    between atoms: C6_10  and  C7_11 
REMARK    5  A    between atoms: C6_10  and  C8_13 
REMARK       I    between atoms: C7_11  and  N3_14 
REMARK    6  A    between atoms: N3_14  and  C9_15 
REMARK    7  A    between atoms: C9_15  and  C10_16 
REMARK    8  A    between atoms: C9_15  and  C11_18 
REMARK       I    between atoms: C10_16  and  N4_21 
REMARK    9  A    between atoms: C11_18  and  C12_19 
REMARK   10  A    between atoms: C11_18  and  C13_20 
REMARK   11  A    between atoms: N4_21  and  C14_22 
REMARK   12  A    between atoms: C14_22  and  C15_23 
REMARK   13  A    between atoms: C14_22  and  C16_25 
REMARK       I    between atoms: C15_23  and  N6_40 
REMARK   14  A    between atoms: C16_25  and  C17_26 
REMARK   15  A    between atoms: C17_26  and  C18_27 
REMARK   16  A    between atoms: C17_26  and  C19_28 
REMARK   17  A    between atoms: C20_29  and  C21_30 
REMARK   18  A    between atoms: C20_29  and  C24_33 
REMARK   19  A    between atoms: C20_29  and  N6_40 
REMARK   20  A    between atoms: C21_30  and  C22_31 
REMARK   21  A    between atoms: C22_31  and  C23_32 
REMARK   22  A    between atoms: C23_32  and  O8_43 
REMARK   23  A    between atoms: C24_33  and  C25_34 
REMARK   24  A    between atoms: C28_38  and  O6_39 
REMARK   25  A    between atoms: C29_42  and  O8_43 
REMARK   26  A    between atoms: C29_42  and  C35_49 
ROOT
ATOM      1  C14 non d ame     -10.851   9.336  69.303  0.00  0.00     0.089 C 
ATOM      2  H20 non d ame     -11.515   8.499  69.083  0.00  0.00     0.087 H 
ENDROOT
BRANCH   1   3
ATOM      3  N4  non d ame      -9.748   9.280  68.356  0.00  0.00    -0.346 N 
ATOM      4  C10 non d ame      -9.829   8.385  67.144  0.00  0.00     0.241 C 
ATOM      5  O4  non d ame     -10.792   7.717  66.954  0.00  0.00    -0.271 OA
ATOM      6  H19 non d ame      -8.936   9.853  68.536  0.00  0.00     0.163 HD
BRANCH   4   7
ATOM      7  C9  non d ame      -8.680   8.342  66.171  0.00  0.00     0.092 C 
ATOM      8  H11 non d ame      -9.047   8.574  65.171  0.00  0.00     0.088 H 
BRANCH   7   9
ATOM      9  N3  non d ame      -7.703   9.378  66.523  0.00  0.00    -0.346 N 
ATOM     10  C7  non d ame      -6.865   9.955  65.502  0.00  0.00     0.240 C 
ATOM     11  O3  non d ame      -6.963   9.600  64.391  0.00  0.00    -0.271 OA
ATOM     12  H10 non d ame      -7.606   9.695  67.478  0.00  0.00     0.163 HD
BRANCH  10  13
ATOM     13  C6  non d ame      -5.825  11.055  65.883  0.00  0.00     0.086 C 
ATOM     14  H6  non d ame      -6.111  12.046  65.532  0.00  0.00     0.086 H 
BRANCH  13  15
ATOM     15  N2  non d ame      -5.737  11.137  67.332  0.00  0.00    -0.343 N 
ATOM     16  C5  non d ame      -5.621  12.447  67.976  0.00  0.00     0.273 C 
ATOM     17  O2  non d ame      -5.597  13.429  67.319  0.00  0.00    -0.266 OA
ATOM     18  H5  non d ame      -5.755  10.292  67.886  0.00  0.00     0.163 HD
BRANCH  16  19
ATOM     19  C4  non d ame      -5.528  12.548  69.506  0.00  0.00     0.154 A 
ATOM     20  C1  non d ame      -5.152  13.694  70.276  0.00  0.00    -0.017 A 
ATOM     21  C2  non d ame      -5.225  13.268  71.621  0.00  0.00     0.077 A 
ATOM     22  H1  non d ame      -4.871  14.683  69.914  0.00  0.00     0.091 H 
ATOM     23  O1  non d ame      -5.601  12.023  71.613  0.00  0.00    -0.218 OA
ATOM     24  N1  non d ame      -5.784  11.580  70.390  0.00  0.00    -0.123 NA
BRANCH  21  25
ATOM     25  C3  non d ame      -4.921  14.113  72.851  0.00  0.00    -0.029 C 
ATOM     26  H2  non d ame      -5.855  14.452  73.300  0.00  0.00     0.036 H 
ATOM     27  H3  non d ame      -4.367  13.516  73.574  0.00  0.00     0.036 H 
ATOM     28  H4  non d ame      -4.323  14.978  72.560  0.00  0.00     0.036 H 
ENDBRANCH  21  25
ENDBRANCH  16  19
ENDBRANCH  13  15
BRANCH  13  29
ATOM     29  C8  non d ame      -4.480  10.701  65.303  0.00  0.00    -0.049 C 
ATOM     30  H7  non d ame      -4.380  11.153  64.316  0.00  0.00     0.030 H 
ATOM     31  H8  non d ame      -3.692  11.075  65.956  0.00  0.00     0.030 H 
ATOM     32  H9  non d ame      -4.396   9.618  65.215  0.00  0.00     0.030 H 
ENDBRANCH  13  29
ENDBRANCH  10  13
ENDBRANCH   7   9
BRANCH   7  33
ATOM     33  C11 non d ame      -7.997   6.945  66.235  0.00  0.00    -0.033 C 
ATOM     34  H12 non d ame      -6.943   7.083  66.000  0.00  0.00     0.042 H 
BRANCH  33  35
ATOM     35  C12 non d ame      -8.083   6.336  67.670  0.00  0.00    -0.071 C 
ATOM     36  H13 non d ame      -8.830   5.542  67.683  0.00  0.00     0.028 H 
ATOM     37  H14 non d ame      -7.113   5.926  67.949  0.00  0.00     0.028 H 
ATOM     38  H15 non d ame      -8.368   7.114  68.377  0.00  0.00     0.028 H 
ENDBRANCH  33  35
BRANCH  33  39
ATOM     39  C13 non d ame      -8.607   5.975  65.172  0.00  0.00    -0.071 C 
ATOM     40  H16 non d ame      -8.525   6.424  64.182  0.00  0.00     0.028 H 
ATOM     41  H17 non d ame      -8.064   5.030  65.189  0.00  0.00     0.028 H 
ATOM     42  H18 non d ame      -9.657   5.795  65.404  0.00  0.00     0.028 H 
ENDBRANCH  33  39
ENDBRANCH   7  33
ENDBRANCH   4   7
ENDBRANCH   1   3
BRANCH   1  43
ATOM     43  C15 non d ame     -11.566  10.708  69.148  0.00  0.00     0.240 C 
ATOM     44  O5  non d ame     -12.041  11.013  68.102  0.00  0.00    -0.271 OA
ATOM     45  N6  non d ame     -11.666  11.641  70.308  0.00  0.00    -0.355 N 
ATOM     46  H46 non d ame     -11.270  11.390  71.202  0.00  0.00     0.162 HD
BRANCH  45  47
ATOM     47  C20 non d ame     -12.350  12.942  70.144  0.00  0.00     0.013 C 
ATOM     48  H30 non d ame     -13.165  12.806  69.434  0.00  0.00     0.072 H 
BRANCH  47  49
ATOM     49  C21 non d ame     -11.367  13.960  69.614  0.00  0.00    -0.038 C 
ATOM     50  H31 non d ame     -11.242  14.692  70.411  0.00  0.00     0.036 H 
ATOM     51  H32 non d ame     -10.509  13.386  69.261  0.00  0.00     0.036 H 
BRANCH  49  52
ATOM     52  C22 non d ame     -11.907  14.734  68.391  0.00  0.00     0.018 C 
ATOM     53  H33 non d ame     -12.046  13.989  67.607  0.00  0.00     0.048 H 
ATOM     54  H34 non d ame     -12.761  15.304  68.757  0.00  0.00     0.048 H 
BRANCH  52  55
ATOM     55  C23 non d ame     -10.908  15.777  67.818  0.00  0.00     0.259 C 
ATOM     56  O7  non d ame     -10.929  16.903  68.197  0.00  0.00    -0.265 OA
BRANCH  55  57
ATOM     57  O8  non d ame      -9.975  15.375  66.823  0.00  0.00    -0.317 OA
BRANCH  57  58
ATOM     58  C29 non d ame     -10.480  15.453  65.486  0.00  0.00     0.052 C 
ATOM     59  H47 non d ame     -11.429  15.983  65.561  0.00  0.00     0.082 H 
ATOM     60  H48 non d ame      -9.669  15.869  64.889  0.00  0.00     0.082 H 
BRANCH  58  61
ATOM     61  C35 non d ame     -10.760  14.008  64.995  0.00  0.00    -0.034 A 
ATOM     62  C30 non d ame     -11.737  13.776  64.032  0.00  0.00    -0.075 A 
ATOM     63  C31 non d ame     -11.988  12.477  63.591  0.00  0.00    -0.082 A 
ATOM     64  H49 non d ame     -12.304  14.611  63.622  0.00  0.00     0.084 H 
ATOM     65  C32 non d ame     -11.260  11.408  64.120  0.00  0.00    -0.083 A 
ATOM     66  H50 non d ame     -12.751  12.299  62.833  0.00  0.00     0.083 H 
ATOM     67  C33 non d ame     -10.290  11.644  65.084  0.00  0.00    -0.082 A 
ATOM     68  H51 non d ame     -11.450  10.390  63.780  0.00  0.00     0.083 H 
ATOM     69  C34 non d ame     -10.034  12.940  65.526  0.00  0.00    -0.075 A 
ATOM     70  H52 non d ame      -9.725  10.806  65.496  0.00  0.00     0.083 H 
ATOM     71  H53 non d ame      -9.268  13.117  66.283  0.00  0.00     0.084 H 
ENDBRANCH  58  61
ENDBRANCH  57  58
ENDBRANCH  55  57
ENDBRANCH  52  55
ENDBRANCH  49  52
ENDBRANCH  47  49
BRANCH  47  72
ATOM     72  C24 non d ame     -12.893  13.411  71.492  0.00  0.00    -0.039 C 
ATOM     73  H35 non d ame     -13.954  13.159  71.481  0.00  0.00     0.036 H 
ATOM     74  H36 non d ame     -12.237  12.967  72.241  0.00  0.00     0.036 H 
BRANCH  72  75
ATOM     75  C25 non d ame     -12.787  15.001  71.654  0.00  0.00    -0.001 C 
ATOM     76  C26 non d ame     -11.808  15.371  72.922  0.00  0.00    -0.035 C 
ATOM     77  C27 non d ame     -12.456  16.241  73.734  0.00  0.00     0.085 C 
ATOM     78  H38 non d ame     -11.665  14.494  73.552  0.00  0.00     0.036 H 
ATOM     79  H39 non d ame     -10.946  15.939  72.576  0.00  0.00     0.036 H 
ATOM     80  N5  non d ame     -13.905  16.245  73.310  0.00  0.00    -0.049 N 
ATOM     81  H40 non d ame     -12.380  15.818  74.736  0.00  0.00     0.075 H 
ATOM     82  H41 non d ame     -12.021  17.217  73.520  0.00  0.00     0.075 H 
ATOM     83  C28 non d ame     -13.947  15.530  71.863  0.00  0.00     0.193 C 
ATOM     84  H42 non d ame     -14.398  15.664  73.971  0.00  0.00     0.280 HD
ATOM     85  H43 non d ame     -14.167  17.214  73.196  0.00  0.00     0.280 HD
ATOM     86  H44 non d ame     -14.063  16.120  70.955  0.00  0.00     0.129 H 
ATOM     87  H37 non d ame     -12.580  15.499  70.706  0.00  0.00     0.046 H 
BRANCH  83  88
ATOM     88  O6  non d ame     -14.995  14.559  71.823  0.00  0.00    -0.369 OA
ATOM     89  H45 non d ame     -15.160  14.305  70.912  0.00  0.00     0.212 HD
ENDBRANCH  83  88
ENDBRANCH  72  75
ENDBRANCH  47  72
ENDBRANCH  45  47
ENDBRANCH   1  43
BRANCH   1  90
ATOM     90  C16 non d ame     -10.302   9.202  70.713  0.00  0.00    -0.035 C 
ATOM     91  H21 non d ame      -9.264   8.889  70.590  0.00  0.00     0.037 H 
ATOM     92  H22 non d ame     -10.530  10.148  71.204  0.00  0.00     0.037 H 
BRANCH  90  93
ATOM     93  C17 non d ame     -11.000   8.088  71.555  0.00  0.00    -0.059 C 
ATOM     94  H23 non d ame     -10.323   7.809  72.362  0.00  0.00     0.038 H 
BRANCH  93  95
ATOM     95  C18 non d ame     -12.332   8.586  72.203  0.00  0.00    -0.073 C 
ATOM     96  H24 non d ame     -12.895   9.168  71.474  0.00  0.00     0.028 H 
ATOM     97  H25 non d ame     -12.926   7.727  72.518  0.00  0.00     0.028 H 
ATOM     98  H26 non d ame     -12.104   9.208  73.069  0.00  0.00     0.028 H 
ENDBRANCH  93  95
BRANCH  93  99
ATOM     99  C19 non d ame     -11.241   6.833  70.711  0.00  0.00    -0.073 C 
ATOM    100  H27 non d ame     -11.600   6.027  71.353  0.00  0.00     0.028 H 
ATOM    101  H28 non d ame     -11.987   7.049  69.946  0.00  0.00     0.028 H 
ATOM    102  H29 non d ame     -10.309   6.531  70.234  0.00  0.00     0.028 H 
ENDBRANCH  93  99
ENDBRANCH  90  93
ENDBRANCH   1  90
TORSDOF 26
ENDMDL
MODEL 18
REMARK VINA RESULT:      -6.4      2.305      9.127
REMARK  26 active torsions:
REMARK  status: ('A' for Active; 'I' for Inactive)
REMARK    1  A    between atoms: C2_2  and  C3_3 
REMARK    2  A    between atoms: C4_6  and  C5_7 
REMARK       I    between atoms: C5_7  and  N2_9 
REMARK    3  A    between atoms: N2_9  and  C6_10 
REMARK    4  A    between atoms: C6_10  and  C7_11 
REMARK    5  A    between atoms: C6_10  and  C8_13 
REMARK       I    between atoms: C7_11  and  N3_14 
REMARK    6  A    between atoms: N3_14  and  C9_15 
REMARK    7  A    between atoms: C9_15  and  C10_16 
REMARK    8  A    between atoms: C9_15  and  C11_18 
REMARK       I    between atoms: C10_16  and  N4_21 
REMARK    9  A    between atoms: C11_18  and  C12_19 
REMARK   10  A    between atoms: C11_18  and  C13_20 
REMARK   11  A    between atoms: N4_21  and  C14_22 
REMARK   12  A    between atoms: C14_22  and  C15_23 
REMARK   13  A    between atoms: C14_22  and  C16_25 
REMARK       I    between atoms: C15_23  and  N6_40 
REMARK   14  A    between atoms: C16_25  and  C17_26 
REMARK   15  A    between atoms: C17_26  and  C18_27 
REMARK   16  A    between atoms: C17_26  and  C19_28 
REMARK   17  A    between atoms: C20_29  and  C21_30 
REMARK   18  A    between atoms: C20_29  and  C24_33 
REMARK   19  A    between atoms: C20_29  and  N6_40 
REMARK   20  A    between atoms: C21_30  and  C22_31 
REMARK   21  A    between atoms: C22_31  and  C23_32 
REMARK   22  A    between atoms: C23_32  and  O8_43 
REMARK   23  A    between atoms: C24_33  and  C25_34 
REMARK   24  A    between atoms: C28_38  and  O6_39 
REMARK   25  A    between atoms: C29_42  and  O8_43 
REMARK   26  A    between atoms: C29_42  and  C35_49 
ROOT
ATOM      1  C14 non d ame      -7.071   9.347  66.357  0.00  0.00     0.089 C 
ATOM      2  H20 non d ame      -7.317   8.445  65.795  0.00  0.00     0.087 H 
ENDROOT
BRANCH   1   3
ATOM      3  N4  non d ame      -8.128  10.317  66.115  0.00  0.00    -0.346 N 
ATOM      4  C10 non d ame      -9.482   9.862  65.629  0.00  0.00     0.241 C 
ATOM      5  O4  non d ame      -9.695   8.710  65.438  0.00  0.00    -0.271 OA
ATOM      6  H19 non d ame      -7.926  11.293  66.281  0.00  0.00     0.163 HD
BRANCH   4   7
ATOM      7  C9  non d ame     -10.567  10.879  65.387  0.00  0.00     0.092 C 
ATOM      8  H11 non d ame     -11.484  10.548  65.875  0.00  0.00     0.088 H 
BRANCH   7   9
ATOM      9  N3  non d ame     -10.187  12.155  66.002  0.00  0.00    -0.346 N 
ATOM     10  C7  non d ame     -11.115  12.846  66.861  0.00  0.00     0.240 C 
ATOM     11  O3  non d ame     -12.173  12.391  67.069  0.00  0.00    -0.271 OA
ATOM     12  H10 non d ame      -9.277  12.561  65.831  0.00  0.00     0.163 HD
BRANCH  10  13
ATOM     13  C6  non d ame     -10.705  14.205  67.510  0.00  0.00     0.086 C 
ATOM     14  H6  non d ame     -11.125  15.065  66.988  0.00  0.00     0.086 H 
BRANCH  13  15
ATOM     15  N2  non d ame     -11.219  14.253  68.869  0.00  0.00    -0.343 N 
ATOM     16  C5  non d ame     -11.872  15.472  69.352  0.00  0.00     0.273 C 
ATOM     17  O2  non d ame     -11.976  16.409  68.640  0.00  0.00    -0.266 OA
ATOM     18  H5  non d ame     -11.124  13.447  69.471  0.00  0.00     0.163 HD
BRANCH  16  19
ATOM     19  C4  non d ame     -12.421  15.535  70.785  0.00  0.00     0.154 A 
ATOM     20  C1  non d ame     -11.666  15.653  71.996  0.00  0.00    -0.017 A 
ATOM     21  C2  non d ame     -12.632  15.669  73.026  0.00  0.00     0.077 A 
ATOM     22  H1  non d ame     -10.584  15.717  72.109  0.00  0.00     0.091 H 
ATOM     23  O1  non d ame     -13.801  15.573  72.463  0.00  0.00    -0.218 OA
ATOM     24  N1  non d ame     -13.703  15.494  71.156  0.00  0.00    -0.123 NA
BRANCH  21  25
ATOM     25  C3  non d ame     -12.355  15.780  74.520  0.00  0.00    -0.029 C 
ATOM     26  H2  non d ame     -11.748  14.933  74.841  0.00  0.00     0.036 H 
ATOM     27  H3  non d ame     -11.821  16.707  74.722  0.00  0.00     0.036 H 
ATOM     28  H4  non d ame     -13.300  15.778  75.066  0.00  0.00     0.036 H 
ENDBRANCH  21  25
ENDBRANCH  16  19
ENDBRANCH  13  15
BRANCH  13  29
ATOM     29  C8  non d ame      -9.203  14.327  67.521  0.00  0.00    -0.049 C 
ATOM     30  H7  non d ame      -8.766  13.478  66.995  0.00  0.00     0.030 H 
ATOM     31  H8  non d ame      -8.909  15.252  67.026  0.00  0.00     0.030 H 
ATOM     32  H9  non d ame      -8.848  14.337  68.552  0.00  0.00     0.030 H 
ENDBRANCH  13  29
ENDBRANCH  10  13
ENDBRANCH   7   9
BRANCH   7  33
ATOM     33  C11 non d ame     -10.758  11.080  63.856  0.00  0.00    -0.033 C 
ATOM     34  H12 non d ame     -11.093  10.131  63.439  0.00  0.00     0.042 H 
BRANCH  33  35
ATOM     35  C12 non d ame     -11.861  12.142  63.555  0.00  0.00    -0.071 C 
ATOM     36  H13 non d ame     -11.408  13.132  63.502  0.00  0.00     0.028 H 
ATOM     37  H14 non d ame     -12.339  11.909  62.604  0.00  0.00     0.028 H 
ATOM     38  H15 non d ame     -12.606  12.125  64.350  0.00  0.00     0.028 H 
ENDBRANCH  33  35
BRANCH  33  39
ATOM     39  C13 non d ame      -9.406  11.459  63.169  0.00  0.00    -0.071 C 
ATOM     40  H16 non d ame      -8.937  10.561  62.769  0.00  0.00     0.028 H 
ATOM     41  H17 non d ame      -9.596  12.162  62.357  0.00  0.00     0.028 H 
ATOM     42  H18 non d ame      -8.743  11.921  63.901  0.00  0.00     0.028 H 
ENDBRANCH  33  39
ENDBRANCH   7  33
ENDBRANCH   4   7
ENDBRANCH   1   3
BRANCH   1  43
ATOM     43  C15 non d ame      -6.986   9.081  67.887  0.00  0.00     0.240 C 
ATOM     44  O5  non d ame      -6.353   9.809  68.580  0.00  0.00    -0.271 OA
ATOM     45  N6  non d ame      -7.704   7.921  68.491  0.00  0.00    -0.355 N 
ATOM     46  H46 non d ame      -8.248   7.298  67.913  0.00  0.00     0.162 HD
BRANCH  45  47
ATOM     47  C20 non d ame      -7.614   7.682  69.947  0.00  0.00     0.013 C 
ATOM     48  H30 non d ame      -6.641   8.037  70.287  0.00  0.00     0.072 H 
BRANCH  47  49
ATOM     49  C21 non d ame      -7.747   6.201  70.220  0.00  0.00    -0.038 C 
ATOM     50  H31 non d ame      -6.993   5.971  70.972  0.00  0.00     0.036 H 
ATOM     51  H32 non d ame      -8.802   6.035  70.438  0.00  0.00     0.036 H 
BRANCH  49  52
ATOM     52  C22 non d ame      -7.413   5.332  68.988  0.00  0.00     0.018 C 
ATOM     53  H33 non d ame      -6.902   5.995  68.289  0.00  0.00     0.048 H 
ATOM     54  H34 non d ame      -6.901   4.453  69.376  0.00  0.00     0.048 H 
BRANCH  52  55
ATOM     55  C23 non d ame      -8.666   4.802  68.236  0.00  0.00     0.259 C 
ATOM     56  O7  non d ame      -9.283   3.883  68.667  0.00  0.00    -0.265 OA
BRANCH  55  57
ATOM     57  O8  non d ame      -9.061   5.420  67.018  0.00  0.00    -0.317 OA
BRANCH  57  58
ATOM     58  C29 non d ame     -10.087   4.714  66.313  0.00  0.00     0.052 C 
ATOM     59  H47 non d ame     -10.067   3.698  66.705  0.00  0.00     0.082 H 
ATOM     60  H48 non d ame     -10.986   5.321  66.418  0.00  0.00     0.082 H 
BRANCH  58  61
ATOM     61  C35 non d ame      -9.695   4.672  64.813  0.00  0.00    -0.034 A 
ATOM     62  C30 non d ame     -10.432   3.900  63.921  0.00  0.00    -0.075 A 
ATOM     63  C31 non d ame     -10.079   3.862  62.572  0.00  0.00    -0.082 A 
ATOM     64  H49 non d ame     -11.286   3.325  64.278  0.00  0.00     0.084 H 
ATOM     65  C32 non d ame      -8.981   4.597  62.118  0.00  0.00    -0.083 A 
ATOM     66  H50 non d ame     -10.661   3.258  61.876  0.00  0.00     0.083 H 
ATOM     67  C33 non d ame      -8.246   5.364  63.012  0.00  0.00    -0.082 A 
ATOM     68  H51 non d ame      -8.699   4.574  61.065  0.00  0.00     0.083 H 
ATOM     69  C34 non d ame      -8.597   5.406  64.360  0.00  0.00    -0.075 A 
ATOM     70  H52 non d ame      -7.389   5.935  62.654  0.00  0.00     0.083 H 
ATOM     71  H53 non d ame      -8.015   6.012  65.056  0.00  0.00     0.084 H 
ENDBRANCH  58  61
ENDBRANCH  57  58
ENDBRANCH  55  57
ENDBRANCH  52  55
ENDBRANCH  49  52
ENDBRANCH  47  49
BRANCH  47  72
ATOM     72  C24 non d ame      -8.733   8.435  70.663  0.00  0.00    -0.039 C 
ATOM     73  H35 non d ame      -8.993   7.818  71.524  0.00  0.00     0.036 H 
ATOM     74  H36 non d ame      -8.353   9.446  70.814  0.00  0.00     0.036 H 
BRANCH  72  75
ATOM     75  C25 non d ame     -10.046   8.554  69.753  0.00  0.00    -0.001 C 
ATOM     76  C26 non d ame     -10.374  10.136  69.448  0.00  0.00    -0.035 C 
ATOM     77  C27 non d ame     -11.669  10.381  69.759  0.00  0.00     0.085 C 
ATOM     78  H38 non d ame      -9.821  10.773  70.138  0.00  0.00     0.036 H 
ATOM     79  H39 non d ame     -10.329  10.328  68.376  0.00  0.00     0.036 H 
ATOM     80  N5  non d ame     -12.163   9.196  70.554  0.00  0.00    -0.049 N 
ATOM     81  H40 non d ame     -11.653  11.260  70.404  0.00  0.00     0.075 H 
ATOM     82  H41 non d ame     -12.196  10.413  68.806  0.00  0.00     0.075 H 
ATOM     83  C28 non d ame     -11.070   8.028  70.337  0.00  0.00     0.193 C 
ATOM     84  H42 non d ame     -12.147   9.476  71.524  0.00  0.00     0.280 HD
ATOM     85  H43 non d ame     -13.031   8.906  70.127  0.00  0.00     0.280 HD
ATOM     86  H44 non d ame     -11.275   7.195  69.666  0.00  0.00     0.129 H 
ATOM     87  H37 non d ame     -10.016   7.880  68.897  0.00  0.00     0.046 H 
BRANCH  83  88
ATOM     88  O6  non d ame     -10.729   7.433  71.591  0.00  0.00    -0.369 OA
ATOM     89  H45 non d ame     -11.529   7.267  72.095  0.00  0.00     0.212 HD
ENDBRANCH  83  88
ENDBRANCH  72  75
ENDBRANCH  47  72
ENDBRANCH  45  47
ENDBRANCH   1  43
BRANCH   1  90
ATOM     90  C16 non d ame      -5.752   9.918  65.864  0.00  0.00    -0.035 C 
ATOM     91  H21 non d ame      -5.926  10.988  65.747  0.00  0.00     0.037 H 
ATOM     92  H22 non d ame      -5.001   9.562  66.569  0.00  0.00     0.037 H 
BRANCH  90  93
ATOM     93  C17 non d ame      -5.325   9.385  64.459  0.00  0.00    -0.059 C 
ATOM     94  H23 non d ame      -4.261   9.153  64.503  0.00  0.00     0.038 H 
BRANCH  93  95
ATOM     95  C18 non d ame      -6.082   8.076  64.069  0.00  0.00    -0.073 C 
ATOM     96  H24 non d ame      -5.551   7.577  63.258  0.00  0.00     0.028 H 
ATOM     97  H25 non d ame      -6.130   7.413  64.934  0.00  0.00     0.028 H 
ATOM     98  H26 non d ame      -7.093   8.324  63.745  0.00  0.00     0.028 H 
ENDBRANCH  93  95
BRANCH  93  99
ATOM     99  C19 non d ame      -5.510  10.461  63.386  0.00  0.00    -0.073 C 
ATOM    100  H27 non d ame      -4.706  10.386  62.653  0.00  0.00     0.028 H 
ATOM    101  H28 non d ame      -6.470  10.316  62.889  0.00  0.00     0.028 H 
ATOM    102  H29 non d ame      -5.489  11.447  63.851  0.00  0.00     0.028 H 
ENDBRANCH  93  99
ENDBRANCH  90  93
ENDBRANCH   1  90
TORSDOF 26
ENDMDL
MODEL 19
REMARK VINA RESULT:      -6.4      3.217      9.588
REMARK  26 active torsions:
REMARK  status: ('A' for Active; 'I' for Inactive)
REMARK    1  A    between atoms: C2_2  and  C3_3 
REMARK    2  A    between atoms: C4_6  and  C5_7 
REMARK       I    between atoms: C5_7  and  N2_9 
REMARK    3  A    between atoms: N2_9  and  C6_10 
REMARK    4  A    between atoms: C6_10  and  C7_11 
REMARK    5  A    between atoms: C6_10  and  C8_13 
REMARK       I    between atoms: C7_11  and  N3_14 
REMARK    6  A    between atoms: N3_14  and  C9_15 
REMARK    7  A    between atoms: C9_15  and  C10_16 
REMARK    8  A    between atoms: C9_15  and  C11_18 
REMARK       I    between atoms: C10_16  and  N4_21 
REMARK    9  A    between atoms: C11_18  and  C12_19 
REMARK   10  A    between atoms: C11_18  and  C13_20 
REMARK   11  A    between atoms: N4_21  and  C14_22 
REMARK   12  A    between atoms: C14_22  and  C15_23 
REMARK   13  A    between atoms: C14_22  and  C16_25 
REMARK       I    between atoms: C15_23  and  N6_40 
REMARK   14  A    between atoms: C16_25  and  C17_26 
REMARK   15  A    between atoms: C17_26  and  C18_27 
REMARK   16  A    between atoms: C17_26  and  C19_28 
REMARK   17  A    between atoms: C20_29  and  C21_30 
REMARK   18  A    between atoms: C20_29  and  C24_33 
REMARK   19  A    between atoms: C20_29  and  N6_40 
REMARK   20  A    between atoms: C21_30  and  C22_31 
REMARK   21  A    between atoms: C22_31  and  C23_32 
REMARK   22  A    between atoms: C23_32  and  O8_43 
REMARK   23  A    between atoms: C24_33  and  C25_34 
REMARK   24  A    between atoms: C28_38  and  O6_39 
REMARK   25  A    between atoms: C29_42  and  O8_43 
REMARK   26  A    between atoms: C29_42  and  C35_49 
ROOT
ATOM      1  C14 non d ame      -6.916  12.946  68.248  0.00  0.00     0.089 C 
ATOM      2  H20 non d ame      -6.164  12.850  67.464  0.00  0.00     0.087 H 
ENDROOT
BRANCH   1   3
ATOM      3  N4  non d ame      -7.170  14.367  68.439  0.00  0.00    -0.346 N 
ATOM      4  C10 non d ame      -6.200  15.393  67.907  0.00  0.00     0.241 C 
ATOM      5  O4  non d ame      -5.221  15.050  67.330  0.00  0.00    -0.271 OA
ATOM      6  H19 non d ame      -8.007  14.638  68.935  0.00  0.00     0.163 HD
BRANCH   4   7
ATOM      7  C9  non d ame      -6.480  16.858  68.109  0.00  0.00     0.092 C 
ATOM      8  H11 non d ame      -6.047  17.424  67.284  0.00  0.00     0.088 H 
BRANCH   7   9
ATOM      9  N3  non d ame      -7.929  17.088  68.077  0.00  0.00    -0.346 N 
ATOM     10  C7  non d ame      -8.577  17.428  66.835  0.00  0.00     0.240 C 
ATOM     11  O3  non d ame      -7.950  17.521  65.851  0.00  0.00    -0.271 OA
ATOM     12  H10 non d ame      -8.483  17.011  68.918  0.00  0.00     0.163 HD
BRANCH  10  13
ATOM     13  C6  non d ame     -10.118  17.674  66.809  0.00  0.00     0.086 C 
ATOM     14  H6  non d ame     -10.628  17.078  66.052  0.00  0.00     0.086 H 
BRANCH  13  15
ATOM     15  N2  non d ame     -10.680  17.284  68.092  0.00  0.00    -0.343 N 
ATOM     16  C5  non d ame     -11.246  15.944  68.255  0.00  0.00     0.273 C 
ATOM     17  O2  non d ame     -11.248  15.188  67.347  0.00  0.00    -0.266 OA
ATOM     18  H5  non d ame     -10.676  17.939  68.862  0.00  0.00     0.163 HD
BRANCH  16  19
ATOM     19  C4  non d ame     -11.842  15.519  69.606  0.00  0.00     0.154 A 
ATOM     20  C1  non d ame     -12.359  14.231  69.957  0.00  0.00    -0.017 A 
ATOM     21  C2  non d ame     -12.779  14.362  71.299  0.00  0.00     0.077 A 
ATOM     22  H1  non d ame     -12.418  13.339  69.334  0.00  0.00     0.091 H 
ATOM     23  O1  non d ame     -12.528  15.584  71.667  0.00  0.00    -0.218 OA
ATOM     24  N1  non d ame     -11.981  16.279  70.696  0.00  0.00    -0.123 NA
BRANCH  21  25
ATOM     25  C3  non d ame     -13.409  13.272  72.156  0.00  0.00    -0.029 C 
ATOM     26  H2  non d ame     -12.626  12.635  72.568  0.00  0.00     0.036 H 
ATOM     27  H3  non d ame     -13.971  13.729  72.970  0.00  0.00     0.036 H 
ATOM     28  H4  non d ame     -14.082  12.671  71.543  0.00  0.00     0.036 H 
ENDBRANCH  21  25
ENDBRANCH  16  19
ENDBRANCH  13  15
BRANCH  13  29
ATOM     29  C8  non d ame     -10.392  19.133  66.546  0.00  0.00    -0.049 C 
ATOM     30  H7  non d ame     -10.421  19.673  67.493  0.00  0.00     0.030 H 
ATOM     31  H8  non d ame      -9.604  19.544  65.917  0.00  0.00     0.030 H 
ATOM     32  H9  non d ame     -11.353  19.236  66.041  0.00  0.00     0.030 H 
ENDBRANCH  13  29
ENDBRANCH  10  13
ENDBRANCH   7   9
BRANCH   7  33
ATOM     33  C11 non d ame      -5.916  17.309  69.488  0.00  0.00    -0.033 C 
ATOM     34  H12 non d ame      -6.464  16.769  70.259  0.00  0.00     0.042 H 
BRANCH  33  35
ATOM     35  C12 non d ame      -4.408  16.936  69.634  0.00  0.00    -0.071 C 
ATOM     36  H13 non d ame      -4.047  16.509  68.699  0.00  0.00     0.028 H 
ATOM     37  H14 non d ame      -3.834  17.831  69.871  0.00  0.00     0.028 H 
ATOM     38  H15 non d ame      -4.292  16.206  70.435  0.00  0.00     0.028 H 
ENDBRANCH  33  35
BRANCH  33  39
ATOM     39  C13 non d ame      -6.145  18.838  69.713  0.00  0.00    -0.071 C 
ATOM     40  H16 non d ame      -5.626  19.401  68.938  0.00  0.00     0.028 H 
ATOM     41  H17 non d ame      -7.213  19.056  69.668  0.00  0.00     0.028 H 
ATOM     42  H18 non d ame      -5.758  19.123  70.691  0.00  0.00     0.028 H 
ENDBRANCH  33  39
ENDBRANCH   7  33
ENDBRANCH   4   7
ENDBRANCH   1   3
BRANCH   1  43
ATOM     43  C15 non d ame      -8.254  12.252  67.867  0.00  0.00     0.240 C 
ATOM     44  O5  non d ame      -9.283  12.690  68.269  0.00  0.00    -0.271 OA
ATOM     45  N6  non d ame      -8.254  11.044  66.993  0.00  0.00    -0.355 N 
ATOM     46  H46 non d ame      -7.386  10.666  66.642  0.00  0.00     0.162 HD
BRANCH  45  47
ATOM     47  C20 non d ame      -9.535  10.396  66.639  0.00  0.00     0.013 C 
ATOM     48  H30 non d ame     -10.333  10.916  67.170  0.00  0.00     0.072 H 
BRANCH  47  49
ATOM     49  C21 non d ame      -9.495   8.945  67.061  0.00  0.00    -0.038 C 
ATOM     50  H31 non d ame     -10.242   8.847  67.848  0.00  0.00     0.036 H 
ATOM     51  H32 non d ame      -9.593   8.368  66.141  0.00  0.00     0.036 H 
BRANCH  49  52
ATOM     52  C22 non d ame      -8.143   8.541  67.689  0.00  0.00     0.018 C 
ATOM     53  H33 non d ame      -7.441   9.328  67.411  0.00  0.00     0.048 H 
ATOM     54  H34 non d ame      -8.352   8.345  68.740  0.00  0.00     0.048 H 
BRANCH  52  55
ATOM     55  C23 non d ame      -7.555   7.222  67.115  0.00  0.00     0.259 C 
ATOM     56  O7  non d ame      -8.125   6.190  67.269  0.00  0.00    -0.265 OA
BRANCH  55  57
ATOM     57  O8  non d ame      -6.318   7.257  66.414  0.00  0.00    -0.317 OA
BRANCH  57  58
ATOM     58  C29 non d ame      -6.360   6.628  65.129  0.00  0.00     0.052 C 
ATOM     59  H47 non d ame      -5.351   6.260  64.949  0.00  0.00     0.082 H 
ATOM     60  H48 non d ame      -7.195   5.930  65.170  0.00  0.00     0.082 H 
BRANCH  58  61
ATOM     61  C35 non d ame      -6.683   7.718  64.073  0.00  0.00    -0.034 A 
ATOM     62  C30 non d ame      -6.097   8.976  64.167  0.00  0.00    -0.075 A 
ATOM     63  C31 non d ame      -6.388   9.955  63.218  0.00  0.00    -0.082 A 
ATOM     64  H49 non d ame      -5.410   9.195  64.984  0.00  0.00     0.084 H 
ATOM     65  C32 non d ame      -7.272   9.672  62.173  0.00  0.00    -0.083 A 
ATOM     66  H50 non d ame      -5.924  10.939  63.293  0.00  0.00     0.083 H 
ATOM     67  C33 non d ame      -7.857   8.416  62.084  0.00  0.00    -0.082 A 
ATOM     68  H51 non d ame      -7.503  10.432  61.426  0.00  0.00     0.083 H 
ATOM     69  C34 non d ame      -7.567   7.435  63.030  0.00  0.00    -0.075 A 
ATOM     70  H52 non d ame      -8.547   8.200  61.268  0.00  0.00     0.083 H 
ATOM     71  H53 non d ame      -8.030   6.450  62.953  0.00  0.00     0.084 H 
ENDBRANCH  58  61
ENDBRANCH  57  58
ENDBRANCH  55  57
ENDBRANCH  52  55
ENDBRANCH  49  52
ENDBRANCH  47  49
BRANCH  47  72
ATOM     72  C24 non d ame      -9.757  10.483  65.130  0.00  0.00    -0.039 C 
ATOM     73  H35 non d ame      -8.767  10.383  64.685  0.00  0.00     0.036 H 
ATOM     74  H36 non d ame     -10.531   9.747  64.908  0.00  0.00     0.036 H 
BRANCH  72  75
ATOM     75  C25 non d ame     -10.329  11.915  64.696  0.00  0.00    -0.001 C 
ATOM     76  C26 non d ame     -11.600  12.324  65.654  0.00  0.00    -0.035 C 
ATOM     77  C27 non d ame     -12.644  12.679  64.866  0.00  0.00     0.085 C 
ATOM     78  H38 non d ame     -11.968  11.446  66.183  0.00  0.00     0.036 H 
ATOM     79  H39 non d ame     -11.375  13.237  66.205  0.00  0.00     0.036 H 
ATOM     80  N5  non d ame     -12.307  12.237  63.462  0.00  0.00    -0.049 N 
ATOM     81  H40 non d ame     -13.493  12.098  65.228  0.00  0.00     0.075 H 
ATOM     82  H41 non d ame     -12.675  13.768  64.897  0.00  0.00     0.075 H 
ATOM     83  C28 non d ame     -10.727  11.908  63.467  0.00  0.00     0.193 C 
ATOM     84  H42 non d ame     -12.814  11.378  63.304  0.00  0.00     0.280 HD
ATOM     85  H43 non d ame     -12.466  13.035  62.865  0.00  0.00     0.280 HD
ATOM     86  H44 non d ame     -10.014  12.602  63.024  0.00  0.00     0.129 H 
ATOM     87  H37 non d ame      -9.538  12.656  64.578  0.00  0.00     0.046 H 
BRANCH  83  88
ATOM     88  O6  non d ame     -10.482  10.652  62.830  0.00  0.00    -0.369 OA
ATOM     89  H45 non d ame      -9.611  10.332  63.077  0.00  0.00     0.212 HD
ENDBRANCH  83  88
ENDBRANCH  72  75
ENDBRANCH  47  72
ENDBRANCH  45  47
ENDBRANCH   1  43
BRANCH   1  90
ATOM     90  C16 non d ame      -6.385  12.358  69.545  0.00  0.00    -0.035 C 
ATOM     91  H21 non d ame      -6.508  13.146  70.291  0.00  0.00     0.037 H 
ATOM     92  H22 non d ame      -6.906  11.409  69.666  0.00  0.00     0.037 H 
BRANCH  90  93
ATOM     93  C17 non d ame      -4.860  12.024  69.505  0.00  0.00    -0.059 C 
ATOM     94  H23 non d ame      -4.696  11.154  70.140  0.00  0.00     0.038 H 
BRANCH  93  95
ATOM     95  C18 non d ame      -4.374  11.661  68.066  0.00  0.00    -0.073 C 
ATOM     96  H24 non d ame      -5.127  11.047  67.572  0.00  0.00     0.028 H 
ATOM     97  H25 non d ame      -4.220  12.576  67.493  0.00  0.00     0.028 H 
ATOM     98  H26 non d ame      -3.436  11.108  68.128  0.00  0.00     0.028 H 
ENDBRANCH  93  95
BRANCH  93  99
ATOM     99  C19 non d ame      -4.032  13.173  70.086  0.00  0.00    -0.073 C 
ATOM    100  H27 non d ame      -4.598  13.663  70.880  0.00  0.00     0.028 H 
ATOM    101  H28 non d ame      -3.101  12.779  70.493  0.00  0.00     0.028 H 
ATOM    102  H29 non d ame      -3.808  13.894  69.300  0.00  0.00     0.028 H 
ENDBRANCH  93  99
ENDBRANCH  90  93
ENDBRANCH   1  90
TORSDOF 26
ENDMDL
MODEL 20
REMARK VINA RESULT:      -6.4      3.313      8.738
REMARK  26 active torsions:
REMARK  status: ('A' for Active; 'I' for Inactive)
REMARK    1  A    between atoms: C2_2  and  C3_3 
REMARK    2  A    between atoms: C4_6  and  C5_7 
REMARK       I    between atoms: C5_7  and  N2_9 
REMARK    3  A    between atoms: N2_9  and  C6_10 
REMARK    4  A    between atoms: C6_10  and  C7_11 
REMARK    5  A    between atoms: C6_10  and  C8_13 
REMARK       I    between atoms: C7_11  and  N3_14 
REMARK    6  A    between atoms: N3_14  and  C9_15 
REMARK    7  A    between atoms: C9_15  and  C10_16 
REMARK    8  A    between atoms: C9_15  and  C11_18 
REMARK       I    between atoms: C10_16  and  N4_21 
REMARK    9  A    between atoms: C11_18  and  C12_19 
REMARK   10  A    between atoms: C11_18  and  C13_20 
REMARK   11  A    between atoms: N4_21  and  C14_22 
REMARK   12  A    between atoms: C14_22  and  C15_23 
REMARK   13  A    between atoms: C14_22  and  C16_25 
REMARK       I    between atoms: C15_23  and  N6_40 
REMARK   14  A    between atoms: C16_25  and  C17_26 
REMARK   15  A    between atoms: C17_26  and  C18_27 
REMARK   16  A    between atoms: C17_26  and  C19_28 
REMARK   17  A    between atoms: C20_29  and  C21_30 
REMARK   18  A    between atoms: C20_29  and  C24_33 
REMARK   19  A    between atoms: C20_29  and  N6_40 
REMARK   20  A    between atoms: C21_30  and  C22_31 
REMARK   21  A    between atoms: C22_31  and  C23_32 
REMARK   22  A    between atoms: C23_32  and  O8_43 
REMARK   23  A    between atoms: C24_33  and  C25_34 
REMARK   24  A    between atoms: C28_38  and  O6_39 
REMARK   25  A    between atoms: C29_42  and  O8_43 
REMARK   26  A    between atoms: C29_42  and  C35_49 
ROOT
ATOM      1  C14 non d ame     -10.017   9.514  66.674  0.00  0.00     0.089 C 
ATOM      2  H20 non d ame     -11.099   9.391  66.625  0.00  0.00     0.087 H 
ENDROOT
BRANCH   1   3
ATOM      3  N4  non d ame      -9.721  10.911  66.394  0.00  0.00    -0.346 N 
ATOM      4  C10 non d ame     -10.819  11.946  66.438  0.00  0.00     0.241 C 
ATOM      5  O4  non d ame     -11.932  11.628  66.699  0.00  0.00    -0.271 OA
ATOM      6  H19 non d ame      -8.768  11.161  66.171  0.00  0.00     0.163 HD
BRANCH   4   7
ATOM      7  C9  non d ame     -10.495  13.388  66.150  0.00  0.00     0.092 C 
ATOM      8  H11 non d ame     -10.977  14.020  66.895  0.00  0.00     0.088 H 
BRANCH   7   9
ATOM      9  N3  non d ame      -9.049  13.599  66.274  0.00  0.00    -0.346 N 
ATOM     10  C7  non d ame      -8.432  13.614  67.577  0.00  0.00     0.240 C 
ATOM     11  O3  non d ame      -9.083  13.460  68.537  0.00  0.00    -0.271 OA
ATOM     12  H10 non d ame      -8.474  13.734  65.454  0.00  0.00     0.163 HD
BRANCH  10  13
ATOM     13  C6  non d ame      -6.893  13.842  67.702  0.00  0.00     0.086 C 
ATOM     14  H6  non d ame      -6.452  14.251  66.794  0.00  0.00     0.086 H 
BRANCH  13  15
ATOM     15  N2  non d ame      -6.645  14.811  68.758  0.00  0.00    -0.343 N 
ATOM     16  C5  non d ame      -5.792  15.971  68.487  0.00  0.00     0.273 C 
ATOM     17  O2  non d ame      -5.309  16.113  67.418  0.00  0.00    -0.266 OA
ATOM     18  H5  non d ame      -7.061  14.680  69.669  0.00  0.00     0.163 HD
BRANCH  16  19
ATOM     19  C4  non d ame      -5.523  17.003  69.593  0.00  0.00     0.154 A 
ATOM     20  C1  non d ame      -5.878  18.389  69.587  0.00  0.00    -0.017 A 
ATOM     21  C2  non d ame      -5.411  18.889  70.823  0.00  0.00     0.077 A 
ATOM     22  H1  non d ame      -6.395  18.947  68.806  0.00  0.00     0.091 H 
ATOM     23  O1  non d ame      -4.857  17.897  71.457  0.00  0.00    -0.218 OA
ATOM     24  N1  non d ame      -4.910  16.786  70.760  0.00  0.00    -0.123 NA
BRANCH  21  25
ATOM     25  C3  non d ame      -5.536  20.323  71.321  0.00  0.00    -0.029 C 
ATOM     26  H2  non d ame      -4.637  20.596  71.873  0.00  0.00     0.036 H 
ATOM     27  H3  non d ame      -5.658  20.993  70.471  0.00  0.00     0.036 H 
ATOM     28  H4  non d ame      -6.404  20.406  71.976  0.00  0.00     0.036 H 
ENDBRANCH  21  25
ENDBRANCH  16  19
ENDBRANCH  13  15
BRANCH  13  29
ATOM     29  C8  non d ame      -6.214  12.537  68.030  0.00  0.00    -0.049 C 
ATOM     30  H7  non d ame      -6.227  11.891  67.152  0.00  0.00     0.030 H 
ATOM     31  H8  non d ame      -5.183  12.727  68.327  0.00  0.00     0.030 H 
ATOM     32  H9  non d ame      -6.744  12.047  68.848  0.00  0.00     0.030 H 
ENDBRANCH  13  29
ENDBRANCH  10  13
ENDBRANCH   7   9
BRANCH   7  33
ATOM     33  C11 non d ame     -10.946  13.741  64.702  0.00  0.00    -0.033 C 
ATOM     34  H12 non d ame     -10.232  14.459  64.301  0.00  0.00     0.042 H 
BRANCH  33  35
ATOM     35  C12 non d ame     -10.920  12.485  63.776  0.00  0.00    -0.071 C 
ATOM     36  H13 non d ame     -10.622  11.612  64.356  0.00  0.00     0.028 H 
ATOM     37  H14 non d ame     -11.912  12.323  63.357  0.00  0.00     0.028 H 
ATOM     38  H15 non d ame     -10.206  12.646  62.969  0.00  0.00     0.028 H 
ENDBRANCH  33  35
BRANCH  33  39
ATOM     39  C13 non d ame     -12.357  14.413  64.705  0.00  0.00    -0.071 C 
ATOM     40  H16 non d ame     -12.695  14.551  63.678  0.00  0.00     0.028 H 
ATOM     41  H17 non d ame     -13.062  13.775  65.237  0.00  0.00     0.028 H 
ATOM     42  H18 non d ame     -12.298  15.382  65.201  0.00  0.00     0.028 H 
ENDBRANCH  33  39
ENDBRANCH   7  33
ENDBRANCH   4   7
ENDBRANCH   1   3
BRANCH   1  43
ATOM     43  C15 non d ame      -9.449   9.162  68.079  0.00  0.00     0.240 C 
ATOM     44  O5  non d ame      -8.441   9.667  68.453  0.00  0.00    -0.271 OA
ATOM     45  N6  non d ame     -10.169   8.199  68.962  0.00  0.00    -0.355 N 
ATOM     46  H46 non d ame     -11.028   7.767  68.656  0.00  0.00     0.162 HD
BRANCH  45  47
ATOM     47  C20 non d ame      -9.617   7.875  70.295  0.00  0.00     0.013 C 
ATOM     48  H30 non d ame      -8.553   8.113  70.285  0.00  0.00     0.072 H 
BRANCH  47  49
ATOM     49  C21 non d ame      -9.812   6.402  70.573  0.00  0.00    -0.038 C 
ATOM     50  H31 non d ame      -8.812   5.969  70.586  0.00  0.00     0.036 H 
ATOM     51  H32 non d ame     -10.441   6.351  71.462  0.00  0.00     0.036 H 
BRANCH  49  52
ATOM     52  C22 non d ame     -10.587   5.678  69.449  0.00  0.00     0.018 C 
ATOM     53  H33 non d ame     -11.191   4.920  69.948  0.00  0.00     0.048 H 
ATOM     54  H34 non d ame     -11.069   6.464  68.869  0.00  0.00     0.048 H 
BRANCH  52  55
ATOM     55  C23 non d ame      -9.673   4.909  68.454  0.00  0.00     0.259 C 
ATOM     56  O7  non d ame      -9.728   3.725  68.378  0.00  0.00    -0.265 OA
BRANCH  55  57
ATOM     57  O8  non d ame      -8.759   5.637  67.643  0.00  0.00    -0.317 OA
BRANCH  57  58
ATOM     58  C29 non d ame      -7.697   4.842  67.108  0.00  0.00     0.052 C 
ATOM     59  H47 non d ame      -6.791   5.185  67.607  0.00  0.00     0.082 H 
ATOM     60  H48 non d ame      -8.020   3.807  67.216  0.00  0.00     0.082 H 
BRANCH  58  61
ATOM     61  C35 non d ame      -7.575   5.162  65.594  0.00  0.00    -0.034 A 
ATOM     62  C30 non d ame      -8.701   5.113  64.778  0.00  0.00    -0.075 A 
ATOM     63  C31 non d ame      -8.592   5.401  63.419  0.00  0.00    -0.082 A 
ATOM     64  H49 non d ame      -9.670   4.850  65.205  0.00  0.00     0.084 H 
ATOM     65  C32 non d ame      -7.349   5.735  62.874  0.00  0.00    -0.083 A 
ATOM     66  H50 non d ame      -9.477   5.365  62.783  0.00  0.00     0.083 H 
ATOM     67  C33 non d ame      -6.227   5.778  63.691  0.00  0.00    -0.082 A 
ATOM     68  H51 non d ame      -7.255   5.962  61.812  0.00  0.00     0.083 H 
ATOM     69  C34 non d ame      -6.333   5.494  65.051  0.00  0.00    -0.075 A 
ATOM     70  H52 non d ame      -5.259   6.038  63.262  0.00  0.00     0.083 H 
ATOM     71  H53 non d ame      -5.447   5.532  65.686  0.00  0.00     0.084 H 
ENDBRANCH  58  61
ENDBRANCH  57  58
ENDBRANCH  55  57
ENDBRANCH  52  55
ENDBRANCH  49  52
ENDBRANCH  47  49
BRANCH  47  72
ATOM     72  C24 non d ame     -10.335   8.696  71.364  0.00  0.00    -0.039 C 
ATOM     73  H35 non d ame     -10.369   8.056  72.246  0.00  0.00     0.036 H 
ATOM     74  H36 non d ame      -9.805   9.648  71.403  0.00  0.00     0.036 H 
BRANCH  72  75
ATOM     75  C25 non d ame     -11.849   9.014  70.951  0.00  0.00    -0.001 C 
ATOM     76  C26 non d ame     -12.040  10.632  70.729  0.00  0.00    -0.035 C 
ATOM     77  C27 non d ame     -13.106  11.049  71.454  0.00  0.00     0.085 C 
ATOM     78  H38 non d ame     -11.204  11.172  71.172  0.00  0.00     0.036 H 
ATOM     79  H39 non d ame     -12.337  10.837  69.700  0.00  0.00     0.036 H 
ATOM     80  N5  non d ame     -13.458   9.929  72.404  0.00  0.00    -0.049 N 
ATOM     81  H40 non d ame     -12.750  11.905  72.030  0.00  0.00     0.075 H 
ATOM     82  H41 non d ame     -13.916  11.173  70.737  0.00  0.00     0.075 H 
ATOM     83  C28 non d ame     -12.676   8.625  71.863  0.00  0.00     0.193 C 
ATOM     84  H42 non d ame     -13.074  10.185  73.302  0.00  0.00     0.280 HD
ATOM     85  H43 non d ame     -14.451   9.772  72.306  0.00  0.00     0.280 HD
ATOM     86  H44 non d ame     -13.209   7.841  71.326  0.00  0.00     0.129 H 
ATOM     87  H37 non d ame     -12.206   8.359  70.156  0.00  0.00     0.046 H 
BRANCH  83  88
ATOM     88  O6  non d ame     -12.013   7.964  72.943  0.00  0.00    -0.369 OA
ATOM     89  H45 non d ame     -12.160   7.017  72.877  0.00  0.00     0.212 HD
ENDBRANCH  83  88
ENDBRANCH  72  75
ENDBRANCH  47  72
ENDBRANCH  45  47
ENDBRANCH   1  43
BRANCH   1  90
ATOM     90  C16 non d ame      -9.351   8.645  65.620  0.00  0.00    -0.035 C 
ATOM     91  H21 non d ame      -8.759   7.917  66.178  0.00  0.00     0.037 H 
ATOM     92  H22 non d ame     -10.159   8.308  64.971  0.00  0.00     0.037 H 
BRANCH  90  93
ATOM     93  C17 non d ame      -8.348   9.422  64.709  0.00  0.00    -0.059 C 
ATOM     94  H23 non d ame      -8.523  10.487  64.859  0.00  0.00     0.038 H 
BRANCH  93  95
ATOM     95  C18 non d ame      -6.860   9.126  65.083  0.00  0.00    -0.073 C 
ATOM     96  H24 non d ame      -6.731   8.055  65.240  0.00  0.00     0.028 H 
ATOM     97  H25 non d ame      -6.210   9.456  64.274  0.00  0.00     0.028 H 
ATOM     98  H26 non d ame      -6.603   9.661  65.998  0.00  0.00     0.028 H 
ENDBRANCH  93  95
BRANCH  93  99
ATOM     99  C19 non d ame      -8.607   9.123  63.230  0.00  0.00    -0.073 C 
ATOM    100  H27 non d ame      -9.454   8.441  63.141  0.00  0.00     0.028 H 
ATOM    101  H28 non d ame      -8.831  10.052  62.706  0.00  0.00     0.028 H 
ATOM    102  H29 non d ame      -7.722   8.663  62.791  0.00  0.00     0.028 H 
ENDBRANCH  93  99
ENDBRANCH  90  93
ENDBRANCH   1  90
TORSDOF 26
ENDMDL
