MODEL 1
REMARK VINA RESULT:      -7.1      0.000      0.000
REMARK  26 active torsions:
REMARK  status: ('A' for Active; 'I' for Inactive)
REMARK    1  A    between atoms: C2_2  and  C3_3 
REMARK    2  A    between atoms: C4_6  and  C5_7 
REMARK       I    between atoms: C5_7  and  N2_9 
REMARK    3  A    between atoms: N2_9  and  C6_10 
REMARK    4  A    between atoms: C6_10  and  C7_11 
REMARK    5  A    between atoms: C6_10  and  C8_13 
REMARK       I    between atoms: C7_11  and  N3_14 
REMARK    6  A    between atoms: N3_14  and  C9_15 
REMARK    7  A    between atoms: C9_15  and  C10_16 
REMARK    8  A    between atoms: C9_15  and  C11_18 
REMARK       I    between atoms: C10_16  and  N4_21 
REMARK    9  A    between atoms: C11_18  and  C12_19 
REMARK   10  A    between atoms: C11_18  and  C13_20 
REMARK   11  A    between atoms: N4_21  and  C14_22 
REMARK   12  A    between atoms: C14_22  and  C15_23 
REMARK   13  A    between atoms: C14_22  and  C16_25 
REMARK       I    between atoms: C15_23  and  N6_40 
REMARK   14  A    between atoms: C16_25  and  C17_26 
REMARK   15  A    between atoms: C17_26  and  C18_27 
REMARK   16  A    between atoms: C17_26  and  C19_28 
REMARK   17  A    between atoms: C20_29  and  C21_30 
REMARK   18  A    between atoms: C20_29  and  C24_33 
REMARK   19  A    between atoms: C20_29  and  N6_40 
REMARK   20  A    between atoms: C21_30  and  C22_31 
REMARK   21  A    between atoms: C22_31  and  C23_32 
REMARK   22  A    between atoms: C23_32  and  O8_43 
REMARK   23  A    between atoms: C24_33  and  C25_34 
REMARK   24  A    between atoms: C28_38  and  O6_39 
REMARK   25  A    between atoms: C29_42  and  O8_43 
REMARK   26  A    between atoms: C29_42  and  C35_49 
ROOT
ATOM      1  C14 non d ame     -12.210  14.487  70.398  0.00  0.00     0.089 C 
ATOM      2  H20 non d ame     -13.298  14.501  70.465  0.00  0.00     0.087 H 
ENDROOT
BRANCH   1   3
ATOM      3  N4  non d ame     -11.807  13.119  70.105  0.00  0.00    -0.346 N 
ATOM      4  C10 non d ame     -12.421  11.966  70.859  0.00  0.00     0.241 C 
ATOM      5  O4  non d ame     -13.235  12.164  71.700  0.00  0.00    -0.271 OA
ATOM      6  H19 non d ame     -11.111  12.971  69.388  0.00  0.00     0.163 HD
BRANCH   4   7
ATOM      7  C9  non d ame     -11.996  10.557  70.539  0.00  0.00     0.092 C 
ATOM      8  H11 non d ame     -12.455  10.248  69.600  0.00  0.00     0.088 H 
BRANCH   7   9
ATOM      9  N3  non d ame     -10.543  10.515  70.345  0.00  0.00    -0.346 N 
ATOM     10  C7  non d ame      -9.990  10.625  69.019  0.00  0.00     0.240 C 
ATOM     11  O3  non d ame     -10.698  10.746  68.095  0.00  0.00    -0.271 OA
ATOM     12  H10 non d ame      -9.919  10.411  71.133  0.00  0.00     0.163 HD
BRANCH  10  13
ATOM     13  C6  non d ame      -8.443  10.577  68.819  0.00  0.00     0.086 C 
ATOM     14  H6  non d ame      -8.157  10.328  67.797  0.00  0.00     0.086 H 
BRANCH  13  15
ATOM     15  N2  non d ame      -7.892  11.894  69.095  0.00  0.00    -0.343 N 
ATOM     16  C5  non d ame      -7.034  12.541  68.099  0.00  0.00     0.273 C 
ATOM     17  O2  non d ame      -6.792  11.993  67.081  0.00  0.00    -0.266 OA
ATOM     18  H5  non d ame      -8.102  12.354  69.969  0.00  0.00     0.163 HD
BRANCH  16  19
ATOM     19  C4  non d ame      -6.446  13.933  68.378  0.00  0.00     0.154 A 
ATOM     20  C1  non d ame      -6.345  14.592  69.645  0.00  0.00    -0.017 A 
ATOM     21  C2  non d ame      -5.736  15.833  69.361  0.00  0.00     0.077 A 
ATOM     22  H1  non d ame      -6.665  14.224  70.620  0.00  0.00     0.091 H 
ATOM     23  O1  non d ame      -5.514  15.873  68.079  0.00  0.00    -0.218 OA
ATOM     24  N1  non d ame      -5.920  14.775  67.484  0.00  0.00    -0.123 NA
BRANCH  21  25
ATOM     25  C3  non d ame      -5.399  16.923  70.370  0.00  0.00    -0.029 C 
ATOM     26  H2  non d ame      -6.204  17.657  70.396  0.00  0.00     0.036 H 
ATOM     27  H3  non d ame      -5.279  16.480  71.357  0.00  0.00     0.036 H 
ATOM     28  H4  non d ame      -4.469  17.415  70.077  0.00  0.00     0.036 H 
ENDBRANCH  21  25
ENDBRANCH  16  19
ENDBRANCH  13  15
BRANCH  13  29
ATOM     29  C8  non d ame      -7.843   9.560  69.755  0.00  0.00    -0.049 C 
ATOM     30  H7  non d ame      -7.913   8.568  69.306  0.00  0.00     0.030 H 
ATOM     31  H8  non d ame      -6.797   9.804  69.936  0.00  0.00     0.030 H 
ATOM     32  H9  non d ame      -8.388   9.569  70.699  0.00  0.00     0.030 H 
ENDBRANCH  13  29
ENDBRANCH  10  13
ENDBRANCH   7   9
BRANCH   7  33
ATOM     33  C11 non d ame     -12.387   9.617  71.718  0.00  0.00    -0.033 C 
ATOM     34  H12 non d ame     -12.558  10.242  72.593  0.00  0.00     0.042 H 
BRANCH  33  35
ATOM     35  C12 non d ame     -13.713   8.852  71.419  0.00  0.00    -0.071 C 
ATOM     36  H13 non d ame     -14.062   8.361  72.328  0.00  0.00     0.028 H 
ATOM     37  H14 non d ame     -14.469   9.556  71.074  0.00  0.00     0.028 H 
ATOM     38  H15 non d ame     -13.534   8.103  70.649  0.00  0.00     0.028 H 
ENDBRANCH  33  35
BRANCH  33  39
ATOM     39  C13 non d ame     -11.225   8.627  72.052  0.00  0.00    -0.071 C 
ATOM     40  H16 non d ame     -10.369   8.843  71.414  0.00  0.00     0.028 H 
ATOM     41  H17 non d ame     -10.938   8.742  73.097  0.00  0.00     0.028 H 
ATOM     42  H18 non d ame     -11.559   7.604  71.878  0.00  0.00     0.028 H 
ENDBRANCH  33  39
ENDBRANCH   7  33
ENDBRANCH   4   7
ENDBRANCH   1   3
BRANCH   1  43
ATOM     43  C15 non d ame     -11.678  15.412  69.267  0.00  0.00     0.240 C 
ATOM     44  O5  non d ame     -12.250  16.421  69.011  0.00  0.00    -0.271 OA
ATOM     45  N6  non d ame     -10.450  15.042  68.507  0.00  0.00    -0.355 N 
ATOM     46  H46 non d ame      -9.954  14.189  68.718  0.00  0.00     0.162 HD
BRANCH  45  47
ATOM     47  C20 non d ame      -9.957  15.933  67.434  0.00  0.00     0.013 C 
ATOM     48  H30 non d ame     -10.803  16.508  67.059  0.00  0.00     0.072 H 
BRANCH  47  49
ATOM     49  C21 non d ame      -9.367  15.097  66.321  0.00  0.00    -0.038 C 
ATOM     50  H31 non d ame      -9.682  15.576  65.394  0.00  0.00     0.036 H 
ATOM     51  H32 non d ame      -8.306  15.003  66.553  0.00  0.00     0.036 H 
BRANCH  49  52
ATOM     52  C22 non d ame      -9.936  13.661  66.285  0.00  0.00     0.018 C 
ATOM     53  H33 non d ame      -9.084  13.011  66.084  0.00  0.00     0.048 H 
ATOM     54  H34 non d ame     -10.504  13.545  67.207  0.00  0.00     0.048 H 
BRANCH  52  55
ATOM     55  C23 non d ame     -10.943  13.415  65.127  0.00  0.00     0.259 C 
ATOM     56  O7  non d ame     -12.098  13.656  65.272  0.00  0.00    -0.265 OA
BRANCH  55  57
ATOM     57  O8  non d ame     -10.472  12.884  63.895  0.00  0.00    -0.317 OA
BRANCH  57  58
ATOM     58  C29 non d ame     -10.845  11.521  63.668  0.00  0.00     0.052 C 
ATOM     59  H47 non d ame     -11.234  11.160  64.619  0.00  0.00     0.082 H 
ATOM     60  H48 non d ame     -11.486  11.534  62.787  0.00  0.00     0.082 H 
BRANCH  58  61
ATOM     61  C35 non d ame      -9.559  10.723  63.327  0.00  0.00    -0.034 A 
ATOM     62  C30 non d ame      -8.769  11.102  62.246  0.00  0.00    -0.075 A 
ATOM     63  C31 non d ame      -7.613  10.385  61.940  0.00  0.00    -0.082 A 
ATOM     64  H49 non d ame      -9.055  11.961  61.639  0.00  0.00     0.084 H 
ATOM     65  C32 non d ame      -7.250   9.282  62.718  0.00  0.00    -0.083 A 
ATOM     66  H50 non d ame      -6.995  10.687  61.094  0.00  0.00     0.083 H 
ATOM     67  C33 non d ame      -8.043   8.905  63.794  0.00  0.00    -0.082 A 
ATOM     68  H51 non d ame      -6.348   8.717  62.486  0.00  0.00     0.083 H 
ATOM     69  C34 non d ame      -9.198   9.621  64.104  0.00  0.00    -0.075 A 
ATOM     70  H52 non d ame      -7.757   8.043  64.397  0.00  0.00     0.083 H 
ATOM     71  H53 non d ame      -9.814   9.319  64.952  0.00  0.00     0.084 H 
ENDBRANCH  58  61
ENDBRANCH  57  58
ENDBRANCH  55  57
ENDBRANCH  52  55
ENDBRANCH  49  52
ENDBRANCH  47  49
BRANCH  47  72
ATOM     72  C24 non d ame      -8.886  16.868  67.992  0.00  0.00    -0.039 C 
ATOM     73  H35 non d ame      -8.693  16.516  69.006  0.00  0.00     0.036 H 
ATOM     74  H36 non d ame      -8.084  16.864  67.253  0.00  0.00     0.036 H 
BRANCH  72  75
ATOM     75  C25 non d ame      -9.415  18.375  68.108  0.00  0.00    -0.001 C 
ATOM     76  C26 non d ame     -10.568  18.652  66.968  0.00  0.00    -0.035 C 
ATOM     77  C27 non d ame     -10.245  19.778  66.286  0.00  0.00     0.085 C 
ATOM     78  H38 non d ame     -10.535  17.875  66.206  0.00  0.00     0.036 H 
ATOM     79  H39 non d ame     -11.513  18.907  67.446  0.00  0.00     0.036 H 
ATOM     80  N5  non d ame      -8.814  20.110  66.636  0.00  0.00    -0.049 N 
ATOM     81  H40 non d ame     -10.299  19.506  65.232  0.00  0.00     0.075 H 
ATOM     82  H41 non d ame     -10.897  20.555  66.683  0.00  0.00     0.075 H 
ATOM     83  C28 non d ame      -8.457  19.223  67.936  0.00  0.00     0.193 C 
ATOM     84  H42 non d ame      -8.249  19.791  65.863  0.00  0.00     0.280 HD
ATOM     85  H43 non d ame      -8.803  21.085  66.900  0.00  0.00     0.280 HD
ATOM     86  H44 non d ame      -8.416  19.679  68.925  0.00  0.00     0.129 H 
ATOM     87  H37 non d ame      -9.657  18.649  69.135  0.00  0.00     0.046 H 
BRANCH  83  88
ATOM     88  O6  non d ame      -7.193  18.579  67.762  0.00  0.00    -0.369 OA
ATOM     89  H45 non d ame      -7.285  17.861  67.131  0.00  0.00     0.212 HD
ENDBRANCH  83  88
ENDBRANCH  72  75
ENDBRANCH  47  72
ENDBRANCH  45  47
ENDBRANCH   1  43
BRANCH   1  90
ATOM     90  C16 non d ame     -11.606  14.907  71.728  0.00  0.00    -0.035 C 
ATOM     91  H21 non d ame     -11.401  13.976  72.259  0.00  0.00     0.037 H 
ATOM     92  H22 non d ame     -10.788  15.580  71.474  0.00  0.00     0.037 H 
BRANCH  90  93
ATOM     93  C17 non d ame     -12.585  15.722  72.632  0.00  0.00    -0.059 C 
ATOM     94  H23 non d ame     -12.353  16.779  72.499  0.00  0.00     0.038 H 
BRANCH  93  95
ATOM     95  C18 non d ame     -14.078  15.507  72.227  0.00  0.00    -0.073 C 
ATOM     96  H24 non d ame     -14.161  15.492  71.140  0.00  0.00     0.028 H 
ATOM     97  H25 non d ame     -14.431  14.559  72.632  0.00  0.00     0.028 H 
ATOM     98  H26 non d ame     -14.683  16.322  72.626  0.00  0.00     0.028 H 
ENDBRANCH  93  95
BRANCH  93  99
ATOM     99  C19 non d ame     -12.368  15.392  74.111  0.00  0.00    -0.073 C 
ATOM    100  H27 non d ame     -11.685  14.547  74.198  0.00  0.00     0.028 H 
ATOM    101  H28 non d ame     -11.942  16.259  74.617  0.00  0.00     0.028 H 
ATOM    102  H29 non d ame     -13.323  15.137  74.570  0.00  0.00     0.028 H 
ENDBRANCH  93  99
ENDBRANCH  90  93
ENDBRANCH   1  90
TORSDOF 26
ENDMDL
MODEL 2
REMARK VINA RESULT:      -6.8      3.020      5.856
REMARK  26 active torsions:
REMARK  status: ('A' for Active; 'I' for Inactive)
REMARK    1  A    between atoms: C2_2  and  C3_3 
REMARK    2  A    between atoms: C4_6  and  C5_7 
REMARK       I    between atoms: C5_7  and  N2_9 
REMARK    3  A    between atoms: N2_9  and  C6_10 
REMARK    4  A    between atoms: C6_10  and  C7_11 
REMARK    5  A    between atoms: C6_10  and  C8_13 
REMARK       I    between atoms: C7_11  and  N3_14 
REMARK    6  A    between atoms: N3_14  and  C9_15 
REMARK    7  A    between atoms: C9_15  and  C10_16 
REMARK    8  A    between atoms: C9_15  and  C11_18 
REMARK       I    between atoms: C10_16  and  N4_21 
REMARK    9  A    between atoms: C11_18  and  C12_19 
REMARK   10  A    between atoms: C11_18  and  C13_20 
REMARK   11  A    between atoms: N4_21  and  C14_22 
REMARK   12  A    between atoms: C14_22  and  C15_23 
REMARK   13  A    between atoms: C14_22  and  C16_25 
REMARK       I    between atoms: C15_23  and  N6_40 
REMARK   14  A    between atoms: C16_25  and  C17_26 
REMARK   15  A    between atoms: C17_26  and  C18_27 
REMARK   16  A    between atoms: C17_26  and  C19_28 
REMARK   17  A    between atoms: C20_29  and  C21_30 
REMARK   18  A    between atoms: C20_29  and  C24_33 
REMARK   19  A    between atoms: C20_29  and  N6_40 
REMARK   20  A    between atoms: C21_30  and  C22_31 
REMARK   21  A    between atoms: C22_31  and  C23_32 
REMARK   22  A    between atoms: C23_32  and  O8_43 
REMARK   23  A    between atoms: C24_33  and  C25_34 
REMARK   24  A    between atoms: C28_38  and  O6_39 
REMARK   25  A    between atoms: C29_42  and  O8_43 
REMARK   26  A    between atoms: C29_42  and  C35_49 
ROOT
ATOM      1  C14 non d ame     -11.750  13.356  69.313  0.00  0.00     0.089 C 
ATOM      2  H20 non d ame     -12.746  13.033  69.007  0.00  0.00     0.087 H 
ENDROOT
BRANCH   1   3
ATOM      3  N4  non d ame     -11.002  12.167  69.694  0.00  0.00    -0.346 N 
ATOM      4  C10 non d ame     -11.169  10.882  68.921  0.00  0.00     0.241 C 
ATOM      5  O4  non d ame     -11.914  10.829  67.998  0.00  0.00    -0.271 OA
ATOM      6  H19 non d ame     -10.375  12.232  70.483  0.00  0.00     0.163 HD
BRANCH   4   7
ATOM      7  C9  non d ame     -10.383   9.663  69.326  0.00  0.00     0.092 C 
ATOM      8  H11 non d ame      -9.808   9.888  70.224  0.00  0.00     0.088 H 
BRANCH   7   9
ATOM      9  N3  non d ame     -11.308   8.576  69.666  0.00  0.00    -0.346 N 
ATOM     10  C7  non d ame     -11.855   8.485  70.996  0.00  0.00     0.240 C 
ATOM     11  O3  non d ame     -11.562   9.277  71.808  0.00  0.00    -0.271 OA
ATOM     12  H10 non d ame     -11.569   7.885  68.977  0.00  0.00     0.163 HD
BRANCH  10  13
ATOM     13  C6  non d ame     -12.835   7.325  71.353  0.00  0.00     0.086 C 
ATOM     14  H6  non d ame     -12.883   6.559  70.578  0.00  0.00     0.086 H 
BRANCH  13  15
ATOM     15  N2  non d ame     -12.366   6.665  72.561  0.00  0.00    -0.343 N 
ATOM     16  C5  non d ame     -11.325   5.639  72.465  0.00  0.00     0.273 C 
ATOM     17  O2  non d ame     -10.875   5.350  71.412  0.00  0.00    -0.266 OA
ATOM     18  H5  non d ame     -12.759   6.917  73.456  0.00  0.00     0.163 HD
BRANCH  16  19
ATOM     19  C4  non d ame     -10.820   4.935  73.734  0.00  0.00     0.154 A 
ATOM     20  C1  non d ame     -10.556   3.539  73.901  0.00  0.00    -0.017 A 
ATOM     21  C2  non d ame     -10.115   3.410  75.237  0.00  0.00     0.077 A 
ATOM     22  H1  non d ame     -10.667   2.741  73.166  0.00  0.00     0.091 H 
ATOM     23  O1  non d ame     -10.126   4.599  75.765  0.00  0.00    -0.218 OA
ATOM     24  N1  non d ame     -10.534   5.506  74.907  0.00  0.00    -0.123 NA
BRANCH  21  25
ATOM     25  C3  non d ame      -9.702   2.118  75.929  0.00  0.00    -0.029 C 
ATOM     26  H2  non d ame     -10.107   2.101  76.941  0.00  0.00     0.036 H 
ATOM     27  H3  non d ame     -10.087   1.266  75.369  0.00  0.00     0.036 H 
ATOM     28  H4  non d ame      -8.613   2.061  75.973  0.00  0.00     0.036 H 
ENDBRANCH  21  25
ENDBRANCH  16  19
ENDBRANCH  13  15
BRANCH  13  29
ATOM     29  C8  non d ame     -14.219   7.881  71.573  0.00  0.00    -0.049 C 
ATOM     30  H7  non d ame     -14.935   7.061  71.636  0.00  0.00     0.030 H 
ATOM     31  H8  non d ame     -14.238   8.453  72.500  0.00  0.00     0.030 H 
ATOM     32  H9  non d ame     -14.485   8.531  70.739  0.00  0.00     0.030 H 
ENDBRANCH  13  29
ENDBRANCH  10  13
ENDBRANCH   7   9
BRANCH   7  33
ATOM     33  C11 non d ame      -9.474   9.216  68.144  0.00  0.00    -0.033 C 
ATOM     34  H12 non d ame     -10.062   9.290  67.230  0.00  0.00     0.042 H 
BRANCH  33  35
ATOM     35  C12 non d ame      -8.242  10.161  67.987  0.00  0.00    -0.071 C 
ATOM     36  H13 non d ame      -8.412  11.077  68.552  0.00  0.00     0.028 H 
ATOM     37  H14 non d ame      -7.350   9.661  68.364  0.00  0.00     0.028 H 
ATOM     38  H15 non d ame      -8.104  10.404  66.934  0.00  0.00     0.028 H 
ENDBRANCH  33  35
BRANCH  33  39
ATOM     39  C13 non d ame      -9.028   7.728  68.313  0.00  0.00    -0.071 C 
ATOM     40  H16 non d ame      -9.757   7.074  67.837  0.00  0.00     0.028 H 
ATOM     41  H17 non d ame      -8.052   7.586  67.846  0.00  0.00     0.028 H 
ATOM     42  H18 non d ame      -8.961   7.487  69.373  0.00  0.00     0.028 H 
ENDBRANCH  33  39
ENDBRANCH   7  33
ENDBRANCH   4   7
ENDBRANCH   1   3
BRANCH   1  43
ATOM     43  C15 non d ame     -10.986  14.073  68.164  0.00  0.00     0.240 C 
ATOM     44  O5  non d ame      -9.803  13.983  68.093  0.00  0.00    -0.271 OA
ATOM     45  N6  non d ame     -11.731  14.867  67.144  0.00  0.00    -0.355 N 
ATOM     46  H46 non d ame     -12.736  14.947  67.192  0.00  0.00     0.162 HD
BRANCH  45  47
ATOM     47  C20 non d ame     -10.991  15.542  66.057  0.00  0.00     0.013 C 
ATOM     48  H30 non d ame     -11.707  16.116  65.469  0.00  0.00     0.072 H 
BRANCH  47  49
ATOM     49  C21 non d ame     -10.323  14.502  65.185  0.00  0.00    -0.038 C 
ATOM     50  H31 non d ame      -9.552  15.035  64.630  0.00  0.00     0.036 H 
ATOM     51  H32 non d ame     -10.049  13.688  65.856  0.00  0.00     0.036 H 
BRANCH  49  52
ATOM     52  C22 non d ame     -11.280  13.900  64.133  0.00  0.00     0.018 C 
ATOM     53  H33 non d ame     -12.139  14.570  64.095  0.00  0.00     0.048 H 
ATOM     54  H34 non d ame     -10.675  13.739  63.241  0.00  0.00     0.048 H 
BRANCH  52  55
ATOM     55  C23 non d ame     -11.844  12.505  64.525  0.00  0.00     0.259 C 
ATOM     56  O7  non d ame     -12.662  12.405  65.381  0.00  0.00    -0.265 OA
BRANCH  55  57
ATOM     57  O8  non d ame     -11.360  11.346  63.859  0.00  0.00    -0.317 OA
BRANCH  57  58
ATOM     58  C29 non d ame     -10.303  10.675  64.551  0.00  0.00     0.052 C 
ATOM     59  H47 non d ame      -9.865  11.420  65.215  0.00  0.00     0.082 H 
ATOM     60  H48 non d ame     -10.749   9.771  64.966  0.00  0.00     0.082 H 
BRANCH  58  61
ATOM     61  C35 non d ame      -9.234  10.259  63.506  0.00  0.00    -0.034 A 
ATOM     62  C30 non d ame      -8.887  11.130  62.479  0.00  0.00    -0.075 A 
ATOM     63  C31 non d ame      -7.926  10.755  61.540  0.00  0.00    -0.082 A 
ATOM     64  H49 non d ame      -9.366  12.107  62.410  0.00  0.00     0.084 H 
ATOM     65  C32 non d ame      -7.315   9.502  61.629  0.00  0.00    -0.083 A 
ATOM     66  H50 non d ame      -7.654  11.442  60.738  0.00  0.00     0.083 H 
ATOM     67  C33 non d ame      -7.668   8.633  62.654  0.00  0.00    -0.082 A 
ATOM     68  H51 non d ame      -6.563   9.202  60.899  0.00  0.00     0.083 H 
ATOM     69  C34 non d ame      -8.625   9.005  63.595  0.00  0.00    -0.075 A 
ATOM     70  H52 non d ame      -7.190   7.656  62.719  0.00  0.00     0.083 H 
ATOM     71  H53 non d ame      -8.895   8.318  64.398  0.00  0.00     0.084 H 
ENDBRANCH  58  61
ENDBRANCH  57  58
ENDBRANCH  55  57
ENDBRANCH  52  55
ENDBRANCH  49  52
ENDBRANCH  47  49
BRANCH  47  72
ATOM     72  C24 non d ame      -9.930  16.466  66.652  0.00  0.00    -0.039 C 
ATOM     73  H35 non d ame      -9.355  15.843  67.338  0.00  0.00     0.036 H 
ATOM     74  H36 non d ame      -9.439  16.932  65.797  0.00  0.00     0.036 H 
BRANCH  72  75
ATOM     75  C25 non d ame     -10.587  17.643  67.519  0.00  0.00    -0.001 C 
ATOM     76  C26 non d ame     -10.497  19.062  66.694  0.00  0.00    -0.035 C 
ATOM     77  C27 non d ame      -9.950  20.002  67.502  0.00  0.00     0.085 C 
ATOM     78  H38 non d ame      -9.778  18.977  65.879  0.00  0.00     0.036 H 
ATOM     79  H39 non d ame     -11.498  19.446  66.499  0.00  0.00     0.036 H 
ATOM     80  N5  non d ame      -9.358  19.275  68.686  0.00  0.00    -0.049 N 
ATOM     81  H40 non d ame      -9.143  20.451  66.922  0.00  0.00     0.075 H 
ATOM     82  H41 non d ame     -10.784  20.615  67.842  0.00  0.00     0.075 H 
ATOM     83  C28 non d ame      -9.980  17.786  68.649  0.00  0.00     0.193 C 
ATOM     84  H42 non d ame      -8.365  19.214  68.518  0.00  0.00     0.280 HD
ATOM     85  H43 non d ame      -9.702  19.746  69.511  0.00  0.00     0.280 HD
ATOM     86  H44 non d ame     -10.774  17.499  69.338  0.00  0.00     0.129 H 
ATOM     87  H37 non d ame     -11.561  17.364  67.921  0.00  0.00     0.046 H 
BRANCH  83  88
ATOM     88  O6  non d ame      -8.947  16.816  68.833  0.00  0.00    -0.369 OA
ATOM     89  H45 non d ame      -8.962  16.192  68.103  0.00  0.00     0.212 HD
ENDBRANCH  83  88
ENDBRANCH  72  75
ENDBRANCH  47  72
ENDBRANCH  45  47
ENDBRANCH   1  43
BRANCH   1  90
ATOM     90  C16 non d ame     -11.854  14.282  70.513  0.00  0.00    -0.035 C 
ATOM     91  H21 non d ame     -11.138  13.895  71.240  0.00  0.00     0.037 H 
ATOM     92  H22 non d ame     -11.734  15.289  70.113  0.00  0.00     0.037 H 
BRANCH  90  93
ATOM     93  C17 non d ame     -13.251  14.249  71.212  0.00  0.00    -0.059 C 
ATOM     94  H23 non d ame     -14.009  14.190  70.431  0.00  0.00     0.038 H 
BRANCH  93  95
ATOM     95  C18 non d ame     -13.419  12.999  72.134  0.00  0.00    -0.073 C 
ATOM     96  H24 non d ame     -12.960  12.132  71.658  0.00  0.00     0.028 H 
ATOM     97  H25 non d ame     -12.935  13.187  73.092  0.00  0.00     0.028 H 
ATOM     98  H26 non d ame     -14.480  12.807  72.294  0.00  0.00     0.028 H 
ENDBRANCH  93  95
BRANCH  93  99
ATOM     99  C19 non d ame     -13.503  15.541  71.994  0.00  0.00    -0.073 C 
ATOM    100  H27 non d ame     -14.564  15.788  71.953  0.00  0.00     0.028 H 
ATOM    101  H28 non d ame     -13.201  15.400  73.032  0.00  0.00     0.028 H 
ATOM    102  H29 non d ame     -12.923  16.351  71.554  0.00  0.00     0.028 H 
ENDBRANCH  93  99
ENDBRANCH  90  93
ENDBRANCH   1  90
TORSDOF 26
ENDMDL
MODEL 3
REMARK VINA RESULT:      -6.7      2.230      5.010
REMARK  26 active torsions:
REMARK  status: ('A' for Active; 'I' for Inactive)
REMARK    1  A    between atoms: C2_2  and  C3_3 
REMARK    2  A    between atoms: C4_6  and  C5_7 
REMARK       I    between atoms: C5_7  and  N2_9 
REMARK    3  A    between atoms: N2_9  and  C6_10 
REMARK    4  A    between atoms: C6_10  and  C7_11 
REMARK    5  A    between atoms: C6_10  and  C8_13 
REMARK       I    between atoms: C7_11  and  N3_14 
REMARK    6  A    between atoms: N3_14  and  C9_15 
REMARK    7  A    between atoms: C9_15  and  C10_16 
REMARK    8  A    between atoms: C9_15  and  C11_18 
REMARK       I    between atoms: C10_16  and  N4_21 
REMARK    9  A    between atoms: C11_18  and  C12_19 
REMARK   10  A    between atoms: C11_18  and  C13_20 
REMARK   11  A    between atoms: N4_21  and  C14_22 
REMARK   12  A    between atoms: C14_22  and  C15_23 
REMARK   13  A    between atoms: C14_22  and  C16_25 
REMARK       I    between atoms: C15_23  and  N6_40 
REMARK   14  A    between atoms: C16_25  and  C17_26 
REMARK   15  A    between atoms: C17_26  and  C18_27 
REMARK   16  A    between atoms: C17_26  and  C19_28 
REMARK   17  A    between atoms: C20_29  and  C21_30 
REMARK   18  A    between atoms: C20_29  and  C24_33 
REMARK   19  A    between atoms: C20_29  and  N6_40 
REMARK   20  A    between atoms: C21_30  and  C22_31 
REMARK   21  A    between atoms: C22_31  and  C23_32 
REMARK   22  A    between atoms: C23_32  and  O8_43 
REMARK   23  A    between atoms: C24_33  and  C25_34 
REMARK   24  A    between atoms: C28_38  and  O6_39 
REMARK   25  A    between atoms: C29_42  and  O8_43 
REMARK   26  A    between atoms: C29_42  and  C35_49 
ROOT
ATOM      1  C14 non d ame     -11.739  14.766  70.156  0.00  0.00     0.089 C 
ATOM      2  H20 non d ame     -12.748  14.829  69.747  0.00  0.00     0.087 H 
ENDROOT
BRANCH   1   3
ATOM      3  N4  non d ame     -11.415  13.356  70.308  0.00  0.00    -0.346 N 
ATOM      4  C10 non d ame     -11.664  12.390  69.175  0.00  0.00     0.241 C 
ATOM      5  O4  non d ame     -12.128  12.773  68.152  0.00  0.00    -0.271 OA
ATOM      6  H19 non d ame     -11.023  13.049  71.187  0.00  0.00     0.163 HD
BRANCH   4   7
ATOM      7  C9  non d ame     -11.318  10.935  69.347  0.00  0.00     0.092 C 
ATOM      8  H11 non d ame     -11.862  10.347  68.608  0.00  0.00     0.088 H 
BRANCH   7   9
ATOM      9  N3  non d ame      -9.888  10.738  69.088  0.00  0.00    -0.346 N 
ATOM     10  C7  non d ame      -9.442  10.335  67.778  0.00  0.00     0.240 C 
ATOM     11  O3  non d ame     -10.219  10.163  66.919  0.00  0.00    -0.271 OA
ATOM     12  H10 non d ame      -9.205  10.882  69.819  0.00  0.00     0.163 HD
BRANCH  10  13
ATOM     13  C6  non d ame      -7.919  10.124  67.509  0.00  0.00     0.086 C 
ATOM     14  H6  non d ame      -7.588  10.579  66.575  0.00  0.00     0.086 H 
BRANCH  13  15
ATOM     15  N2  non d ame      -7.160  10.761  68.573  0.00  0.00    -0.343 N 
ATOM     16  C5  non d ame      -6.344  11.939  68.273  0.00  0.00     0.273 C 
ATOM     17  O2  non d ame      -6.302  12.364  67.171  0.00  0.00    -0.266 OA
ATOM     18  H5  non d ame      -7.200  10.388  69.512  0.00  0.00     0.163 HD
BRANCH  16  19
ATOM     19  C4  non d ame      -5.538  12.622  69.388  0.00  0.00     0.154 A 
ATOM     20  C1  non d ame      -6.015  13.583  70.336  0.00  0.00    -0.017 A 
ATOM     21  C2  non d ame      -4.893  13.893  71.135  0.00  0.00     0.077 A 
ATOM     22  H1  non d ame      -7.021  13.991  70.429  0.00  0.00     0.091 H 
ATOM     23  O1  non d ame      -3.894  13.186  70.692  0.00  0.00    -0.218 OA
ATOM     24  N1  non d ame      -4.246  12.437  69.673  0.00  0.00    -0.123 NA
BRANCH  21  25
ATOM     25  C3  non d ame      -4.860  14.872  72.302  0.00  0.00    -0.029 C 
ATOM     26  H2  non d ame      -4.989  14.327  73.237  0.00  0.00     0.036 H 
ATOM     27  H3  non d ame      -3.903  15.392  72.313  0.00  0.00     0.036 H 
ATOM     28  H4  non d ame      -5.666  15.598  72.190  0.00  0.00     0.036 H 
ENDBRANCH  21  25
ENDBRANCH  16  19
ENDBRANCH  13  15
BRANCH  13  29
ATOM     29  C8  non d ame      -7.612   8.649  67.468  0.00  0.00    -0.049 C 
ATOM     30  H7  non d ame      -7.070   8.366  68.371  0.00  0.00     0.030 H 
ATOM     31  H8  non d ame      -8.542   8.085  67.411  0.00  0.00     0.030 H 
ATOM     32  H9  non d ame      -6.999   8.430  66.594  0.00  0.00     0.030 H 
ENDBRANCH  13  29
ENDBRANCH  10  13
ENDBRANCH   7   9
BRANCH   7  33
ATOM     33  C11 non d ame     -11.644  10.493  70.804  0.00  0.00    -0.033 C 
ATOM     34  H12 non d ame     -11.415  11.331  71.461  0.00  0.00     0.042 H 
BRANCH  33  35
ATOM     35  C12 non d ame     -13.161  10.165  70.972  0.00  0.00    -0.071 C 
ATOM     36  H13 non d ame     -13.535   9.699  70.061  0.00  0.00     0.028 H 
ATOM     37  H14 non d ame     -13.294   9.483  71.810  0.00  0.00     0.028 H 
ATOM     38  H15 non d ame     -13.711  11.086  71.161  0.00  0.00     0.028 H 
ENDBRANCH  33  35
BRANCH  33  39
ATOM     39  C13 non d ame     -10.753   9.284  71.234  0.00  0.00    -0.071 C 
ATOM     40  H16 non d ame      -9.776   9.366  70.760  0.00  0.00     0.028 H 
ATOM     41  H17 non d ame     -10.633   9.288  72.318  0.00  0.00     0.028 H 
ATOM     42  H18 non d ame     -11.230   8.353  70.926  0.00  0.00     0.028 H 
ENDBRANCH  33  39
ENDBRANCH   7  33
ENDBRANCH   4   7
ENDBRANCH   1   3
BRANCH   1  43
ATOM     43  C15 non d ame     -10.683  15.418  69.219  0.00  0.00     0.240 C 
ATOM     44  O5  non d ame      -9.590  15.644  69.626  0.00  0.00    -0.271 OA
ATOM     45  N6  non d ame     -11.032  15.751  67.808  0.00  0.00    -0.355 N 
ATOM     46  H46 non d ame     -11.956  15.559  67.449  0.00  0.00     0.162 HD
BRANCH  45  47
ATOM     47  C20 non d ame     -10.017  16.369  66.929  0.00  0.00     0.013 C 
ATOM     48  H30 non d ame      -9.038  16.212  67.383  0.00  0.00     0.072 H 
BRANCH  47  49
ATOM     49  C21 non d ame     -10.296  17.850  66.806  0.00  0.00    -0.038 C 
ATOM     50  H31 non d ame      -9.973  18.129  65.804  0.00  0.00     0.036 H 
ATOM     51  H32 non d ame     -11.338  17.979  67.099  0.00  0.00     0.036 H 
BRANCH  49  52
ATOM     52  C22 non d ame      -9.459  18.700  67.787  0.00  0.00     0.018 C 
ATOM     53  H33 non d ame     -10.041  19.605  67.965  0.00  0.00     0.048 H 
ATOM     54  H34 non d ame      -9.213  18.038  68.617  0.00  0.00     0.048 H 
BRANCH  52  55
ATOM     55  C23 non d ame      -8.099  19.175  67.201  0.00  0.00     0.259 C 
ATOM     56  O7  non d ame      -8.040  19.623  66.102  0.00  0.00    -0.265 OA
BRANCH  55  57
ATOM     57  O8  non d ame      -6.921  19.055  67.989  0.00  0.00    -0.317 OA
BRANCH  57  58
ATOM     58  C29 non d ame      -6.935  17.944  68.890  0.00  0.00     0.052 C 
ATOM     59  H47 non d ame      -7.014  18.374  69.888  0.00  0.00     0.082 H 
ATOM     60  H48 non d ame      -7.713  17.276  68.522  0.00  0.00     0.082 H 
BRANCH  58  61
ATOM     61  C35 non d ame      -5.569  17.216  68.773  0.00  0.00    -0.034 A 
ATOM     62  C30 non d ame      -5.382  16.235  67.805  0.00  0.00    -0.075 A 
ATOM     63  C31 non d ame      -4.154  15.582  67.701  0.00  0.00    -0.082 A 
ATOM     64  H49 non d ame      -6.196  15.978  67.128  0.00  0.00     0.084 H 
ATOM     65  C32 non d ame      -3.113  15.912  68.573  0.00  0.00    -0.083 A 
ATOM     66  H50 non d ame      -4.010  14.816  66.939  0.00  0.00     0.083 H 
ATOM     67  C33 non d ame      -3.305  16.889  69.540  0.00  0.00    -0.082 A 
ATOM     68  H51 non d ame      -2.150  15.406  68.497  0.00  0.00     0.083 H 
ATOM     69  C34 non d ame      -4.530  17.545  69.646  0.00  0.00    -0.075 A 
ATOM     70  H52 non d ame      -2.491  17.142  70.219  0.00  0.00     0.083 H 
ATOM     71  H53 non d ame      -4.672  18.313  70.407  0.00  0.00     0.084 H 
ENDBRANCH  58  61
ENDBRANCH  57  58
ENDBRANCH  55  57
ENDBRANCH  52  55
ENDBRANCH  49  52
ENDBRANCH  47  49
BRANCH  47  72
ATOM     72  C24 non d ame     -10.070  15.724  65.545  0.00  0.00    -0.039 C 
ATOM     73  H35 non d ame     -10.229  16.546  64.848  0.00  0.00     0.036 H 
ATOM     74  H36 non d ame      -9.168  15.116  65.473  0.00  0.00     0.036 H 
BRANCH  72  75
ATOM     75  C25 non d ame     -11.320  14.732  65.401  0.00  0.00    -0.001 C 
ATOM     76  C26 non d ame     -10.791  13.206  65.092  0.00  0.00    -0.035 C 
ATOM     77  C27 non d ame     -11.445  12.730  64.005  0.00  0.00     0.085 C 
ATOM     78  H38 non d ame      -9.750  13.229  64.773  0.00  0.00     0.036 H 
ATOM     79  H39 non d ame     -11.102  12.534  65.891  0.00  0.00     0.036 H 
ATOM     80  N5  non d ame     -12.129  13.906  63.351  0.00  0.00    -0.049 N 
ATOM     81  H40 non d ame     -10.667  12.355  63.339  0.00  0.00     0.075 H 
ATOM     82  H41 non d ame     -12.202  12.051  64.396  0.00  0.00     0.075 H 
ATOM     83  C28 non d ame     -12.100  15.099  64.439  0.00  0.00     0.193 C 
ATOM     84  H42 non d ame     -11.553  14.172  62.566  0.00  0.00     0.280 HD
ATOM     85  H43 non d ame     -13.090  13.632  63.202  0.00  0.00     0.280 HD
ATOM     86  H44 non d ame     -12.997  15.361  64.999  0.00  0.00     0.129 H 
ATOM     87  H37 non d ame     -12.038  14.854  66.212  0.00  0.00     0.046 H 
BRANCH  83  88
ATOM     88  O6  non d ame     -11.664  16.314  63.827  0.00  0.00    -0.369 OA
ATOM     89  H45 non d ame     -10.739  16.463  64.035  0.00  0.00     0.212 HD
ENDBRANCH  83  88
ENDBRANCH  72  75
ENDBRANCH  47  72
ENDBRANCH  45  47
ENDBRANCH   1  43
BRANCH   1  90
ATOM     90  C16 non d ame     -11.694  15.435  71.520  0.00  0.00    -0.035 C 
ATOM     91  H21 non d ame     -10.717  15.180  71.934  0.00  0.00     0.037 H 
ATOM     92  H22 non d ame     -11.954  16.477  71.340  0.00  0.00     0.037 H 
BRANCH  90  93
ATOM     93  C17 non d ame     -12.755  14.883  72.525  0.00  0.00    -0.059 C 
ATOM     94  H23 non d ame     -12.628  13.802  72.579  0.00  0.00     0.038 H 
BRANCH  93  95
ATOM     95  C18 non d ame     -12.561  15.459  73.964  0.00  0.00    -0.073 C 
ATOM     96  H24 non d ame     -11.983  16.382  73.910  0.00  0.00     0.028 H 
ATOM     97  H25 non d ame     -13.535  15.665  74.407  0.00  0.00     0.028 H 
ATOM     98  H26 non d ame     -12.029  14.731  74.577  0.00  0.00     0.028 H 
ENDBRANCH  93  95
BRANCH  93  99
ATOM     99  C19 non d ame     -14.177  15.147  72.020  0.00  0.00    -0.073 C 
ATOM    100  H27 non d ame     -14.873  14.481  72.530  0.00  0.00     0.028 H 
ATOM    101  H28 non d ame     -14.447  16.183  72.225  0.00  0.00     0.028 H 
ATOM    102  H29 non d ame     -14.220  14.967  70.946  0.00  0.00     0.028 H 
ENDBRANCH  93  99
ENDBRANCH  90  93
ENDBRANCH   1  90
TORSDOF 26
ENDMDL
MODEL 4
REMARK VINA RESULT:      -6.7      2.802      6.575
REMARK  26 active torsions:
REMARK  status: ('A' for Active; 'I' for Inactive)
REMARK    1  A    between atoms: C2_2  and  C3_3 
REMARK    2  A    between atoms: C4_6  and  C5_7 
REMARK       I    between atoms: C5_7  and  N2_9 
REMARK    3  A    between atoms: N2_9  and  C6_10 
REMARK    4  A    between atoms: C6_10  and  C7_11 
REMARK    5  A    between atoms: C6_10  and  C8_13 
REMARK       I    between atoms: C7_11  and  N3_14 
REMARK    6  A    between atoms: N3_14  and  C9_15 
REMARK    7  A    between atoms: C9_15  and  C10_16 
REMARK    8  A    between atoms: C9_15  and  C11_18 
REMARK       I    between atoms: C10_16  and  N4_21 
REMARK    9  A    between atoms: C11_18  and  C12_19 
REMARK   10  A    between atoms: C11_18  and  C13_20 
REMARK   11  A    between atoms: N4_21  and  C14_22 
REMARK   12  A    between atoms: C14_22  and  C15_23 
REMARK   13  A    between atoms: C14_22  and  C16_25 
REMARK       I    between atoms: C15_23  and  N6_40 
REMARK   14  A    between atoms: C16_25  and  C17_26 
REMARK   15  A    between atoms: C17_26  and  C18_27 
REMARK   16  A    between atoms: C17_26  and  C19_28 
REMARK   17  A    between atoms: C20_29  and  C21_30 
REMARK   18  A    between atoms: C20_29  and  C24_33 
REMARK   19  A    between atoms: C20_29  and  N6_40 
REMARK   20  A    between atoms: C21_30  and  C22_31 
REMARK   21  A    between atoms: C22_31  and  C23_32 
REMARK   22  A    between atoms: C23_32  and  O8_43 
REMARK   23  A    between atoms: C24_33  and  C25_34 
REMARK   24  A    between atoms: C28_38  and  O6_39 
REMARK   25  A    between atoms: C29_42  and  O8_43 
REMARK   26  A    between atoms: C29_42  and  C35_49 
ROOT
ATOM      1  C14 non d ame     -11.736  10.734  70.265  0.00  0.00     0.089 C 
ATOM      2  H20 non d ame     -10.905  10.349  70.859  0.00  0.00     0.087 H 
ENDROOT
BRANCH   1   3
ATOM      3  N4  non d ame     -11.732  12.183  70.394  0.00  0.00    -0.346 N 
ATOM      4  C10 non d ame     -12.609  12.860  71.419  0.00  0.00     0.241 C 
ATOM      5  O4  non d ame     -13.311  12.215  72.126  0.00  0.00    -0.271 OA
ATOM      6  H19 non d ame     -11.129  12.714  69.781  0.00  0.00     0.163 HD
BRANCH   4   7
ATOM      7  C9  non d ame     -12.589  14.360  71.542  0.00  0.00     0.092 C 
ATOM      8  H11 non d ame     -11.668  14.668  72.038  0.00  0.00     0.088 H 
BRANCH   7   9
ATOM      9  N3  non d ame     -12.581  14.961  70.204  0.00  0.00    -0.346 N 
ATOM     10  C7  non d ame     -11.345  15.433  69.633  0.00  0.00     0.240 C 
ATOM     11  O3  non d ame     -10.345  15.338  70.235  0.00  0.00    -0.271 OA
ATOM     12  H10 non d ame     -13.436  15.050  69.673  0.00  0.00     0.163 HD
BRANCH  10  13
ATOM     13  C6  non d ame     -11.344  16.074  68.210  0.00  0.00     0.086 C 
ATOM     14  H6  non d ame     -12.168  16.772  68.062  0.00  0.00     0.086 H 
BRANCH  13  15
ATOM     15  N2  non d ame     -10.118  16.835  68.037  0.00  0.00    -0.343 N 
ATOM     16  C5  non d ame     -10.193  18.256  67.688  0.00  0.00     0.273 C 
ATOM     17  O2  non d ame     -11.244  18.775  67.545  0.00  0.00    -0.266 OA
ATOM     18  H5  non d ame      -9.223  16.382  68.158  0.00  0.00     0.163 HD
BRANCH  16  19
ATOM     19  C4  non d ame      -8.904  19.072  67.503  0.00  0.00     0.154 A 
ATOM     20  C1  non d ame      -7.957  19.433  68.513  0.00  0.00    -0.017 A 
ATOM     21  C2  non d ame      -6.965  20.173  67.833  0.00  0.00     0.077 A 
ATOM     22  H1  non d ame      -7.984  19.194  69.576  0.00  0.00     0.091 H 
ATOM     23  O1  non d ame      -7.310  20.224  66.580  0.00  0.00    -0.218 OA
ATOM     24  N1  non d ame      -8.439  19.589  66.363  0.00  0.00    -0.123 NA
BRANCH  21  25
ATOM     25  C3  non d ame      -5.720  20.795  68.453  0.00  0.00    -0.029 C 
ATOM     26  H2  non d ame      -5.997  21.341  69.354  0.00  0.00     0.036 H 
ATOM     27  H3  non d ame      -5.010  20.009  68.707  0.00  0.00     0.036 H 
ATOM     28  H4  non d ame      -5.262  21.481  67.739  0.00  0.00     0.036 H 
ENDBRANCH  21  25
ENDBRANCH  16  19
ENDBRANCH  13  15
BRANCH  13  29
ATOM     29  C8  non d ame     -11.430  14.990  67.167  0.00  0.00    -0.049 C 
ATOM     30  H7  non d ame     -10.467  14.484  67.089  0.00  0.00     0.030 H 
ATOM     31  H8  non d ame     -12.196  14.270  67.452  0.00  0.00     0.030 H 
ATOM     32  H9  non d ame     -11.686  15.432  66.204  0.00  0.00     0.030 H 
ENDBRANCH  13  29
ENDBRANCH  10  13
ENDBRANCH   7   9
BRANCH   7  33
ATOM     33  C11 non d ame     -13.855  14.834  72.314  0.00  0.00    -0.033 C 
ATOM     34  H12 non d ame     -14.178  14.012  72.952  0.00  0.00     0.042 H 
BRANCH  33  35
ATOM     35  C12 non d ame     -13.535  16.049  73.239  0.00  0.00    -0.071 C 
ATOM     36  H13 non d ame     -13.049  16.832  72.657  0.00  0.00     0.028 H 
ATOM     37  H14 non d ame     -14.461  16.435  73.665  0.00  0.00     0.028 H 
ATOM     38  H15 non d ame     -12.871  15.728  74.041  0.00  0.00     0.028 H 
ENDBRANCH  33  35
BRANCH  33  39
ATOM     39  C13 non d ame     -15.020  15.166  71.326  0.00  0.00    -0.071 C 
ATOM     40  H16 non d ame     -15.615  14.271  71.153  0.00  0.00     0.028 H 
ATOM     41  H17 non d ame     -15.651  15.944  71.758  0.00  0.00     0.028 H 
ATOM     42  H18 non d ame     -14.606  15.518  70.381  0.00  0.00     0.028 H 
ENDBRANCH  33  39
ENDBRANCH   7  33
ENDBRANCH   4   7
ENDBRANCH   1   3
BRANCH   1  43
ATOM     43  C15 non d ame     -11.599  10.371  68.759  0.00  0.00     0.240 C 
ATOM     44  O5  non d ame     -12.103  11.064  67.936  0.00  0.00    -0.271 OA
ATOM     45  N6  non d ame     -10.830   9.163  68.342  0.00  0.00    -0.355 N 
ATOM     46  H46 non d ame     -10.394   8.570  69.032  0.00  0.00     0.162 HD
BRANCH  45  47
ATOM     47  C20 non d ame     -10.709   8.833  66.906  0.00  0.00     0.013 C 
ATOM     48  H30 non d ame     -11.696   8.928  66.454  0.00  0.00     0.072 H 
BRANCH  47  49
ATOM     49  C21 non d ame     -10.209   7.413  66.760  0.00  0.00    -0.038 C 
ATOM     50  H31 non d ame     -10.559   7.077  65.784  0.00  0.00     0.036 H 
ATOM     51  H32 non d ame      -9.141   7.453  66.972  0.00  0.00     0.036 H 
BRANCH  49  52
ATOM     52  C22 non d ame     -10.826   6.452  67.800  0.00  0.00     0.018 C 
ATOM     53  H33 non d ame     -10.725   6.953  68.762  0.00  0.00     0.048 H 
ATOM     54  H34 non d ame     -11.814   6.199  67.418  0.00  0.00     0.048 H 
BRANCH  52  55
ATOM     55  C23 non d ame     -10.062   5.105  67.937  0.00  0.00     0.259 C 
ATOM     56  O7  non d ame      -9.987   4.559  68.990  0.00  0.00    -0.265 OA
BRANCH  55  57
ATOM     57  O8  non d ame      -9.439   4.537  66.792  0.00  0.00    -0.317 OA
BRANCH  57  58
ATOM     58  C29 non d ame      -8.013   4.469  66.878  0.00  0.00     0.052 C 
ATOM     59  H47 non d ame      -7.734   5.144  67.687  0.00  0.00     0.082 H 
ATOM     60  H48 non d ame      -7.772   3.408  66.946  0.00  0.00     0.082 H 
BRANCH  58  61
ATOM     61  C35 non d ame      -7.426   5.021  65.552  0.00  0.00    -0.034 A 
ATOM     62  C30 non d ame      -6.057   5.236  65.431  0.00  0.00    -0.075 A 
ATOM     63  C31 non d ame      -5.531   5.732  64.239  0.00  0.00    -0.082 A 
ATOM     64  H49 non d ame      -5.396   5.014  66.269  0.00  0.00     0.084 H 
ATOM     65  C32 non d ame      -6.380   6.018  63.167  0.00  0.00    -0.083 A 
ATOM     66  H50 non d ame      -4.457   5.895  64.146  0.00  0.00     0.083 H 
ATOM     67  C33 non d ame      -7.746   5.806  63.293  0.00  0.00    -0.082 A 
ATOM     68  H51 non d ame      -5.976   6.405  62.231  0.00  0.00     0.083 H 
ATOM     69  C34 non d ame      -8.276   5.308  64.482  0.00  0.00    -0.075 A 
ATOM     70  H52 non d ame      -8.406   6.032  62.455  0.00  0.00     0.083 H 
ATOM     71  H53 non d ame      -9.350   5.143  64.573  0.00  0.00     0.084 H 
ENDBRANCH  58  61
ENDBRANCH  57  58
ENDBRANCH  55  57
ENDBRANCH  52  55
ENDBRANCH  49  52
ENDBRANCH  47  49
BRANCH  47  72
ATOM     72  C24 non d ame      -9.725   9.791  66.238  0.00  0.00    -0.039 C 
ATOM     73  H35 non d ame      -9.885  10.755  66.721  0.00  0.00     0.036 H 
ATOM     74  H36 non d ame      -8.752   9.303  66.306  0.00  0.00     0.036 H 
BRANCH  72  75
ATOM     75  C25 non d ame     -10.048   9.983  64.680  0.00  0.00    -0.001 C 
ATOM     76  C26 non d ame      -8.772   9.474  63.777  0.00  0.00    -0.035 C 
ATOM     77  C27 non d ame      -8.441  10.451  62.900  0.00  0.00     0.085 C 
ATOM     78  H38 non d ame      -7.885   9.381  64.402  0.00  0.00     0.036 H 
ATOM     79  H39 non d ame      -9.075   8.647  63.135  0.00  0.00     0.036 H 
ATOM     80  N5  non d ame      -9.160  11.703  63.342  0.00  0.00    -0.049 N 
ATOM     81  H40 non d ame      -7.367  10.598  63.018  0.00  0.00     0.075 H 
ATOM     82  H41 non d ame      -8.845  10.131  61.940  0.00  0.00     0.075 H 
ATOM     83  C28 non d ame     -10.281  11.222  64.399  0.00  0.00     0.193 C 
ATOM     84  H42 non d ame      -8.480  12.267  63.830  0.00  0.00     0.280 HD
ATOM     85  H43 non d ame      -9.627  12.069  62.525  0.00  0.00     0.280 HD
ATOM     86  H44 non d ame     -11.330  11.165  64.109  0.00  0.00     0.129 H 
ATOM     87  H37 non d ame     -11.031   9.595  64.413  0.00  0.00     0.046 H 
BRANCH  83  88
ATOM     88  O6  non d ame     -10.252  12.052  65.562  0.00  0.00    -0.369 OA
ATOM     89  H45 non d ame      -9.340  12.218  65.813  0.00  0.00     0.212 HD
ENDBRANCH  83  88
ENDBRANCH  72  75
ENDBRANCH  47  72
ENDBRANCH  45  47
ENDBRANCH   1  43
BRANCH   1  90
ATOM     90  C16 non d ame     -13.049  10.191  70.805  0.00  0.00    -0.035 C 
ATOM     91  H21 non d ame     -13.514  11.029  71.327  0.00  0.00     0.037 H 
ATOM     92  H22 non d ame     -13.548   9.739  69.948  0.00  0.00     0.037 H 
BRANCH  90  93
ATOM     93  C17 non d ame     -12.871   9.057  71.863  0.00  0.00    -0.059 C 
ATOM     94  H23 non d ame     -13.172   9.457  72.831  0.00  0.00     0.038 H 
BRANCH  93  95
ATOM     95  C18 non d ame     -13.775   7.820  71.558  0.00  0.00    -0.073 C 
ATOM     96  H24 non d ame     -14.546   7.735  72.325  0.00  0.00     0.028 H 
ATOM     97  H25 non d ame     -14.246   7.945  70.583  0.00  0.00     0.028 H 
ATOM     98  H26 non d ame     -13.165   6.916  71.554  0.00  0.00     0.028 H 
ENDBRANCH  93  95
BRANCH  93  99
ATOM     99  C19 non d ame     -11.402   8.642  71.980  0.00  0.00    -0.073 C 
ATOM    100  H27 non d ame     -11.342   7.577  72.210  0.00  0.00     0.028 H 
ATOM    101  H28 non d ame     -10.894   8.839  71.035  0.00  0.00     0.028 H 
ATOM    102  H29 non d ame     -10.924   9.214  72.774  0.00  0.00     0.028 H 
ENDBRANCH  93  99
ENDBRANCH  90  93
ENDBRANCH   1  90
TORSDOF 26
ENDMDL
MODEL 5
REMARK VINA RESULT:      -6.5      2.848      7.759
REMARK  26 active torsions:
REMARK  status: ('A' for Active; 'I' for Inactive)
REMARK    1  A    between atoms: C2_2  and  C3_3 
REMARK    2  A    between atoms: C4_6  and  C5_7 
REMARK       I    between atoms: C5_7  and  N2_9 
REMARK    3  A    between atoms: N2_9  and  C6_10 
REMARK    4  A    between atoms: C6_10  and  C7_11 
REMARK    5  A    between atoms: C6_10  and  C8_13 
REMARK       I    between atoms: C7_11  and  N3_14 
REMARK    6  A    between atoms: N3_14  and  C9_15 
REMARK    7  A    between atoms: C9_15  and  C10_16 
REMARK    8  A    between atoms: C9_15  and  C11_18 
REMARK       I    between atoms: C10_16  and  N4_21 
REMARK    9  A    between atoms: C11_18  and  C12_19 
REMARK   10  A    between atoms: C11_18  and  C13_20 
REMARK   11  A    between atoms: N4_21  and  C14_22 
REMARK   12  A    between atoms: C14_22  and  C15_23 
REMARK   13  A    between atoms: C14_22  and  C16_25 
REMARK       I    between atoms: C15_23  and  N6_40 
REMARK   14  A    between atoms: C16_25  and  C17_26 
REMARK   15  A    between atoms: C17_26  and  C18_27 
REMARK   16  A    between atoms: C17_26  and  C19_28 
REMARK   17  A    between atoms: C20_29  and  C21_30 
REMARK   18  A    between atoms: C20_29  and  C24_33 
REMARK   19  A    between atoms: C20_29  and  N6_40 
REMARK   20  A    between atoms: C21_30  and  C22_31 
REMARK   21  A    between atoms: C22_31  and  C23_32 
REMARK   22  A    between atoms: C23_32  and  O8_43 
REMARK   23  A    between atoms: C24_33  and  C25_34 
REMARK   24  A    between atoms: C28_38  and  O6_39 
REMARK   25  A    between atoms: C29_42  and  O8_43 
REMARK   26  A    between atoms: C29_42  and  C35_49 
ROOT
ATOM      1  C14 non d ame     -10.312  12.228  66.336  0.00  0.00     0.089 C 
ATOM      2  H20 non d ame      -9.779  12.023  65.407  0.00  0.00     0.087 H 
ENDROOT
BRANCH   1   3
ATOM      3  N4  non d ame     -10.126  11.079  67.210  0.00  0.00    -0.346 N 
ATOM      4  C10 non d ame     -10.031   9.689  66.631  0.00  0.00     0.241 C 
ATOM      5  O4  non d ame     -10.110   9.521  65.458  0.00  0.00    -0.271 OA
ATOM      6  H19 non d ame     -10.065  11.242  68.205  0.00  0.00     0.163 HD
BRANCH   4   7
ATOM      7  C9  non d ame      -9.835   8.511  67.548  0.00  0.00     0.092 C 
ATOM      8  H11 non d ame      -8.904   8.638  68.101  0.00  0.00     0.088 H 
BRANCH   7   9
ATOM      9  N3  non d ame     -10.920   8.472  68.533  0.00  0.00    -0.346 N 
ATOM     10  C7  non d ame     -10.770   9.145  69.799  0.00  0.00     0.240 C 
ATOM     11  O3  non d ame      -9.782   9.724  70.043  0.00  0.00    -0.271 OA
ATOM     12  H10 non d ame     -11.779   7.976  68.337  0.00  0.00     0.163 HD
BRANCH  10  13
ATOM     13  C6  non d ame     -11.928   9.097  70.844  0.00  0.00     0.086 C 
ATOM     14  H6  non d ame     -12.802   8.557  70.481  0.00  0.00     0.086 H 
BRANCH  13  15
ATOM     15  N2  non d ame     -11.466   8.391  72.028  0.00  0.00    -0.343 N 
ATOM     16  C5  non d ame     -11.287   6.938  71.978  0.00  0.00     0.273 C 
ATOM     17  O2  non d ame     -11.521   6.347  70.982  0.00  0.00    -0.266 OA
ATOM     18  H5  non d ame     -11.271   8.904  72.876  0.00  0.00     0.163 HD
BRANCH  16  19
ATOM     19  C4  non d ame     -10.798   6.180  73.221  0.00  0.00     0.154 A 
ATOM     20  C1  non d ame     -10.883   4.772  73.465  0.00  0.00    -0.017 A 
ATOM     21  C2  non d ame     -10.297   4.587  74.737  0.00  0.00     0.077 A 
ATOM     22  H1  non d ame     -11.305   4.003  72.818  0.00  0.00     0.091 H 
ATOM     23  O1  non d ame      -9.920   5.757  75.163  0.00  0.00    -0.218 OA
ATOM     24  N1  non d ame     -10.202   6.702  74.296  0.00  0.00    -0.123 NA
BRANCH  21  25
ATOM     25  C3  non d ame     -10.134   3.262  75.470  0.00  0.00    -0.029 C 
ATOM     26  H2  non d ame     -10.192   3.432  76.545  0.00  0.00     0.036 H 
ATOM     27  H3  non d ame     -10.927   2.579  75.167  0.00  0.00     0.036 H 
ATOM     28  H4  non d ame      -9.165   2.827  75.223  0.00  0.00     0.036 H 
ENDBRANCH  21  25
ENDBRANCH  16  19
ENDBRANCH  13  15
BRANCH  13  29
ATOM     29  C8  non d ame     -12.339  10.501  71.208  0.00  0.00    -0.049 C 
ATOM     30  H7  non d ame     -13.427  10.561  71.250  0.00  0.00     0.030 H 
ATOM     31  H8  non d ame     -11.923  10.762  72.181  0.00  0.00     0.030 H 
ATOM     32  H9  non d ame     -11.967  11.195  70.455  0.00  0.00     0.030 H 
ENDBRANCH  13  29
ENDBRANCH  10  13
ENDBRANCH   7   9
BRANCH   7  33
ATOM     33  C11 non d ame      -9.846   7.196  66.715  0.00  0.00    -0.033 C 
ATOM     34  H12 non d ame     -10.064   7.464  65.682  0.00  0.00     0.042 H 
BRANCH  33  35
ATOM     35  C12 non d ame      -8.449   6.499  66.735  0.00  0.00    -0.071 C 
ATOM     36  H13 non d ame      -8.001   6.556  65.743  0.00  0.00     0.028 H 
ATOM     37  H14 non d ame      -7.804   6.999  67.455  0.00  0.00     0.028 H 
ATOM     38  H15 non d ame      -8.571   5.454  67.018  0.00  0.00     0.028 H 
ENDBRANCH  33  35
BRANCH  33  39
ATOM     39  C13 non d ame     -10.968   6.229  67.212  0.00  0.00    -0.071 C 
ATOM     40  H16 non d ame     -11.171   5.484  66.443  0.00  0.00     0.028 H 
ATOM     41  H17 non d ame     -10.640   5.729  68.124  0.00  0.00     0.028 H 
ATOM     42  H18 non d ame     -11.874   6.798  67.416  0.00  0.00     0.028 H 
ENDBRANCH  33  39
ENDBRANCH   7  33
ENDBRANCH   4   7
ENDBRANCH   1   3
BRANCH   1  43
ATOM     43  C15 non d ame      -9.766  13.491  67.060  0.00  0.00     0.240 C 
ATOM     44  O5  non d ame     -10.030  13.678  68.203  0.00  0.00    -0.271 OA
ATOM     45  N6  non d ame      -8.906  14.465  66.329  0.00  0.00    -0.355 N 
ATOM     46  H46 non d ame      -8.671  14.315  65.359  0.00  0.00     0.162 HD
BRANCH  45  47
ATOM     47  C20 non d ame      -8.394  15.662  67.031  0.00  0.00     0.013 C 
ATOM     48  H30 non d ame      -8.819  15.670  68.035  0.00  0.00     0.072 H 
BRANCH  47  49
ATOM     49  C21 non d ame      -8.819  16.903  66.280  0.00  0.00    -0.038 C 
ATOM     50  H31 non d ame      -8.265  17.725  66.732  0.00  0.00     0.036 H 
ATOM     51  H32 non d ame      -8.683  16.670  65.224  0.00  0.00     0.036 H 
BRANCH  49  52
ATOM     52  C22 non d ame     -10.317  17.231  66.466  0.00  0.00     0.018 C 
ATOM     53  H33 non d ame     -10.504  18.114  65.853  0.00  0.00     0.048 H 
ATOM     54  H34 non d ame     -10.850  16.304  66.261  0.00  0.00     0.048 H 
BRANCH  52  55
ATOM     55  C23 non d ame     -10.695  17.631  67.919  0.00  0.00     0.259 C 
ATOM     56  O7  non d ame     -10.394  18.698  68.349  0.00  0.00    -0.265 OA
BRANCH  55  57
ATOM     57  O8  non d ame     -11.395  16.702  68.738  0.00  0.00    -0.317 OA
BRANCH  57  58
ATOM     58  C29 non d ame     -10.726  16.388  69.963  0.00  0.00     0.052 C 
ATOM     59  H47 non d ame      -9.975  15.643  69.706  0.00  0.00     0.082 H 
ATOM     60  H48 non d ame     -10.423  17.345  70.386  0.00  0.00     0.082 H 
BRANCH  58  61
ATOM     61  C35 non d ame     -11.761  15.735  70.919  0.00  0.00    -0.034 A 
ATOM     62  C30 non d ame     -11.932  16.233  72.206  0.00  0.00    -0.075 A 
ATOM     63  C31 non d ame     -12.861  15.646  73.064  0.00  0.00    -0.082 A 
ATOM     64  H49 non d ame     -11.340  17.084  72.543  0.00  0.00     0.084 H 
ATOM     65  C32 non d ame     -13.618  14.554  72.631  0.00  0.00    -0.083 A 
ATOM     66  H50 non d ame     -12.996  16.042  74.071  0.00  0.00     0.083 H 
ATOM     67  C33 non d ame     -13.441  14.058  71.346  0.00  0.00    -0.082 A 
ATOM     68  H51 non d ame     -14.347  14.090  73.295  0.00  0.00     0.083 H 
ATOM     69  C34 non d ame     -12.515  14.643  70.485  0.00  0.00    -0.075 A 
ATOM     70  H52 non d ame     -14.032  13.204  71.013  0.00  0.00     0.083 H 
ATOM     71  H53 non d ame     -12.383  14.248  69.477  0.00  0.00     0.084 H 
ENDBRANCH  58  61
ENDBRANCH  57  58
ENDBRANCH  55  57
ENDBRANCH  52  55
ENDBRANCH  49  52
ENDBRANCH  47  49
BRANCH  47  72
ATOM     72  C24 non d ame      -6.869  15.606  67.102  0.00  0.00    -0.039 C 
ATOM     73  H35 non d ame      -6.541  15.359  66.092  0.00  0.00     0.036 H 
ATOM     74  H36 non d ame      -6.565  16.548  67.558  0.00  0.00     0.036 H 
BRANCH  72  75
ATOM     75  C25 non d ame      -6.362  14.430  68.064  0.00  0.00    -0.001 C 
ATOM     76  C26 non d ame      -6.914  14.681  69.593  0.00  0.00    -0.035 C 
ATOM     77  C27 non d ame      -5.869  14.604  70.452  0.00  0.00     0.085 C 
ATOM     78  H38 non d ame      -7.258  15.709  69.702  0.00  0.00     0.036 H 
ATOM     79  H39 non d ame      -7.557  13.856  69.899  0.00  0.00     0.036 H 
ATOM     80  N5  non d ame      -4.610  14.649  69.619  0.00  0.00    -0.049 N 
ATOM     81  H40 non d ame      -5.925  15.507  71.061  0.00  0.00     0.075 H 
ATOM     82  H41 non d ame      -5.950  13.624  70.921  0.00  0.00     0.075 H 
ATOM     83  C28 non d ame      -5.073  14.374  68.098  0.00  0.00     0.193 C 
ATOM     84  H42 non d ame      -4.259  15.593  69.684  0.00  0.00     0.280 HD
ATOM     85  H43 non d ame      -4.037  13.875  69.925  0.00  0.00     0.280 HD
ATOM     86  H44 non d ame      -4.904  13.403  67.633  0.00  0.00     0.129 H 
ATOM     87  H37 non d ame      -6.530  13.443  67.633  0.00  0.00     0.046 H 
BRANCH  83  88
ATOM     88  O6  non d ame      -4.471  15.327  67.219  0.00  0.00    -0.369 OA
ATOM     89  H45 non d ame      -5.007  16.122  67.194  0.00  0.00     0.212 HD
ENDBRANCH  83  88
ENDBRANCH  72  75
ENDBRANCH  47  72
ENDBRANCH  45  47
ENDBRANCH   1  43
BRANCH   1  90
ATOM     90  C16 non d ame     -11.795  12.401  66.052  0.00  0.00    -0.035 C 
ATOM     91  H21 non d ame     -12.219  11.397  66.112  0.00  0.00     0.037 H 
ATOM     92  H22 non d ame     -12.132  13.176  66.740  0.00  0.00     0.037 H 
BRANCH  90  93
ATOM     93  C17 non d ame     -12.101  12.924  64.613  0.00  0.00    -0.059 C 
ATOM     94  H23 non d ame     -13.085  12.551  64.329  0.00  0.00     0.038 H 
BRANCH  93  95
ATOM     95  C18 non d ame     -12.145  14.484  64.549  0.00  0.00    -0.073 C 
ATOM     96  H24 non d ame     -11.764  14.896  65.483  0.00  0.00     0.028 H 
ATOM     97  H25 non d ame     -11.529  14.831  63.720  0.00  0.00     0.028 H 
ATOM     98  H26 non d ame     -13.174  14.812  64.400  0.00  0.00     0.028 H 
ENDBRANCH  93  95
BRANCH  93  99
ATOM     99  C19 non d ame     -11.095  12.366  63.602  0.00  0.00    -0.073 C 
ATOM    100  H27 non d ame     -10.565  13.191  63.125  0.00  0.00     0.028 H 
ATOM    101  H28 non d ame     -10.380  11.724  64.119  0.00  0.00     0.028 H 
ATOM    102  H29 non d ame     -11.623  11.785  62.846  0.00  0.00     0.028 H 
ENDBRANCH  93  99
ENDBRANCH  90  93
ENDBRANCH   1  90
TORSDOF 26
ENDMDL
MODEL 6
REMARK VINA RESULT:      -6.5      3.413      7.495
REMARK  26 active torsions:
REMARK  status: ('A' for Active; 'I' for Inactive)
REMARK    1  A    between atoms: C2_2  and  C3_3 
REMARK    2  A    between atoms: C4_6  and  C5_7 
REMARK       I    between atoms: C5_7  and  N2_9 
REMARK    3  A    between atoms: N2_9  and  C6_10 
REMARK    4  A    between atoms: C6_10  and  C7_11 
REMARK    5  A    between atoms: C6_10  and  C8_13 
REMARK       I    between atoms: C7_11  and  N3_14 
REMARK    6  A    between atoms: N3_14  and  C9_15 
REMARK    7  A    between atoms: C9_15  and  C10_16 
REMARK    8  A    between atoms: C9_15  and  C11_18 
REMARK       I    between atoms: C10_16  and  N4_21 
REMARK    9  A    between atoms: C11_18  and  C12_19 
REMARK   10  A    between atoms: C11_18  and  C13_20 
REMARK   11  A    between atoms: N4_21  and  C14_22 
REMARK   12  A    between atoms: C14_22  and  C15_23 
REMARK   13  A    between atoms: C14_22  and  C16_25 
REMARK       I    between atoms: C15_23  and  N6_40 
REMARK   14  A    between atoms: C16_25  and  C17_26 
REMARK   15  A    between atoms: C17_26  and  C18_27 
REMARK   16  A    between atoms: C17_26  and  C19_28 
REMARK   17  A    between atoms: C20_29  and  C21_30 
REMARK   18  A    between atoms: C20_29  and  C24_33 
REMARK   19  A    between atoms: C20_29  and  N6_40 
REMARK   20  A    between atoms: C21_30  and  C22_31 
REMARK   21  A    between atoms: C22_31  and  C23_32 
REMARK   22  A    between atoms: C23_32  and  O8_43 
REMARK   23  A    between atoms: C24_33  and  C25_34 
REMARK   24  A    between atoms: C28_38  and  O6_39 
REMARK   25  A    between atoms: C29_42  and  O8_43 
REMARK   26  A    between atoms: C29_42  and  C35_49 
ROOT
ATOM      1  C14 non d ame     -10.568  10.461  67.605  0.00  0.00     0.089 C 
ATOM      2  H20 non d ame      -9.527  10.538  67.921  0.00  0.00     0.087 H 
ENDROOT
BRANCH   1   3
ATOM      3  N4  non d ame     -11.182   9.393  68.379  0.00  0.00    -0.346 N 
ATOM      4  C10 non d ame     -10.703   9.092  69.777  0.00  0.00     0.241 C 
ATOM      5  O4  non d ame      -9.820   9.723  70.257  0.00  0.00    -0.271 OA
ATOM      6  H19 non d ame     -11.931   8.865  67.952  0.00  0.00     0.163 HD
BRANCH   4   7
ATOM      7  C9  non d ame     -11.354   7.986  70.566  0.00  0.00     0.092 C 
ATOM      8  H11 non d ame     -12.315   7.741  70.115  0.00  0.00     0.088 H 
BRANCH   7   9
ATOM      9  N3  non d ame     -10.522   6.780  70.495  0.00  0.00    -0.346 N 
ATOM     10  C7  non d ame     -10.625   5.900  69.358  0.00  0.00     0.240 C 
ATOM     11  O3  non d ame     -11.373   6.144  68.491  0.00  0.00    -0.271 OA
ATOM     12  H10 non d ame      -9.873   6.556  71.236  0.00  0.00     0.163 HD
BRANCH  10  13
ATOM     13  C6  non d ame      -9.740   4.617  69.290  0.00  0.00     0.086 C 
ATOM     14  H6  non d ame     -10.246   3.779  68.810  0.00  0.00     0.086 H 
BRANCH  13  15
ATOM     15  N2  non d ame      -8.558   4.901  68.492  0.00  0.00    -0.343 N 
ATOM     16  C5  non d ame      -8.488   4.421  67.110  0.00  0.00     0.273 C 
ATOM     17  O2  non d ame      -9.386   3.804  66.651  0.00  0.00    -0.266 OA
ATOM     18  H5  non d ame      -7.795   5.427  68.893  0.00  0.00     0.163 HD
BRANCH  16  19
ATOM     19  C4  non d ame      -7.246   4.716  66.255  0.00  0.00     0.154 A 
ATOM     20  C1  non d ame      -5.914   4.239  66.471  0.00  0.00    -0.017 A 
ATOM     21  C2  non d ame      -5.155   4.791  65.415  0.00  0.00     0.077 A 
ATOM     22  H1  non d ame      -5.554   3.592  67.270  0.00  0.00     0.091 H 
ATOM     23  O1  non d ame      -5.965   5.498  64.683  0.00  0.00    -0.218 OA
ATOM     24  N1  non d ame      -7.192   5.469  65.153  0.00  0.00    -0.123 NA
BRANCH  21  25
ATOM     25  C3  non d ame      -3.664   4.592  65.178  0.00  0.00    -0.029 C 
ATOM     26  H2  non d ame      -3.122   4.755  66.110  0.00  0.00     0.036 H 
ATOM     27  H3  non d ame      -3.484   3.577  64.826  0.00  0.00     0.036 H 
ATOM     28  H4  non d ame      -3.317   5.304  64.427  0.00  0.00     0.036 H 
ENDBRANCH  21  25
ENDBRANCH  16  19
ENDBRANCH  13  15
BRANCH  13  29
ATOM     29  C8  non d ame      -9.335   4.207  70.683  0.00  0.00    -0.049 C 
ATOM     30  H7  non d ame     -10.197   4.275  71.347  0.00  0.00     0.030 H 
ATOM     31  H8  non d ame      -8.967   3.182  70.669  0.00  0.00     0.030 H 
ATOM     32  H9  non d ame      -8.548   4.871  71.042  0.00  0.00     0.030 H 
ENDBRANCH  13  29
ENDBRANCH  10  13
ENDBRANCH   7   9
BRANCH   7  33
ATOM     33  C11 non d ame     -11.500   8.426  72.052  0.00  0.00    -0.033 C 
ATOM     34  H12 non d ame     -10.940   9.352  72.178  0.00  0.00     0.042 H 
BRANCH  33  35
ATOM     35  C12 non d ame     -12.989   8.724  72.413  0.00  0.00    -0.071 C 
ATOM     36  H13 non d ame     -13.102   9.784  72.643  0.00  0.00     0.028 H 
ATOM     37  H14 non d ame     -13.626   8.466  71.568  0.00  0.00     0.028 H 
ATOM     38  H15 non d ame     -13.276   8.132  73.280  0.00  0.00     0.028 H 
ENDBRANCH  33  35
BRANCH  33  39
ATOM     39  C13 non d ame     -10.888   7.357  73.014  0.00  0.00    -0.071 C 
ATOM     40  H16 non d ame     -10.595   7.834  73.948  0.00  0.00     0.028 H 
ATOM     41  H17 non d ame     -11.631   6.584  73.218  0.00  0.00     0.028 H 
ATOM     42  H18 non d ame     -10.014   6.905  72.547  0.00  0.00     0.028 H 
ENDBRANCH  33  39
ENDBRANCH   7  33
ENDBRANCH   4   7
ENDBRANCH   1   3
BRANCH   1  43
ATOM     43  C15 non d ame     -11.359  11.775  67.862  0.00  0.00     0.240 C 
ATOM     44  O5  non d ame     -12.127  12.173  67.048  0.00  0.00    -0.271 OA
ATOM     45  N6  non d ame     -11.165  12.534  69.131  0.00  0.00    -0.355 N 
ATOM     46  H46 non d ame     -10.519  12.204  69.833  0.00  0.00     0.162 HD
BRANCH  45  47
ATOM     47  C20 non d ame     -11.925  13.782  69.362  0.00  0.00     0.013 C 
ATOM     48  H30 non d ame     -12.797  13.770  68.708  0.00  0.00     0.072 H 
BRANCH  47  49
ATOM     49  C21 non d ame     -11.050  14.969  69.032  0.00  0.00    -0.038 C 
ATOM     50  H31 non d ame     -11.181  15.145  67.965  0.00  0.00     0.036 H 
ATOM     51  H32 non d ame     -11.321  15.744  69.751  0.00  0.00     0.036 H 
BRANCH  49  52
ATOM     52  C22 non d ame      -9.547  14.683  69.246  0.00  0.00     0.018 C 
ATOM     53  H33 non d ame      -9.150  15.558  69.761  0.00  0.00     0.048 H 
ATOM     54  H34 non d ame      -9.497  13.703  69.719  0.00  0.00     0.048 H 
BRANCH  52  55
ATOM     55  C23 non d ame      -8.739  14.562  67.924  0.00  0.00     0.259 C 
ATOM     56  O7  non d ame      -8.721  13.539  67.320  0.00  0.00    -0.265 OA
BRANCH  55  57
ATOM     57  O8  non d ame      -8.007  15.686  67.449  0.00  0.00    -0.317 OA
BRANCH  57  58
ATOM     58  C29 non d ame      -8.637  16.374  66.364  0.00  0.00     0.052 C 
ATOM     59  H47 non d ame      -7.843  16.585  65.648  0.00  0.00     0.082 H 
ATOM     60  H48 non d ame      -9.482  15.751  66.072  0.00  0.00     0.082 H 
BRANCH  58  61
ATOM     61  C35 non d ame      -9.183  17.722  66.904  0.00  0.00    -0.034 A 
ATOM     62  C30 non d ame      -8.766  18.198  68.143  0.00  0.00    -0.075 A 
ATOM     63  C31 non d ame      -9.257  19.409  68.628  0.00  0.00    -0.082 A 
ATOM     64  H49 non d ame      -8.053  17.622  68.733  0.00  0.00     0.084 H 
ATOM     65  C32 non d ame     -10.173  20.144  67.870  0.00  0.00    -0.083 A 
ATOM     66  H50 non d ame      -8.925  19.780  69.598  0.00  0.00     0.083 H 
ATOM     67  C33 non d ame     -10.590  19.664  66.636  0.00  0.00    -0.082 A 
ATOM     68  H51 non d ame     -10.561  21.092  68.242  0.00  0.00     0.083 H 
ATOM     69  C34 non d ame     -10.099  18.455  66.147  0.00  0.00    -0.075 A 
ATOM     70  H52 non d ame     -11.306  20.239  66.048  0.00  0.00     0.083 H 
ATOM     71  H53 non d ame     -10.431  18.085  65.175  0.00  0.00     0.084 H 
ENDBRANCH  58  61
ENDBRANCH  57  58
ENDBRANCH  55  57
ENDBRANCH  52  55
ENDBRANCH  49  52
ENDBRANCH  47  49
BRANCH  47  72
ATOM     72  C24 non d ame     -12.360  13.858  70.824  0.00  0.00    -0.039 C 
ATOM     73  H35 non d ame     -13.258  13.243  70.892  0.00  0.00     0.036 H 
ATOM     74  H36 non d ame     -11.475  13.595  71.404  0.00  0.00     0.036 H 
BRANCH  72  75
ATOM     75  C25 non d ame     -12.775  15.348  71.243  0.00  0.00    -0.001 C 
ATOM     76  C26 non d ame     -11.684  15.951  72.316  0.00  0.00    -0.035 C 
ATOM     77  C27 non d ame     -12.352  16.434  73.391  0.00  0.00     0.085 C 
ATOM     78  H38 non d ame     -11.082  15.143  72.732  0.00  0.00     0.036 H 
ATOM     79  H39 non d ame     -11.199  16.833  71.900  0.00  0.00     0.036 H 
ATOM     80  N5  non d ame     -13.769  15.921  73.297  0.00  0.00    -0.049 N 
ATOM     81  H40 non d ame     -11.869  15.985  74.260  0.00  0.00     0.075 H 
ATOM     82  H41 non d ame     -12.358  17.516  73.268  0.00  0.00     0.075 H 
ATOM     83  C28 non d ame     -13.944  15.372  71.789  0.00  0.00     0.193 C 
ATOM     84  H42 non d ame     -13.833  15.140  73.933  0.00  0.00     0.280 HD
ATOM     85  H43 non d ame     -14.372  16.722  73.419  0.00  0.00     0.280 HD
ATOM     86  H44 non d ame     -14.497  15.951  71.049  0.00  0.00     0.129 H 
ATOM     87  H37 non d ame     -13.015  15.967  70.379  0.00  0.00     0.046 H 
BRANCH  83  88
ATOM     88  O6  non d ame     -14.560  14.083  71.801  0.00  0.00    -0.369 OA
ATOM     89  H45 non d ame     -14.710  13.809  72.709  0.00  0.00     0.212 HD
ENDBRANCH  83  88
ENDBRANCH  72  75
ENDBRANCH  47  72
ENDBRANCH  45  47
ENDBRANCH   1  43
BRANCH   1  90
ATOM     90  C16 non d ame     -10.633  10.105  66.129  0.00  0.00    -0.035 C 
ATOM     91  H21 non d ame     -10.714   9.018  66.097  0.00  0.00     0.037 H 
ATOM     92  H22 non d ame     -11.432  10.722  65.718  0.00  0.00     0.037 H 
BRANCH  90  93
ATOM     93  C17 non d ame      -9.339  10.475  65.337  0.00  0.00    -0.059 C 
ATOM     94  H23 non d ame      -9.378  11.542  65.119  0.00  0.00     0.038 H 
BRANCH  93  95
ATOM     95  C18 non d ame      -8.043  10.205  66.166  0.00  0.00    -0.073 C 
ATOM     96  H24 non d ame      -8.102   9.215  66.619  0.00  0.00     0.028 H 
ATOM     97  H25 non d ame      -7.175  10.252  65.508  0.00  0.00     0.028 H 
ATOM     98  H26 non d ame      -7.949  10.958  66.948  0.00  0.00     0.028 H 
ENDBRANCH  93  95
BRANCH  93  99
ATOM     99  C19 non d ame      -9.290   9.739  63.994  0.00  0.00    -0.073 C 
ATOM    100  H27 non d ame      -8.691   8.834  64.098  0.00  0.00     0.028 H 
ATOM    101  H28 non d ame     -10.303   9.474  63.690  0.00  0.00     0.028 H 
ATOM    102  H29 non d ame      -8.843  10.388  63.241  0.00  0.00     0.028 H 
ENDBRANCH  93  99
ENDBRANCH  90  93
ENDBRANCH   1  90
TORSDOF 26
ENDMDL
MODEL 7
REMARK VINA RESULT:      -6.5      3.167      8.586
REMARK  26 active torsions:
REMARK  status: ('A' for Active; 'I' for Inactive)
REMARK    1  A    between atoms: C2_2  and  C3_3 
REMARK    2  A    between atoms: C4_6  and  C5_7 
REMARK       I    between atoms: C5_7  and  N2_9 
REMARK    3  A    between atoms: N2_9  and  C6_10 
REMARK    4  A    between atoms: C6_10  and  C7_11 
REMARK    5  A    between atoms: C6_10  and  C8_13 
REMARK       I    between atoms: C7_11  and  N3_14 
REMARK    6  A    between atoms: N3_14  and  C9_15 
REMARK    7  A    between atoms: C9_15  and  C10_16 
REMARK    8  A    between atoms: C9_15  and  C11_18 
REMARK       I    between atoms: C10_16  and  N4_21 
REMARK    9  A    between atoms: C11_18  and  C12_19 
REMARK   10  A    between atoms: C11_18  and  C13_20 
REMARK   11  A    between atoms: N4_21  and  C14_22 
REMARK   12  A    between atoms: C14_22  and  C15_23 
REMARK   13  A    between atoms: C14_22  and  C16_25 
REMARK       I    between atoms: C15_23  and  N6_40 
REMARK   14  A    between atoms: C16_25  and  C17_26 
REMARK   15  A    between atoms: C17_26  and  C18_27 
REMARK   16  A    between atoms: C17_26  and  C19_28 
REMARK   17  A    between atoms: C20_29  and  C21_30 
REMARK   18  A    between atoms: C20_29  and  C24_33 
REMARK   19  A    between atoms: C20_29  and  N6_40 
REMARK   20  A    between atoms: C21_30  and  C22_31 
REMARK   21  A    between atoms: C22_31  and  C23_32 
REMARK   22  A    between atoms: C23_32  and  O8_43 
REMARK   23  A    between atoms: C24_33  and  C25_34 
REMARK   24  A    between atoms: C28_38  and  O6_39 
REMARK   25  A    between atoms: C29_42  and  O8_43 
REMARK   26  A    between atoms: C29_42  and  C35_49 
ROOT
ATOM      1  C14 non d ame      -7.605   9.300  66.613  0.00  0.00     0.089 C 
ATOM      2  H20 non d ame      -7.888   8.525  65.898  0.00  0.00     0.087 H 
ENDROOT
BRANCH   1   3
ATOM      3  N4  non d ame      -8.389  10.487  66.305  0.00  0.00    -0.346 N 
ATOM      4  C10 non d ame      -9.822  10.357  65.853  0.00  0.00     0.241 C 
ATOM      5  O4  non d ame     -10.322   9.286  65.742  0.00  0.00    -0.271 OA
ATOM      6  H19 non d ame      -7.945  11.389  66.403  0.00  0.00     0.163 HD
BRANCH   4   7
ATOM      7  C9  non d ame     -10.620  11.596  65.543  0.00  0.00     0.092 C 
ATOM      8  H11 non d ame     -11.640  11.467  65.907  0.00  0.00     0.088 H 
BRANCH   7   9
ATOM      9  N3  non d ame     -10.047  12.739  66.261  0.00  0.00    -0.346 N 
ATOM     10  C7  non d ame     -10.647  13.192  67.491  0.00  0.00     0.240 C 
ATOM     11  O3  non d ame     -11.592  12.650  67.919  0.00  0.00    -0.271 OA
ATOM     12  H10 non d ame      -9.232  13.218  65.904  0.00  0.00     0.163 HD
BRANCH  10  13
ATOM     13  C6  non d ame     -10.034  14.411  68.249  0.00  0.00     0.086 C 
ATOM     14  H6  non d ame     -10.232  15.360  67.751  0.00  0.00     0.086 H 
BRANCH  13  15
ATOM     15  N2  non d ame     -10.639  14.499  69.568  0.00  0.00    -0.343 N 
ATOM     16  C5  non d ame     -11.712  15.467  69.807  0.00  0.00     0.273 C 
ATOM     17  O2  non d ame     -12.078  16.172  68.933  0.00  0.00    -0.266 OA
ATOM     18  H5  non d ame     -10.317  13.894  70.310  0.00  0.00     0.163 HD
BRANCH  16  19
ATOM     19  C4  non d ame     -12.360  15.569  71.196  0.00  0.00     0.154 A 
ATOM     20  C1  non d ame     -11.693  15.699  72.455  0.00  0.00    -0.017 A 
ATOM     21  C2  non d ame     -12.730  15.753  73.413  0.00  0.00     0.077 A 
ATOM     22  H1  non d ame     -10.620  15.747  72.645  0.00  0.00     0.091 H 
ATOM     23  O1  non d ame     -13.857  15.666  72.769  0.00  0.00    -0.218 OA
ATOM     24  N1  non d ame     -13.667  15.558  71.474  0.00  0.00    -0.123 NA
BRANCH  21  25
ATOM     25  C3  non d ame     -12.559  15.890  74.920  0.00  0.00    -0.029 C 
ATOM     26  H2  non d ame     -13.538  15.883  75.399  0.00  0.00     0.036 H 
ATOM     27  H3  non d ame     -11.965  15.058  75.295  0.00  0.00     0.036 H 
ATOM     28  H4  non d ame     -12.051  16.829  75.144  0.00  0.00     0.036 H 
ENDBRANCH  21  25
ENDBRANCH  16  19
ENDBRANCH  13  15
BRANCH  13  29
ATOM     29  C8  non d ame      -8.543  14.229  68.376  0.00  0.00    -0.049 C 
ATOM     30  H7  non d ame      -8.052  14.623  67.485  0.00  0.00     0.030 H 
ATOM     31  H8  non d ame      -8.184  14.764  69.255  0.00  0.00     0.030 H 
ATOM     32  H9  non d ame      -8.314  13.168  68.477  0.00  0.00     0.030 H 
ENDBRANCH  13  29
ENDBRANCH  10  13
ENDBRANCH   7   9
BRANCH   7  33
ATOM     33  C11 non d ame     -10.575  11.873  64.012  0.00  0.00    -0.033 C 
ATOM     34  H12 non d ame     -10.172  12.875  63.870  0.00  0.00     0.042 H 
BRANCH  33  35
ATOM     35  C12 non d ame      -9.622  10.876  63.282  0.00  0.00    -0.071 C 
ATOM     36  H13 non d ame      -8.740  10.700  63.897  0.00  0.00     0.028 H 
ATOM     37  H14 non d ame     -10.142   9.933  63.115  0.00  0.00     0.028 H 
ATOM     38  H15 non d ame      -9.319  11.299  62.325  0.00  0.00     0.028 H 
ENDBRANCH  33  35
BRANCH  33  39
ATOM     39  C13 non d ame     -12.010  11.838  63.395  0.00  0.00    -0.071 C 
ATOM     40  H16 non d ame     -11.946  11.570  62.341  0.00  0.00     0.028 H 
ATOM     41  H17 non d ame     -12.615  11.098  63.922  0.00  0.00     0.028 H 
ATOM     42  H18 non d ame     -12.472  12.820  63.493  0.00  0.00     0.028 H 
ENDBRANCH  33  39
ENDBRANCH   7  33
ENDBRANCH   4   7
ENDBRANCH   1   3
BRANCH   1  43
ATOM     43  C15 non d ame      -7.899   8.880  68.081  0.00  0.00     0.240 C 
ATOM     44  O5  non d ame      -7.131   9.163  68.942  0.00  0.00    -0.271 OA
ATOM     45  N6  non d ame      -9.146   8.133  68.416  0.00  0.00    -0.355 N 
ATOM     46  H46 non d ame      -9.808   7.892  67.693  0.00  0.00     0.162 HD
BRANCH  45  47
ATOM     47  C20 non d ame      -9.412   7.743  69.817  0.00  0.00     0.013 C 
ATOM     48  H30 non d ame      -8.615   8.153  70.437  0.00  0.00     0.072 H 
BRANCH  47  49
ATOM     49  C21 non d ame      -9.423   6.234  69.922  0.00  0.00    -0.038 C 
ATOM     50  H31 non d ame      -8.421   5.912  69.641  0.00  0.00     0.036 H 
ATOM     51  H32 non d ame      -9.809   6.012  70.917  0.00  0.00     0.036 H 
BRANCH  49  52
ATOM     52  C22 non d ame     -10.392   5.571  68.919  0.00  0.00     0.018 C 
ATOM     53  H33 non d ame     -10.981   4.862  69.502  0.00  0.00     0.048 H 
ATOM     54  H34 non d ame     -10.886   6.391  68.399  0.00  0.00     0.048 H 
BRANCH  52  55
ATOM     55  C23 non d ame      -9.680   4.734  67.820  0.00  0.00     0.259 C 
ATOM     56  O7  non d ame      -9.756   3.548  67.821  0.00  0.00    -0.265 OA
BRANCH  55  57
ATOM     57  O8  non d ame      -8.922   5.401  66.818  0.00  0.00    -0.317 OA
BRANCH  57  58
ATOM     58  C29 non d ame      -7.507   5.246  66.959  0.00  0.00     0.052 C 
ATOM     59  H47 non d ame      -7.190   6.036  67.638  0.00  0.00     0.082 H 
ATOM     60  H48 non d ame      -7.351   4.202  67.227  0.00  0.00     0.082 H 
BRANCH  58  61
ATOM     61  C35 non d ame      -6.858   5.499  65.572  0.00  0.00    -0.034 A 
ATOM     62  C30 non d ame      -5.493   5.298  65.394  0.00  0.00    -0.075 A 
ATOM     63  C31 non d ame      -4.910   5.525  64.148  0.00  0.00    -0.082 A 
ATOM     64  H49 non d ame      -4.880   4.961  66.230  0.00  0.00     0.084 H 
ATOM     65  C32 non d ame      -5.697   5.960  63.078  0.00  0.00    -0.083 A 
ATOM     66  H50 non d ame      -3.841   5.363  64.011  0.00  0.00     0.083 H 
ATOM     67  C33 non d ame      -7.059   6.163  63.261  0.00  0.00    -0.082 A 
ATOM     68  H51 non d ame      -5.250   6.139  62.101  0.00  0.00     0.083 H 
ATOM     69  C34 non d ame      -7.645   5.935  64.505  0.00  0.00    -0.075 A 
ATOM     70  H52 non d ame      -7.670   6.504  62.425  0.00  0.00     0.083 H 
ATOM     71  H53 non d ame      -8.716   6.096  64.640  0.00  0.00     0.084 H 
ENDBRANCH  58  61
ENDBRANCH  57  58
ENDBRANCH  55  57
ENDBRANCH  52  55
ENDBRANCH  49  52
ENDBRANCH  47  49
BRANCH  47  72
ATOM     72  C24 non d ame     -10.766   8.295  70.258  0.00  0.00    -0.039 C 
ATOM     73  H35 non d ame     -10.893   9.226  69.705  0.00  0.00     0.036 H 
ATOM     74  H36 non d ame     -11.473   7.477  70.116  0.00  0.00     0.036 H 
BRANCH  72  75
ATOM     75  C25 non d ame     -10.777   8.665  71.816  0.00  0.00    -0.001 C 
ATOM     76  C26 non d ame      -9.297   8.373  72.471  0.00  0.00    -0.035 C 
ATOM     77  C27 non d ame      -9.454   7.610  73.580  0.00  0.00     0.085 C 
ATOM     78  H38 non d ame      -8.712   7.739  71.806  0.00  0.00     0.036 H 
ATOM     79  H39 non d ame      -8.869   9.298  72.857  0.00  0.00     0.036 H 
ATOM     80  N5  non d ame     -10.869   7.083  73.556  0.00  0.00    -0.049 N 
ATOM     81  H40 non d ame      -8.762   6.775  73.459  0.00  0.00     0.075 H 
ATOM     82  H41 non d ame      -9.343   8.293  74.421  0.00  0.00     0.075 H 
ATOM     83  C28 non d ame     -11.654   7.968  72.458  0.00  0.00     0.193 C 
ATOM     84  H42 non d ame     -10.814   6.132  73.224  0.00  0.00     0.280 HD
ATOM     85  H43 non d ame     -11.262   7.279  74.466  0.00  0.00     0.280 HD
ATOM     86  H44 non d ame     -12.344   8.752  72.767  0.00  0.00     0.129 H 
ATOM     87  H37 non d ame     -11.218   9.644  72.004  0.00  0.00     0.046 H 
BRANCH  83  88
ATOM     88  O6  non d ame     -12.407   7.120  71.588  0.00  0.00    -0.369 OA
ATOM     89  H45 non d ame     -12.185   6.202  71.766  0.00  0.00     0.212 HD
ENDBRANCH  83  88
ENDBRANCH  72  75
ENDBRANCH  47  72
ENDBRANCH  45  47
ENDBRANCH   1  43
BRANCH   1  90
ATOM     90  C16 non d ame      -6.129   9.626  66.460  0.00  0.00    -0.035 C 
ATOM     91  H21 non d ame      -6.080  10.714  66.389  0.00  0.00     0.037 H 
ATOM     92  H22 non d ame      -5.633   9.112  67.283  0.00  0.00     0.037 H 
BRANCH  90  93
ATOM     93  C17 non d ame      -5.496   9.070  65.145  0.00  0.00    -0.059 C 
ATOM     94  H23 non d ame      -5.956   8.103  64.941  0.00  0.00     0.038 H 
BRANCH  93  95
ATOM     95  C18 non d ame      -5.772   9.998  63.919  0.00  0.00    -0.073 C 
ATOM     96  H24 non d ame      -5.091   9.740  63.108  0.00  0.00     0.028 H 
ATOM     97  H25 non d ame      -6.801   9.862  63.586  0.00  0.00     0.028 H 
ATOM     98  H26 non d ame      -5.617  11.037  64.208  0.00  0.00     0.028 H 
ENDBRANCH  93  95
BRANCH  93  99
ATOM     99  C19 non d ame      -3.993   8.831  65.319  0.00  0.00    -0.073 C 
ATOM    100  H27 non d ame      -3.462   9.778  65.225  0.00  0.00     0.028 H 
ATOM    101  H28 non d ame      -3.807   8.404  66.305  0.00  0.00     0.028 H 
ATOM    102  H29 non d ame      -3.644   8.138  64.553  0.00  0.00     0.028 H 
ENDBRANCH  93  99
ENDBRANCH  90  93
ENDBRANCH   1  90
TORSDOF 26
ENDMDL
MODEL 8
REMARK VINA RESULT:      -6.4      3.025      7.682
REMARK  26 active torsions:
REMARK  status: ('A' for Active; 'I' for Inactive)
REMARK    1  A    between atoms: C2_2  and  C3_3 
REMARK    2  A    between atoms: C4_6  and  C5_7 
REMARK       I    between atoms: C5_7  and  N2_9 
REMARK    3  A    between atoms: N2_9  and  C6_10 
REMARK    4  A    between atoms: C6_10  and  C7_11 
REMARK    5  A    between atoms: C6_10  and  C8_13 
REMARK       I    between atoms: C7_11  and  N3_14 
REMARK    6  A    between atoms: N3_14  and  C9_15 
REMARK    7  A    between atoms: C9_15  and  C10_16 
REMARK    8  A    between atoms: C9_15  and  C11_18 
REMARK       I    between atoms: C10_16  and  N4_21 
REMARK    9  A    between atoms: C11_18  and  C12_19 
REMARK   10  A    between atoms: C11_18  and  C13_20 
REMARK   11  A    between atoms: N4_21  and  C14_22 
REMARK   12  A    between atoms: C14_22  and  C15_23 
REMARK   13  A    between atoms: C14_22  and  C16_25 
REMARK       I    between atoms: C15_23  and  N6_40 
REMARK   14  A    between atoms: C16_25  and  C17_26 
REMARK   15  A    between atoms: C17_26  and  C18_27 
REMARK   16  A    between atoms: C17_26  and  C19_28 
REMARK   17  A    between atoms: C20_29  and  C21_30 
REMARK   18  A    between atoms: C20_29  and  C24_33 
REMARK   19  A    between atoms: C20_29  and  N6_40 
REMARK   20  A    between atoms: C21_30  and  C22_31 
REMARK   21  A    between atoms: C22_31  and  C23_32 
REMARK   22  A    between atoms: C23_32  and  O8_43 
REMARK   23  A    between atoms: C24_33  and  C25_34 
REMARK   24  A    between atoms: C28_38  and  O6_39 
REMARK   25  A    between atoms: C29_42  and  O8_43 
REMARK   26  A    between atoms: C29_42  and  C35_49 
ROOT
ATOM      1  C14 non d ame      -9.955   9.442  66.786  0.00  0.00     0.089 C 
ATOM      2  H20 non d ame     -11.036   9.302  66.727  0.00  0.00     0.087 H 
ENDROOT
BRANCH   1   3
ATOM      3  N4  non d ame      -9.686  10.859  66.593  0.00  0.00    -0.346 N 
ATOM      4  C10 non d ame     -10.778  11.878  66.804  0.00  0.00     0.241 C 
ATOM      5  O4  non d ame     -11.867  11.532  67.127  0.00  0.00    -0.271 OA
ATOM      6  H19 non d ame      -8.754  11.133  66.315  0.00  0.00     0.163 HD
BRANCH   4   7
ATOM      7  C9  non d ame     -10.481  13.341  66.604  0.00  0.00     0.092 C 
ATOM      8  H11 non d ame     -10.869  13.905  67.452  0.00  0.00     0.088 H 
BRANCH   7   9
ATOM      9  N3  non d ame      -9.029  13.545  66.577  0.00  0.00    -0.346 N 
ATOM     10  C7  non d ame      -8.361  14.124  67.716  0.00  0.00     0.240 C 
ATOM     11  O3  non d ame      -8.976  14.433  68.663  0.00  0.00    -0.271 OA
ATOM     12  H10 non d ame      -8.485  13.285  65.767  0.00  0.00     0.163 HD
BRANCH  10  13
ATOM     13  C6  non d ame      -6.816  14.342  67.680  0.00  0.00     0.086 C 
ATOM     14  H6  non d ame      -6.486  14.875  66.789  0.00  0.00     0.086 H 
BRANCH  13  15
ATOM     15  N2  non d ame      -6.429  15.158  68.820  0.00  0.00    -0.343 N 
ATOM     16  C5  non d ame      -6.075  16.564  68.614  0.00  0.00     0.273 C 
ATOM     17  O2  non d ame      -6.102  17.028  67.528  0.00  0.00    -0.266 OA
ATOM     18  H5  non d ame      -6.405  14.751  69.744  0.00  0.00     0.163 HD
BRANCH  16  19
ATOM     19  C4  non d ame      -5.665  17.437  69.810  0.00  0.00     0.154 A 
ATOM     20  C1  non d ame      -5.608  18.866  69.858  0.00  0.00    -0.017 A 
ATOM     21  C2  non d ame      -5.178  19.169  71.169  0.00  0.00     0.077 A 
ATOM     22  H1  non d ame      -5.844  19.575  69.064  0.00  0.00     0.091 H 
ATOM     23  O1  non d ame      -5.012  18.039  71.793  0.00  0.00    -0.218 OA
ATOM     24  N1  non d ame      -5.290  17.014  71.020  0.00  0.00    -0.123 NA
BRANCH  21  25
ATOM     25  C3  non d ame      -4.952  20.560  71.745  0.00  0.00    -0.029 C 
ATOM     26  H2  non d ame      -5.726  20.779  72.481  0.00  0.00     0.036 H 
ATOM     27  H3  non d ame      -3.974  20.602  72.223  0.00  0.00     0.036 H 
ATOM     28  H4  non d ame      -4.996  21.298  70.942  0.00  0.00     0.036 H 
ENDBRANCH  21  25
ENDBRANCH  16  19
ENDBRANCH  13  15
BRANCH  13  29
ATOM     29  C8  non d ame      -6.116  13.009  67.738  0.00  0.00    -0.049 C 
ATOM     30  H7  non d ame      -6.016  12.696  68.777  0.00  0.00     0.030 H 
ATOM     31  H8  non d ame      -6.697  12.268  67.189  0.00  0.00     0.030 H 
ATOM     32  H9  non d ame      -5.126  13.099  67.290  0.00  0.00     0.030 H 
ENDBRANCH  13  29
ENDBRANCH  10  13
ENDBRANCH   7   9
BRANCH   7  33
ATOM     33  C11 non d ame     -11.094  13.815  65.254  0.00  0.00    -0.033 C 
ATOM     34  H12 non d ame     -12.177  13.745  65.342  0.00  0.00     0.042 H 
BRANCH  33  35
ATOM     35  C12 non d ame     -10.742  15.308  64.963  0.00  0.00    -0.071 C 
ATOM     36  H13 non d ame      -9.875  15.599  65.556  0.00  0.00     0.028 H 
ATOM     37  H14 non d ame     -10.515  15.427  63.905  0.00  0.00     0.028 H 
ATOM     38  H15 non d ame     -11.590  15.937  65.228  0.00  0.00     0.028 H 
ENDBRANCH  33  35
BRANCH  33  39
ATOM     39  C13 non d ame     -10.644  12.889  64.079  0.00  0.00    -0.071 C 
ATOM     40  H16 non d ame     -11.521  12.538  63.536  0.00  0.00     0.028 H 
ATOM     41  H17 non d ame      -9.997  13.448  63.402  0.00  0.00     0.028 H 
ATOM     42  H18 non d ame     -10.098  12.034  64.479  0.00  0.00     0.028 H 
ENDBRANCH  33  39
ENDBRANCH   7  33
ENDBRANCH   4   7
ENDBRANCH   1   3
BRANCH   1  43
ATOM     43  C15 non d ame      -9.383   9.014  68.167  0.00  0.00     0.240 C 
ATOM     44  O5  non d ame      -8.310   9.396  68.507  0.00  0.00    -0.271 OA
ATOM     45  N6  non d ame     -10.177   8.134  69.072  0.00  0.00    -0.355 N 
ATOM     46  H46 non d ame     -11.091   7.808  68.797  0.00  0.00     0.162 HD
BRANCH  45  47
ATOM     47  C20 non d ame      -9.619   7.737  70.383  0.00  0.00     0.013 C 
ATOM     48  H30 non d ame      -8.560   7.995  70.389  0.00  0.00     0.072 H 
BRANCH  47  49
ATOM     49  C21 non d ame      -9.788   6.246  70.567  0.00  0.00    -0.038 C 
ATOM     50  H31 non d ame      -8.794   5.819  70.437  0.00  0.00     0.036 H 
ATOM     51  H32 non d ame     -10.314   6.124  71.514  0.00  0.00     0.036 H 
BRANCH  49  52
ATOM     52  C22 non d ame     -10.683   5.606  69.484  0.00  0.00     0.018 C 
ATOM     53  H33 non d ame     -11.271   4.845  69.998  0.00  0.00     0.048 H 
ATOM     54  H34 non d ame     -11.184   6.436  68.986  0.00  0.00     0.048 H 
BRANCH  52  55
ATOM     55  C23 non d ame      -9.890   4.858  68.377  0.00  0.00     0.259 C 
ATOM     56  O7  non d ame      -9.480   3.759  68.566  0.00  0.00    -0.265 OA
BRANCH  55  57
ATOM     57  O8  non d ame      -9.644   5.508  67.135  0.00  0.00    -0.317 OA
BRANCH  57  58
ATOM     58  C29 non d ame      -9.553   4.617  66.020  0.00  0.00     0.052 C 
ATOM     59  H47 non d ame      -9.312   3.642  66.441  0.00  0.00     0.082 H 
ATOM     60  H48 non d ame     -10.476   4.755  65.457  0.00  0.00     0.082 H 
BRANCH  58  61
ATOM     61  C35 non d ame      -8.365   5.078  65.135  0.00  0.00    -0.034 A 
ATOM     62  C30 non d ame      -8.566   5.359  63.787  0.00  0.00    -0.075 A 
ATOM     63  C31 non d ame      -7.498   5.773  62.993  0.00  0.00    -0.082 A 
ATOM     64  H49 non d ame      -9.561   5.255  63.354  0.00  0.00     0.084 H 
ATOM     65  C32 non d ame      -6.223   5.903  63.550  0.00  0.00    -0.083 A 
ATOM     66  H50 non d ame      -7.660   5.995  61.938  0.00  0.00     0.083 H 
ATOM     67  C33 non d ame      -6.025   5.618  64.895  0.00  0.00    -0.082 A 
ATOM     68  H51 non d ame      -5.383   6.227  62.936  0.00  0.00     0.083 H 
ATOM     69  C34 non d ame      -7.091   5.206  65.693  0.00  0.00    -0.075 A 
ATOM     70  H52 non d ame      -5.029   5.718  65.326  0.00  0.00     0.083 H 
ATOM     71  H53 non d ame      -6.928   4.985  66.749  0.00  0.00     0.084 H 
ENDBRANCH  58  61
ENDBRANCH  57  58
ENDBRANCH  55  57
ENDBRANCH  52  55
ENDBRANCH  49  52
ENDBRANCH  47  49
BRANCH  47  72
ATOM     72  C24 non d ame     -10.352   8.476  71.501  0.00  0.00    -0.039 C 
ATOM     73  H35 non d ame     -10.383   7.778  72.338  0.00  0.00     0.036 H 
ATOM     74  H36 non d ame      -9.834   9.430  71.607  0.00  0.00     0.036 H 
BRANCH  72  75
ATOM     75  C25 non d ame     -11.868   8.803  71.102  0.00  0.00    -0.001 C 
ATOM     76  C26 non d ame     -12.058  10.425  70.906  0.00  0.00    -0.035 C 
ATOM     77  C27 non d ame     -13.118  10.832  71.644  0.00  0.00     0.085 C 
ATOM     78  H38 non d ame     -11.218  10.956  71.352  0.00  0.00     0.036 H 
ATOM     79  H39 non d ame     -12.360  10.645  69.883  0.00  0.00     0.036 H 
ATOM     80  N5  non d ame     -13.466   9.698  72.579  0.00  0.00    -0.049 N 
ATOM     81  H40 non d ame     -12.758  11.678  72.230  0.00  0.00     0.075 H 
ATOM     82  H41 non d ame     -13.932  10.969  70.934  0.00  0.00     0.075 H 
ATOM     83  C28 non d ame     -12.690   8.401  72.013  0.00  0.00     0.193 C 
ATOM     84  H42 non d ame     -13.077   9.940  73.479  0.00  0.00     0.280 HD
ATOM     85  H43 non d ame     -14.460   9.544  72.484  0.00  0.00     0.280 HD
ATOM     86  H44 non d ame     -13.228   7.627  71.468  0.00  0.00     0.129 H 
ATOM     87  H37 non d ame     -12.231   8.161  70.299  0.00  0.00     0.046 H 
BRANCH  83  88
ATOM     88  O6  non d ame     -12.022   7.722  73.078  0.00  0.00    -0.369 OA
ATOM     89  H45 non d ame     -11.993   6.782  72.889  0.00  0.00     0.212 HD
ENDBRANCH  83  88
ENDBRANCH  72  75
ENDBRANCH  47  72
ENDBRANCH  45  47
ENDBRANCH   1  43
BRANCH   1  90
ATOM     90  C16 non d ame      -9.272   8.652  65.682  0.00  0.00    -0.035 C 
ATOM     91  H21 non d ame      -8.634   7.931  66.195  0.00  0.00     0.037 H 
ATOM     92  H22 non d ame     -10.078   8.303  65.036  0.00  0.00     0.037 H 
BRANCH  90  93
ATOM     93  C17 non d ame      -8.329   9.515  64.785  0.00  0.00    -0.059 C 
ATOM     94  H23 non d ame      -8.550  10.563  64.985  0.00  0.00     0.038 H 
BRANCH  93  95
ATOM     95  C18 non d ame      -6.821   9.275  65.113  0.00  0.00    -0.073 C 
ATOM     96  H24 non d ame      -6.518   9.932  65.929  0.00  0.00     0.028 H 
ATOM     97  H25 non d ame      -6.675   8.237  65.410  0.00  0.00     0.028 H 
ATOM     98  H26 non d ame      -6.219   9.489  64.230  0.00  0.00     0.028 H 
ENDBRANCH  93  95
BRANCH  93  99
ATOM     99  C19 non d ame      -8.609   9.268  63.300  0.00  0.00    -0.073 C 
ATOM    100  H27 non d ame      -9.303  10.024  62.931  0.00  0.00     0.028 H 
ATOM    101  H28 non d ame      -7.675   9.326  62.741  0.00  0.00     0.028 H 
ATOM    102  H29 non d ame      -9.047   8.278  63.172  0.00  0.00     0.028 H 
ENDBRANCH  93  99
ENDBRANCH  90  93
ENDBRANCH   1  90
TORSDOF 26
ENDMDL
MODEL 9
REMARK VINA RESULT:      -6.3      3.020      8.314
REMARK  26 active torsions:
REMARK  status: ('A' for Active; 'I' for Inactive)
REMARK    1  A    between atoms: C2_2  and  C3_3 
REMARK    2  A    between atoms: C4_6  and  C5_7 
REMARK       I    between atoms: C5_7  and  N2_9 
REMARK    3  A    between atoms: N2_9  and  C6_10 
REMARK    4  A    between atoms: C6_10  and  C7_11 
REMARK    5  A    between atoms: C6_10  and  C8_13 
REMARK       I    between atoms: C7_11  and  N3_14 
REMARK    6  A    between atoms: N3_14  and  C9_15 
REMARK    7  A    between atoms: C9_15  and  C10_16 
REMARK    8  A    between atoms: C9_15  and  C11_18 
REMARK       I    between atoms: C10_16  and  N4_21 
REMARK    9  A    between atoms: C11_18  and  C12_19 
REMARK   10  A    between atoms: C11_18  and  C13_20 
REMARK   11  A    between atoms: N4_21  and  C14_22 
REMARK   12  A    between atoms: C14_22  and  C15_23 
REMARK   13  A    between atoms: C14_22  and  C16_25 
REMARK       I    between atoms: C15_23  and  N6_40 
REMARK   14  A    between atoms: C16_25  and  C17_26 
REMARK   15  A    between atoms: C17_26  and  C18_27 
REMARK   16  A    between atoms: C17_26  and  C19_28 
REMARK   17  A    between atoms: C20_29  and  C21_30 
REMARK   18  A    between atoms: C20_29  and  C24_33 
REMARK   19  A    between atoms: C20_29  and  N6_40 
REMARK   20  A    between atoms: C21_30  and  C22_31 
REMARK   21  A    between atoms: C22_31  and  C23_32 
REMARK   22  A    between atoms: C23_32  and  O8_43 
REMARK   23  A    between atoms: C24_33  and  C25_34 
REMARK   24  A    between atoms: C28_38  and  O6_39 
REMARK   25  A    between atoms: C29_42  and  O8_43 
REMARK   26  A    between atoms: C29_42  and  C35_49 
ROOT
ATOM      1  C14 non d ame      -8.168   9.343  64.384  0.00  0.00     0.089 C 
ATOM      2  H20 non d ame      -7.166   9.771  64.334  0.00  0.00     0.087 H 
ENDROOT
BRANCH   1   3
ATOM      3  N4  non d ame      -8.086   8.129  65.183  0.00  0.00    -0.346 N 
ATOM      4  C10 non d ame      -6.838   7.819  65.971  0.00  0.00     0.241 C 
ATOM      5  O4  non d ame      -5.911   8.561  65.944  0.00  0.00    -0.271 OA
ATOM      6  H19 non d ame      -8.884   7.510  65.190  0.00  0.00     0.163 HD
BRANCH   4   7
ATOM      7  C9  non d ame      -6.772   6.561  66.797  0.00  0.00     0.092 C 
ATOM      8  H11 non d ame      -6.323   6.789  67.763  0.00  0.00     0.088 H 
BRANCH   7   9
ATOM      9  N3  non d ame      -8.131   6.074  67.055  0.00  0.00    -0.346 N 
ATOM     10  C7  non d ame      -8.800   6.424  68.283  0.00  0.00     0.240 C 
ATOM     11  O3  non d ame      -8.261   7.096  69.076  0.00  0.00    -0.271 OA
ATOM     12  H10 non d ame      -8.609   5.493  66.381  0.00  0.00     0.163 HD
BRANCH  10  13
ATOM     13  C6  non d ame     -10.245   5.900  68.554  0.00  0.00     0.086 C 
ATOM     14  H6  non d ame     -10.271   5.088  69.281  0.00  0.00     0.086 H 
BRANCH  13  15
ATOM     15  N2  non d ame     -11.042   6.981  69.110  0.00  0.00    -0.343 N 
ATOM     16  C5  non d ame     -11.433   6.939  70.521  0.00  0.00     0.273 C 
ATOM     17  O2  non d ame     -11.104   6.029  71.199  0.00  0.00    -0.266 OA
ATOM     18  H5  non d ame     -11.322   7.754  68.522  0.00  0.00     0.163 HD
BRANCH  16  19
ATOM     19  C4  non d ame     -12.274   8.076  71.121  0.00  0.00     0.154 A 
ATOM     20  C1  non d ame     -12.010   9.481  71.045  0.00  0.00    -0.017 A 
ATOM     21  C2  non d ame     -13.073  10.088  71.749  0.00  0.00     0.077 A 
ATOM     22  H1  non d ame     -11.176   9.981  70.553  0.00  0.00     0.091 H 
ATOM     23  O1  non d ame     -13.851   9.137  72.174  0.00  0.00    -0.218 OA
ATOM     24  N1  non d ame     -13.406   7.953  71.820  0.00  0.00    -0.123 NA
BRANCH  21  25
ATOM     25  C3  non d ame     -13.270  11.583  71.968  0.00  0.00    -0.029 C 
ATOM     26  H2  non d ame     -12.299  12.075  72.018  0.00  0.00     0.036 H 
ATOM     27  H3  non d ame     -13.845  11.998  71.141  0.00  0.00     0.036 H 
ATOM     28  H4  non d ame     -13.809  11.745  72.903  0.00  0.00     0.036 H 
ENDBRANCH  21  25
ENDBRANCH  16  19
ENDBRANCH  13  15
BRANCH  13  29
ATOM     29  C8  non d ame     -10.858   5.417  67.264  0.00  0.00    -0.049 C 
ATOM     30  H7  non d ame     -10.446   4.440  67.010  0.00  0.00     0.030 H 
ATOM     31  H8  non d ame     -11.938   5.338  67.381  0.00  0.00     0.030 H 
ATOM     32  H9  non d ame     -10.630   6.125  66.467  0.00  0.00     0.030 H 
ENDBRANCH  13  29
ENDBRANCH  10  13
ENDBRANCH   7   9
BRANCH   7  33
ATOM     33  C11 non d ame      -5.973   5.473  66.021  0.00  0.00    -0.033 C 
ATOM     34  H12 non d ame      -4.913   5.684  66.157  0.00  0.00     0.042 H 
BRANCH  33  35
ATOM     35  C12 non d ame      -6.246   4.049  66.597  0.00  0.00    -0.071 C 
ATOM     36  H13 non d ame      -7.262   3.744  66.345  0.00  0.00     0.028 H 
ATOM     37  H14 non d ame      -5.537   3.341  66.168  0.00  0.00     0.028 H 
ATOM     38  H15 non d ame      -6.131   4.068  67.680  0.00  0.00     0.028 H 
ENDBRANCH  33  35
BRANCH  33  39
ATOM     39  C13 non d ame      -6.285   5.534  64.491  0.00  0.00    -0.071 C 
ATOM     40  H16 non d ame      -5.378   5.322  63.927  0.00  0.00     0.028 H 
ATOM     41  H17 non d ame      -7.047   4.793  64.246  0.00  0.00     0.028 H 
ATOM     42  H18 non d ame      -6.650   6.528  64.234  0.00  0.00     0.028 H 
ENDBRANCH  33  39
ENDBRANCH   7  33
ENDBRANCH   4   7
ENDBRANCH   1   3
BRANCH   1  43
ATOM     43  C15 non d ame      -9.186  10.308  65.055  0.00  0.00     0.240 C 
ATOM     44  O5  non d ame     -10.162   9.872  65.573  0.00  0.00    -0.271 OA
ATOM     45  N6  non d ame      -8.939  11.779  65.059  0.00  0.00    -0.355 N 
ATOM     46  H46 non d ame      -8.112  12.161  64.626  0.00  0.00     0.162 HD
BRANCH  45  47
ATOM     47  C20 non d ame      -9.917  12.684  65.702  0.00  0.00     0.013 C 
ATOM     48  H30 non d ame     -10.697  12.070  66.152  0.00  0.00     0.072 H 
BRANCH  47  49
ATOM     49  C21 non d ame     -10.517  13.596  64.656  0.00  0.00    -0.038 C 
ATOM     50  H31 non d ame      -9.678  14.143  64.226  0.00  0.00     0.036 H 
ATOM     51  H32 non d ame     -11.132  12.955  64.024  0.00  0.00     0.036 H 
BRANCH  49  52
ATOM     52  C22 non d ame     -11.465  14.656  65.259  0.00  0.00     0.018 C 
ATOM     53  H33 non d ame     -12.440  14.470  64.809  0.00  0.00     0.048 H 
ATOM     54  H34 non d ame     -11.342  14.582  66.339  0.00  0.00     0.048 H 
BRANCH  52  55
ATOM     55  C23 non d ame     -11.091  16.117  64.884  0.00  0.00     0.259 C 
ATOM     56  O7  non d ame     -11.607  16.651  63.956  0.00  0.00    -0.265 OA
BRANCH  55  57
ATOM     57  O8  non d ame     -10.114  16.806  65.654  0.00  0.00    -0.317 OA
BRANCH  57  58
ATOM     58  C29 non d ame     -10.467  18.157  65.968  0.00  0.00     0.052 C 
ATOM     59  H47 non d ame     -10.566  18.666  65.010  0.00  0.00     0.082 H 
ATOM     60  H48 non d ame     -11.323  18.089  66.639  0.00  0.00     0.082 H 
BRANCH  58  61
ATOM     61  C35 non d ame      -9.284  18.793  66.744  0.00  0.00    -0.034 A 
ATOM     62  C30 non d ame      -9.232  18.705  68.132  0.00  0.00    -0.075 A 
ATOM     63  C31 non d ame      -8.169  19.277  68.829  0.00  0.00    -0.082 A 
ATOM     64  H49 non d ame     -10.025  18.188  68.673  0.00  0.00     0.084 H 
ATOM     65  C32 non d ame      -7.156  19.941  68.133  0.00  0.00    -0.083 A 
ATOM     66  H50 non d ame      -8.130  19.203  69.916  0.00  0.00     0.083 H 
ATOM     67  C33 non d ame      -7.213  20.030  66.748  0.00  0.00    -0.082 A 
ATOM     68  H51 non d ame      -6.320  20.390  68.670  0.00  0.00     0.083 H 
ATOM     69  C34 non d ame      -8.273  19.457  66.048  0.00  0.00    -0.075 A 
ATOM     70  H52 non d ame      -6.421  20.550  66.209  0.00  0.00     0.083 H 
ATOM     71  H53 non d ame      -8.309  19.530  64.960  0.00  0.00     0.084 H 
ENDBRANCH  58  61
ENDBRANCH  57  58
ENDBRANCH  55  57
ENDBRANCH  52  55
ENDBRANCH  49  52
ENDBRANCH  47  49
BRANCH  47  72
ATOM     72  C24 non d ame      -9.218  13.522  66.771  0.00  0.00    -0.039 C 
ATOM     73  H35 non d ame      -8.162  13.258  66.702  0.00  0.00     0.036 H 
ATOM     74  H36 non d ame      -9.535  14.549  66.587  0.00  0.00     0.036 H 
BRANCH  72  75
ATOM     75  C25 non d ame      -9.708  13.132  68.245  0.00  0.00    -0.001 C 
ATOM     76  C26 non d ame     -10.977  12.090  68.156  0.00  0.00    -0.035 C 
ATOM     77  C27 non d ame     -11.984  12.563  68.928  0.00  0.00     0.085 C 
ATOM     78  H38 non d ame     -11.399  12.100  67.152  0.00  0.00     0.036 H 
ATOM     79  H39 non d ame     -10.717  11.143  68.629  0.00  0.00     0.036 H 
ATOM     80  N5  non d ame     -11.641  13.993  69.273  0.00  0.00    -0.049 N 
ATOM     81  H40 non d ame     -12.869  12.555  68.290  0.00  0.00     0.075 H 
ATOM     82  H41 non d ame     -11.961  11.964  69.837  0.00  0.00     0.075 H 
ATOM     83  C28 non d ame     -10.080  14.176  68.907  0.00  0.00     0.193 C 
ATOM     84  H42 non d ame     -12.187  14.575  68.656  0.00  0.00     0.280 HD
ATOM     85  H43 non d ame     -11.748  14.079  70.274  0.00  0.00     0.280 HD
ATOM     86  H44 non d ame      -9.324  14.194  69.692  0.00  0.00     0.129 H 
ATOM     87  H37 non d ame      -8.878  12.849  68.893  0.00  0.00     0.046 H 
BRANCH  83  88
ATOM     88  O6  non d ame      -9.886  15.382  68.164  0.00  0.00    -0.369 OA
ATOM     89  H45 non d ame     -10.591  16.000  68.368  0.00  0.00     0.212 HD
ENDBRANCH  83  88
ENDBRANCH  72  75
ENDBRANCH  47  72
ENDBRANCH  45  47
ENDBRANCH   1  43
BRANCH   1  90
ATOM     90  C16 non d ame      -8.646   8.986  62.986  0.00  0.00    -0.035 C 
ATOM     91  H21 non d ame      -8.730   7.898  62.979  0.00  0.00     0.037 H 
ATOM     92  H22 non d ame      -9.530   9.601  62.817  0.00  0.00     0.037 H 
BRANCH  90  93
ATOM     93  C17 non d ame      -7.629   9.357  61.861  0.00  0.00    -0.059 C 
ATOM     94  H23 non d ame      -7.791   8.671  61.030  0.00  0.00     0.038 H 
BRANCH  93  95
ATOM     95  C18 non d ame      -7.841  10.810  61.329  0.00  0.00    -0.073 C 
ATOM     96  H24 non d ame      -8.899  10.968  61.119  0.00  0.00     0.028 H 
ATOM     97  H25 non d ame      -7.510  11.524  62.083  0.00  0.00     0.028 H 
ATOM     98  H26 non d ame      -7.263  10.950  60.415  0.00  0.00     0.028 H 
ENDBRANCH  93  95
BRANCH  93  99
ATOM     99  C19 non d ame      -6.188   9.157  62.339  0.00  0.00    -0.073 C 
ATOM    100  H27 non d ame      -6.080   9.561  63.346  0.00  0.00     0.028 H 
ATOM    101  H28 non d ame      -5.953   8.092  62.346  0.00  0.00     0.028 H 
ATOM    102  H29 non d ame      -5.506   9.673  61.664  0.00  0.00     0.028 H 
ENDBRANCH  93  99
ENDBRANCH  90  93
ENDBRANCH   1  90
TORSDOF 26
ENDMDL
MODEL 10
REMARK VINA RESULT:      -6.3      3.667      7.855
REMARK  26 active torsions:
REMARK  status: ('A' for Active; 'I' for Inactive)
REMARK    1  A    between atoms: C2_2  and  C3_3 
REMARK    2  A    between atoms: C4_6  and  C5_7 
REMARK       I    between atoms: C5_7  and  N2_9 
REMARK    3  A    between atoms: N2_9  and  C6_10 
REMARK    4  A    between atoms: C6_10  and  C7_11 
REMARK    5  A    between atoms: C6_10  and  C8_13 
REMARK       I    between atoms: C7_11  and  N3_14 
REMARK    6  A    between atoms: N3_14  and  C9_15 
REMARK    7  A    between atoms: C9_15  and  C10_16 
REMARK    8  A    between atoms: C9_15  and  C11_18 
REMARK       I    between atoms: C10_16  and  N4_21 
REMARK    9  A    between atoms: C11_18  and  C12_19 
REMARK   10  A    between atoms: C11_18  and  C13_20 
REMARK   11  A    between atoms: N4_21  and  C14_22 
REMARK   12  A    between atoms: C14_22  and  C15_23 
REMARK   13  A    between atoms: C14_22  and  C16_25 
REMARK       I    between atoms: C15_23  and  N6_40 
REMARK   14  A    between atoms: C16_25  and  C17_26 
REMARK   15  A    between atoms: C17_26  and  C18_27 
REMARK   16  A    between atoms: C17_26  and  C19_28 
REMARK   17  A    between atoms: C20_29  and  C21_30 
REMARK   18  A    between atoms: C20_29  and  C24_33 
REMARK   19  A    between atoms: C20_29  and  N6_40 
REMARK   20  A    between atoms: C21_30  and  C22_31 
REMARK   21  A    between atoms: C22_31  and  C23_32 
REMARK   22  A    between atoms: C23_32  and  O8_43 
REMARK   23  A    between atoms: C24_33  and  C25_34 
REMARK   24  A    between atoms: C28_38  and  O6_39 
REMARK   25  A    between atoms: C29_42  and  O8_43 
REMARK   26  A    between atoms: C29_42  and  C35_49 
ROOT
ATOM      1  C14 non d ame      -9.966  12.584  65.854  0.00  0.00     0.089 C 
ATOM      2  H20 non d ame      -9.882  13.102  64.898  0.00  0.00     0.087 H 
ENDROOT
BRANCH   1   3
ATOM      3  N4  non d ame      -9.176  11.366  65.763  0.00  0.00    -0.346 N 
ATOM      4  C10 non d ame      -9.012  10.660  64.439  0.00  0.00     0.241 C 
ATOM      5  O4  non d ame      -9.530  11.092  63.461  0.00  0.00    -0.271 OA
ATOM      6  H19 non d ame      -8.746  11.013  66.606  0.00  0.00     0.163 HD
BRANCH   4   7
ATOM      7  C9  non d ame      -8.186   9.404  64.361  0.00  0.00     0.092 C 
ATOM      8  H11 non d ame      -7.310   9.510  65.000  0.00  0.00     0.088 H 
BRANCH   7   9
ATOM      9  N3  non d ame      -8.965   8.274  64.880  0.00  0.00    -0.346 N 
ATOM     10  C7  non d ame      -8.663   7.727  66.178  0.00  0.00     0.240 C 
ATOM     11  O3  non d ame      -7.797   8.181  66.821  0.00  0.00    -0.271 OA
ATOM     12  H10 non d ame      -9.715   7.870  64.336  0.00  0.00     0.163 HD
BRANCH  10  13
ATOM     13  C6  non d ame      -9.493   6.522  66.723  0.00  0.00     0.086 C 
ATOM     14  H6  non d ame     -10.335   6.835  67.340  0.00  0.00     0.086 H 
BRANCH  13  15
ATOM     15  N2  non d ame     -10.052   5.789  65.599  0.00  0.00    -0.343 N 
ATOM     16  C5  non d ame      -9.160   5.037  64.713  0.00  0.00     0.273 C 
ATOM     17  O2  non d ame      -7.995   5.032  64.911  0.00  0.00    -0.266 OA
ATOM     18  H5  non d ame     -11.049   5.801  65.436  0.00  0.00     0.163 HD
BRANCH  16  19
ATOM     19  C4  non d ame      -9.737   4.256  63.522  0.00  0.00     0.154 A 
ATOM     20  C1  non d ame     -10.804   3.303  63.548  0.00  0.00    -0.017 A 
ATOM     21  C2  non d ame     -10.947   2.881  62.208  0.00  0.00     0.077 A 
ATOM     22  H1  non d ame     -11.386   2.969  64.408  0.00  0.00     0.091 H 
ATOM     23  O1  non d ame     -10.064   3.524  61.503  0.00  0.00    -0.218 OA
ATOM     24  N1  non d ame      -9.346   4.333  62.247  0.00  0.00    -0.123 NA
BRANCH  21  25
ATOM     25  C3  non d ame     -11.953   1.863  61.686  0.00  0.00    -0.029 C 
ATOM     26  H2  non d ame     -11.421   1.011  61.262  0.00  0.00     0.036 H 
ATOM     27  H3  non d ame     -12.586   1.524  62.506  0.00  0.00     0.036 H 
ATOM     28  H4  non d ame     -12.572   2.325  60.916  0.00  0.00     0.036 H 
ENDBRANCH  21  25
ENDBRANCH  16  19
ENDBRANCH  13  15
BRANCH  13  29
ATOM     29  C8  non d ame      -8.601   5.620  67.537  0.00  0.00    -0.049 C 
ATOM     30  H7  non d ame      -9.032   4.619  67.571  0.00  0.00     0.030 H 
ATOM     31  H8  non d ame      -7.613   5.576  67.079  0.00  0.00     0.030 H 
ATOM     32  H9  non d ame      -8.516   6.012  68.550  0.00  0.00     0.030 H 
ENDBRANCH  13  29
ENDBRANCH  10  13
ENDBRANCH   7   9
BRANCH   7  33
ATOM     33  C11 non d ame      -7.800   9.128  62.879  0.00  0.00    -0.033 C 
ATOM     34  H12 non d ame      -8.451   9.735  62.251  0.00  0.00     0.042 H 
BRANCH  33  35
ATOM     35  C12 non d ame      -6.329   9.557  62.585  0.00  0.00    -0.071 C 
ATOM     36  H13 non d ame      -5.887   8.871  61.863  0.00  0.00     0.028 H 
ATOM     37  H14 non d ame      -6.320  10.568  62.179  0.00  0.00     0.028 H 
ATOM     38  H15 non d ame      -5.753   9.531  63.509  0.00  0.00     0.028 H 
ENDBRANCH  33  35
BRANCH  33  39
ATOM     39  C13 non d ame      -8.036   7.628  62.509  0.00  0.00    -0.071 C 
ATOM     40  H16 non d ame      -9.071   7.360  62.719  0.00  0.00     0.028 H 
ATOM     41  H17 non d ame      -7.829   7.478  61.449  0.00  0.00     0.028 H 
ATOM     42  H18 non d ame      -7.371   6.999  63.101  0.00  0.00     0.028 H 
ENDBRANCH  33  39
ENDBRANCH   7  33
ENDBRANCH   4   7
ENDBRANCH   1   3
BRANCH   1  43
ATOM     43  C15 non d ame      -9.424  13.437  67.035  0.00  0.00     0.240 C 
ATOM     44  O5  non d ame      -8.714  12.940  67.848  0.00  0.00    -0.271 OA
ATOM     45  N6  non d ame      -9.784  14.880  67.149  0.00  0.00    -0.355 N 
ATOM     46  H46 non d ame     -10.383  15.315  66.463  0.00  0.00     0.162 HD
BRANCH  45  47
ATOM     47  C20 non d ame      -9.260  15.679  68.278  0.00  0.00     0.013 C 
ATOM     48  H30 non d ame      -8.429  15.129  68.721  0.00  0.00     0.072 H 
BRANCH  47  49
ATOM     49  C21 non d ame     -10.354  15.874  69.303  0.00  0.00    -0.038 C 
ATOM     50  H31 non d ame     -10.005  15.373  70.205  0.00  0.00     0.036 H 
ATOM     51  H32 non d ame     -10.555  16.946  69.318  0.00  0.00     0.036 H 
BRANCH  49  52
ATOM     52  C22 non d ame     -11.678  15.186  68.905  0.00  0.00     0.018 C 
ATOM     53  H33 non d ame     -12.415  15.986  68.829  0.00  0.00     0.048 H 
ATOM     54  H34 non d ame     -11.443  14.577  68.033  0.00  0.00     0.048 H 
BRANCH  52  55
ATOM     55  C23 non d ame     -12.221  14.204  69.980  0.00  0.00     0.259 C 
ATOM     56  O7  non d ame     -13.130  14.518  70.678  0.00  0.00    -0.265 OA
BRANCH  55  57
ATOM     57  O8  non d ame     -11.611  12.929  70.132  0.00  0.00    -0.317 OA
BRANCH  57  58
ATOM     58  C29 non d ame     -12.474  11.933  70.689  0.00  0.00     0.052 C 
ATOM     59  H47 non d ame     -12.506  12.136  71.759  0.00  0.00     0.082 H 
ATOM     60  H48 non d ame     -13.389  11.973  70.099  0.00  0.00     0.082 H 
BRANCH  58  61
ATOM     61  C35 non d ame     -11.810  10.548  70.470  0.00  0.00    -0.034 A 
ATOM     62  C30 non d ame     -11.009  10.326  69.355  0.00  0.00    -0.075 A 
ATOM     63  C31 non d ame     -10.413   9.081  69.159  0.00  0.00    -0.082 A 
ATOM     64  H49 non d ame     -10.848  11.128  68.634  0.00  0.00     0.084 H 
ATOM     65  C32 non d ame     -10.623   8.054  70.082  0.00  0.00    -0.083 A 
ATOM     66  H50 non d ame      -9.783   8.912  68.285  0.00  0.00     0.083 H 
ATOM     67  C33 non d ame     -11.426   8.278  71.193  0.00  0.00    -0.082 A 
ATOM     68  H51 non d ame     -10.160   7.078  69.937  0.00  0.00     0.083 H 
ATOM     69  C34 non d ame     -12.022   9.522  71.393  0.00  0.00    -0.075 A 
ATOM     70  H52 non d ame     -11.590   7.473  71.910  0.00  0.00     0.083 H 
ATOM     71  H53 non d ame     -12.650   9.690  72.269  0.00  0.00     0.084 H 
ENDBRANCH  58  61
ENDBRANCH  57  58
ENDBRANCH  55  57
ENDBRANCH  52  55
ENDBRANCH  49  52
ENDBRANCH  47  49
BRANCH  47  72
ATOM     72  C24 non d ame      -8.786  17.039  67.771  0.00  0.00    -0.039 C 
ATOM     73  H35 non d ame      -8.057  17.384  68.505  0.00  0.00     0.036 H 
ATOM     74  H36 non d ame      -8.480  16.874  66.738  0.00  0.00     0.036 H 
BRANCH  72  75
ATOM     75  C25 non d ame      -9.976  18.111  67.746  0.00  0.00    -0.001 C 
ATOM     76  C26 non d ame     -10.474  18.359  66.199  0.00  0.00    -0.035 C 
ATOM     77  C27 non d ame     -10.485  19.691  65.952  0.00  0.00     0.085 C 
ATOM     78  H38 non d ame      -9.730  17.977  65.501  0.00  0.00     0.036 H 
ATOM     79  H39 non d ame     -11.519  18.072  66.091  0.00  0.00     0.036 H 
ATOM     80  N5  non d ame      -9.729  20.354  67.079  0.00  0.00    -0.049 N 
ATOM     81  H40 non d ame      -9.925  19.820  65.025  0.00  0.00     0.075 H 
ATOM     82  H41 non d ame     -11.531  19.988  66.004  0.00  0.00     0.075 H 
ATOM     83  C28 non d ame      -9.599  19.242  68.242  0.00  0.00     0.193 C 
ATOM     84  H42 non d ame      -8.807  20.558  66.724  0.00  0.00     0.280 HD
ATOM     85  H43 non d ame     -10.318  21.103  67.416  0.00  0.00     0.280 HD
ATOM     86  H44 non d ame     -10.230  19.290  69.129  0.00  0.00     0.129 H 
ATOM     87  H37 non d ame     -10.746  17.889  68.485  0.00  0.00     0.046 H 
BRANCH  83  88
ATOM     88  O6  non d ame      -8.257  19.194  68.731  0.00  0.00    -0.369 OA
ATOM     89  H45 non d ame      -8.018  18.284  68.919  0.00  0.00     0.212 HD
ENDBRANCH  83  88
ENDBRANCH  72  75
ENDBRANCH  47  72
ENDBRANCH  45  47
ENDBRANCH   1  43
BRANCH   1  90
ATOM     90  C16 non d ame     -11.418  12.215  66.113  0.00  0.00    -0.035 C 
ATOM     91  H21 non d ame     -11.470  11.133  65.975  0.00  0.00     0.037 H 
ATOM     92  H22 non d ame     -11.658  12.652  67.082  0.00  0.00     0.037 H 
BRANCH  90  93
ATOM     93  C17 non d ame     -12.416  12.838  65.087  0.00  0.00    -0.059 C 
ATOM     94  H23 non d ame     -13.394  12.889  65.566  0.00  0.00     0.038 H 
BRANCH  93  95
ATOM     95  C18 non d ame     -12.011  14.290  64.677  0.00  0.00    -0.073 C 
ATOM     96  H24 non d ame     -11.871  14.895  65.573  0.00  0.00     0.028 H 
ATOM     97  H25 non d ame     -11.080  14.260  64.110  0.00  0.00     0.028 H 
ATOM     98  H26 non d ame     -12.798  14.727  64.061  0.00  0.00     0.028 H 
ENDBRANCH  93  95
BRANCH  93  99
ATOM     99  C19 non d ame     -12.562  11.944  63.852  0.00  0.00    -0.073 C 
ATOM    100  H27 non d ame     -13.489  12.191  63.333  0.00  0.00     0.028 H 
ATOM    101  H28 non d ame     -11.716  12.108  63.185  0.00  0.00     0.028 H 
ATOM    102  H29 non d ame     -12.584  10.899  64.161  0.00  0.00     0.028 H 
ENDBRANCH  93  99
ENDBRANCH  90  93
ENDBRANCH   1  90
TORSDOF 26
ENDMDL
MODEL 11
REMARK VINA RESULT:      -6.3      2.419      7.366
REMARK  26 active torsions:
REMARK  status: ('A' for Active; 'I' for Inactive)
REMARK    1  A    between atoms: C2_2  and  C3_3 
REMARK    2  A    between atoms: C4_6  and  C5_7 
REMARK       I    between atoms: C5_7  and  N2_9 
REMARK    3  A    between atoms: N2_9  and  C6_10 
REMARK    4  A    between atoms: C6_10  and  C7_11 
REMARK    5  A    between atoms: C6_10  and  C8_13 
REMARK       I    between atoms: C7_11  and  N3_14 
REMARK    6  A    between atoms: N3_14  and  C9_15 
REMARK    7  A    between atoms: C9_15  and  C10_16 
REMARK    8  A    between atoms: C9_15  and  C11_18 
REMARK       I    between atoms: C10_16  and  N4_21 
REMARK    9  A    between atoms: C11_18  and  C12_19 
REMARK   10  A    between atoms: C11_18  and  C13_20 
REMARK   11  A    between atoms: N4_21  and  C14_22 
REMARK   12  A    between atoms: C14_22  and  C15_23 
REMARK   13  A    between atoms: C14_22  and  C16_25 
REMARK       I    between atoms: C15_23  and  N6_40 
REMARK   14  A    between atoms: C16_25  and  C17_26 
REMARK   15  A    between atoms: C17_26  and  C18_27 
REMARK   16  A    between atoms: C17_26  and  C19_28 
REMARK   17  A    between atoms: C20_29  and  C21_30 
REMARK   18  A    between atoms: C20_29  and  C24_33 
REMARK   19  A    between atoms: C20_29  and  N6_40 
REMARK   20  A    between atoms: C21_30  and  C22_31 
REMARK   21  A    between atoms: C22_31  and  C23_32 
REMARK   22  A    between atoms: C23_32  and  O8_43 
REMARK   23  A    between atoms: C24_33  and  C25_34 
REMARK   24  A    between atoms: C28_38  and  O6_39 
REMARK   25  A    between atoms: C29_42  and  O8_43 
REMARK   26  A    between atoms: C29_42  and  C35_49 
ROOT
ATOM      1  C14 non d ame      -6.831  13.629  68.230  0.00  0.00     0.089 C 
ATOM      2  H20 non d ame      -6.003  13.443  67.544  0.00  0.00     0.087 H 
ENDROOT
BRANCH   1   3
ATOM      3  N4  non d ame      -7.050  15.067  68.273  0.00  0.00    -0.346 N 
ATOM      4  C10 non d ame      -6.038  16.010  67.672  0.00  0.00     0.241 C 
ATOM      5  O4  non d ame      -5.053  15.587  67.161  0.00  0.00    -0.271 OA
ATOM      6  H19 non d ame      -7.893  15.407  68.713  0.00  0.00     0.163 HD
BRANCH   4   7
ATOM      7  C9  non d ame      -6.283  17.495  67.720  0.00  0.00     0.092 C 
ATOM      8  H11 non d ame      -6.077  17.925  66.740  0.00  0.00     0.088 H 
BRANCH   7   9
ATOM      9  N3  non d ame      -7.698  17.748  68.014  0.00  0.00    -0.346 N 
ATOM     10  C7  non d ame      -8.645  17.877  66.935  0.00  0.00     0.240 C 
ATOM     11  O3  non d ame      -8.289  17.781  65.824  0.00  0.00    -0.271 OA
ATOM     12  H10 non d ame      -8.020  17.834  68.967  0.00  0.00     0.163 HD
BRANCH  10  13
ATOM     13  C6  non d ame     -10.149  18.149  67.255  0.00  0.00     0.086 C 
ATOM     14  H6  non d ame     -10.822  17.723  66.510  0.00  0.00     0.086 H 
BRANCH  13  15
ATOM     15  N2  non d ame     -10.482  17.522  68.523  0.00  0.00    -0.343 N 
ATOM     16  C5  non d ame     -11.228  16.262  68.532  0.00  0.00     0.273 C 
ATOM     17  O2  non d ame     -11.557  15.762  67.514  0.00  0.00    -0.266 OA
ATOM     18  H5  non d ame     -10.198  17.958  69.389  0.00  0.00     0.163 HD
BRANCH  16  19
ATOM     19  C4  non d ame     -11.585  15.589  69.866  0.00  0.00     0.154 A 
ATOM     20  C1  non d ame     -11.693  16.214  71.149  0.00  0.00    -0.017 A 
ATOM     21  C2  non d ame     -12.042  15.170  72.034  0.00  0.00     0.077 A 
ATOM     22  H1  non d ame     -11.543  17.264  71.399  0.00  0.00     0.091 H 
ATOM     23  O1  non d ame     -12.125  14.078  71.332  0.00  0.00    -0.218 OA
ATOM     24  N1  non d ame     -11.862  14.297  70.064  0.00  0.00    -0.123 NA
BRANCH  21  25
ATOM     25  C3  non d ame     -12.280  15.300  73.533  0.00  0.00    -0.029 C 
ATOM     26  H2  non d ame     -12.243  16.352  73.817  0.00  0.00     0.036 H 
ATOM     27  H3  non d ame     -13.258  14.891  73.782  0.00  0.00     0.036 H 
ATOM     28  H4  non d ame     -11.508  14.750  74.073  0.00  0.00     0.036 H 
ENDBRANCH  21  25
ENDBRANCH  16  19
ENDBRANCH  13  15
BRANCH  13  29
ATOM     29  C8  non d ame     -10.388  19.635  67.334  0.00  0.00    -0.049 C 
ATOM     30  H7  non d ame     -10.646  20.015  66.345  0.00  0.00     0.030 H 
ATOM     31  H8  non d ame     -11.205  19.836  68.026  0.00  0.00     0.030 H 
ATOM     32  H9  non d ame      -9.482  20.130  67.687  0.00  0.00     0.030 H 
ENDBRANCH  13  29
ENDBRANCH  10  13
ENDBRANCH   7   9
BRANCH   7  33
ATOM     33  C11 non d ame      -5.403  18.130  68.836  0.00  0.00    -0.033 C 
ATOM     34  H12 non d ame      -4.362  17.917  68.594  0.00  0.00     0.042 H 
BRANCH  33  35
ATOM     35  C12 non d ame      -5.568  19.681  68.876  0.00  0.00    -0.071 C 
ATOM     36  H13 non d ame      -5.649  20.065  67.859  0.00  0.00     0.028 H 
ATOM     37  H14 non d ame      -6.468  19.936  69.434  0.00  0.00     0.028 H 
ATOM     38  H15 non d ame      -4.700  20.125  69.363  0.00  0.00     0.028 H 
ENDBRANCH  33  35
BRANCH  33  39
ATOM     39  C13 non d ame      -5.717  17.491  70.227  0.00  0.00    -0.071 C 
ATOM     40  H16 non d ame      -5.304  16.484  70.265  0.00  0.00     0.028 H 
ATOM     41  H17 non d ame      -5.268  18.098  71.015  0.00  0.00     0.028 H 
ATOM     42  H18 non d ame      -6.796  17.449  70.372  0.00  0.00     0.028 H 
ENDBRANCH  33  39
ENDBRANCH   7  33
ENDBRANCH   4   7
ENDBRANCH   1   3
BRANCH   1  43
ATOM     43  C15 non d ame      -8.146  12.942  67.762  0.00  0.00     0.240 C 
ATOM     44  O5  non d ame      -9.193  13.462  67.975  0.00  0.00    -0.271 OA
ATOM     45  N6  non d ame      -8.099  11.638  67.041  0.00  0.00    -0.355 N 
ATOM     46  H46 non d ame      -7.215  11.189  66.851  0.00  0.00     0.162 HD
BRANCH  45  47
ATOM     47  C20 non d ame      -9.357  10.998  66.602  0.00  0.00     0.013 C 
ATOM     48  H30 non d ame     -10.186  11.619  66.941  0.00  0.00     0.072 H 
BRANCH  47  49
ATOM     49  C21 non d ame      -9.459   9.620  67.216  0.00  0.00    -0.038 C 
ATOM     50  H31 non d ame      -8.434   9.310  67.416  0.00  0.00     0.036 H 
ATOM     51  H32 non d ame     -10.170   9.716  68.038  0.00  0.00     0.036 H 
BRANCH  49  52
ATOM     52  C22 non d ame     -10.051   8.574  66.247  0.00  0.00     0.018 C 
ATOM     53  H33 non d ame     -11.127   8.752  66.241  0.00  0.00     0.048 H 
ATOM     54  H34 non d ame      -9.479   8.669  65.325  0.00  0.00     0.048 H 
BRANCH  52  55
ATOM     55  C23 non d ame      -9.864   7.105  66.719  0.00  0.00     0.259 C 
ATOM     56  O7  non d ame     -10.720   6.556  67.334  0.00  0.00    -0.265 OA
BRANCH  55  57
ATOM     57  O8  non d ame      -8.650   6.427  66.421  0.00  0.00    -0.317 OA
BRANCH  57  58
ATOM     58  C29 non d ame      -8.617   5.841  65.116  0.00  0.00     0.052 C 
ATOM     59  H47 non d ame      -8.333   4.801  65.267  0.00  0.00     0.082 H 
ATOM     60  H48 non d ame      -9.576   6.084  64.660  0.00  0.00     0.082 H 
BRANCH  58  61
ATOM     61  C35 non d ame      -7.496   6.544  64.304  0.00  0.00    -0.034 A 
ATOM     62  C30 non d ame      -6.204   6.029  64.308  0.00  0.00    -0.075 A 
ATOM     63  C31 non d ame      -5.198   6.661  63.578  0.00  0.00    -0.082 A 
ATOM     64  H49 non d ame      -5.980   5.130  64.881  0.00  0.00     0.084 H 
ATOM     65  C32 non d ame      -5.488   7.815  62.846  0.00  0.00    -0.083 A 
ATOM     66  H50 non d ame      -4.187   6.253  63.581  0.00  0.00     0.083 H 
ATOM     67  C33 non d ame      -6.778   8.329  62.848  0.00  0.00    -0.082 A 
ATOM     68  H51 non d ame      -4.707   8.315  62.272  0.00  0.00     0.083 H 
ATOM     69  C34 non d ame      -7.787   7.698  63.574  0.00  0.00    -0.075 A 
ATOM     70  H52 non d ame      -6.999   9.231  62.276  0.00  0.00     0.083 H 
ATOM     71  H53 non d ame      -8.798   8.107  63.569  0.00  0.00     0.084 H 
ENDBRANCH  58  61
ENDBRANCH  57  58
ENDBRANCH  55  57
ENDBRANCH  52  55
ENDBRANCH  49  52
ENDBRANCH  47  49
BRANCH  47  72
ATOM     72  C24 non d ame      -9.372  10.880  65.079  0.00  0.00    -0.039 C 
ATOM     73  H35 non d ame      -8.329  10.960  64.772  0.00  0.00     0.036 H 
ATOM     74  H36 non d ame      -9.934   9.970  64.864  0.00  0.00     0.036 H 
BRANCH  72  75
ATOM     75  C25 non d ame     -10.162  12.095  64.397  0.00  0.00    -0.001 C 
ATOM     76  C26 non d ame     -11.469  12.496  65.310  0.00  0.00    -0.035 C 
ATOM     77  C27 non d ame     -12.564  12.528  64.512  0.00  0.00     0.085 C 
ATOM     78  H38 non d ame     -11.692  11.697  66.016  0.00  0.00     0.036 H 
ATOM     79  H39 non d ame     -11.380  13.524  65.661  0.00  0.00     0.036 H 
ATOM     80  N5  non d ame     -12.180  11.868  63.209  0.00  0.00    -0.049 N 
ATOM     81  H40 non d ame     -13.310  11.912  65.016  0.00  0.00     0.075 H 
ATOM     82  H41 non d ame     -12.761  13.584  64.331  0.00  0.00     0.075 H 
ATOM     83  C28 non d ame     -10.568  11.784  63.212  0.00  0.00     0.193 C 
ATOM     84  H42 non d ame     -12.552  10.930  63.243  0.00  0.00     0.280 HD
ATOM     85  H43 non d ame     -12.467  12.498  62.474  0.00  0.00     0.280 HD
ATOM     86  H44 non d ame      -9.976  12.473  62.611  0.00  0.00     0.129 H 
ATOM     87  H37 non d ame      -9.495  12.906  64.103  0.00  0.00     0.046 H 
BRANCH  83  88
ATOM     88  O6  non d ame     -10.142  10.476  62.823  0.00  0.00    -0.369 OA
ATOM     89  H45 non d ame     -10.200  10.392  61.868  0.00  0.00     0.212 HD
ENDBRANCH  83  88
ENDBRANCH  72  75
ENDBRANCH  47  72
ENDBRANCH  45  47
ENDBRANCH   1  43
BRANCH   1  90
ATOM     90  C16 non d ame      -6.466  13.141  69.622  0.00  0.00    -0.035 C 
ATOM     91  H21 non d ame      -7.350  13.327  70.234  0.00  0.00     0.037 H 
ATOM     92  H22 non d ame      -6.103  12.123  69.486  0.00  0.00     0.037 H 
BRANCH  90  93
ATOM     93  C17 non d ame      -5.298  13.942  70.281  0.00  0.00    -0.059 C 
ATOM     94  H23 non d ame      -5.327  14.956  69.883  0.00  0.00     0.038 H 
BRANCH  93  95
ATOM     95  C18 non d ame      -5.449  14.035  71.833  0.00  0.00    -0.073 C 
ATOM     96  H24 non d ame      -6.336  14.621  72.077  0.00  0.00     0.028 H 
ATOM     97  H25 non d ame      -5.550  13.033  72.249  0.00  0.00     0.028 H 
ATOM     98  H26 non d ame      -4.567  14.517  72.256  0.00  0.00     0.028 H 
ENDBRANCH  93  95
BRANCH  93  99
ATOM     99  C19 non d ame      -3.941  13.343  69.901  0.00  0.00    -0.073 C 
ATOM    100  H27 non d ame      -3.853  12.343  70.328  0.00  0.00     0.028 H 
ATOM    101  H28 non d ame      -3.863  13.284  68.815  0.00  0.00     0.028 H 
ATOM    102  H29 non d ame      -3.143  13.976  70.288  0.00  0.00     0.028 H 
ENDBRANCH  93  99
ENDBRANCH  90  93
ENDBRANCH   1  90
TORSDOF 26
ENDMDL
MODEL 12
REMARK VINA RESULT:      -6.2      3.118      7.905
REMARK  26 active torsions:
REMARK  status: ('A' for Active; 'I' for Inactive)
REMARK    1  A    between atoms: C2_2  and  C3_3 
REMARK    2  A    between atoms: C4_6  and  C5_7 
REMARK       I    between atoms: C5_7  and  N2_9 
REMARK    3  A    between atoms: N2_9  and  C6_10 
REMARK    4  A    between atoms: C6_10  and  C7_11 
REMARK    5  A    between atoms: C6_10  and  C8_13 
REMARK       I    between atoms: C7_11  and  N3_14 
REMARK    6  A    between atoms: N3_14  and  C9_15 
REMARK    7  A    between atoms: C9_15  and  C10_16 
REMARK    8  A    between atoms: C9_15  and  C11_18 
REMARK       I    between atoms: C10_16  and  N4_21 
REMARK    9  A    between atoms: C11_18  and  C12_19 
REMARK   10  A    between atoms: C11_18  and  C13_20 
REMARK   11  A    between atoms: N4_21  and  C14_22 
REMARK   12  A    between atoms: C14_22  and  C15_23 
REMARK   13  A    between atoms: C14_22  and  C16_25 
REMARK       I    between atoms: C15_23  and  N6_40 
REMARK   14  A    between atoms: C16_25  and  C17_26 
REMARK   15  A    between atoms: C17_26  and  C18_27 
REMARK   16  A    between atoms: C17_26  and  C19_28 
REMARK   17  A    between atoms: C20_29  and  C21_30 
REMARK   18  A    between atoms: C20_29  and  C24_33 
REMARK   19  A    between atoms: C20_29  and  N6_40 
REMARK   20  A    between atoms: C21_30  and  C22_31 
REMARK   21  A    between atoms: C22_31  and  C23_32 
REMARK   22  A    between atoms: C23_32  and  O8_43 
REMARK   23  A    between atoms: C24_33  and  C25_34 
REMARK   24  A    between atoms: C28_38  and  O6_39 
REMARK   25  A    between atoms: C29_42  and  O8_43 
REMARK   26  A    between atoms: C29_42  and  C35_49 
ROOT
ATOM      1  C14 non d ame     -10.044  10.952  64.465  0.00  0.00     0.089 C 
ATOM      2  H20 non d ame     -10.993  10.506  64.766  0.00  0.00     0.087 H 
ENDROOT
BRANCH   1   3
ATOM      3  N4  non d ame      -9.222  11.080  65.659  0.00  0.00    -0.346 N 
ATOM      4  C10 non d ame      -9.432  10.154  66.832  0.00  0.00     0.241 C 
ATOM      5  O4  non d ame     -10.271   9.315  66.791  0.00  0.00    -0.271 OA
ATOM      6  H19 non d ame      -8.515  11.802  65.676  0.00  0.00     0.163 HD
BRANCH   4   7
ATOM      7  C9  non d ame      -8.569  10.297  68.058  0.00  0.00     0.092 C 
ATOM      8  H11 non d ame      -7.528  10.123  67.786  0.00  0.00     0.088 H 
BRANCH   7   9
ATOM      9  N3  non d ame      -8.661  11.670  68.563  0.00  0.00    -0.346 N 
ATOM     10  C7  non d ame      -7.749  12.678  68.081  0.00  0.00     0.240 C 
ATOM     11  O3  non d ame      -6.935  12.402  67.287  0.00  0.00    -0.271 OA
ATOM     12  H10 non d ame      -9.358  11.923  69.249  0.00  0.00     0.163 HD
BRANCH  10  13
ATOM     13  C6  non d ame      -7.850  14.137  68.625  0.00  0.00     0.086 C 
ATOM     14  H6  non d ame      -7.939  14.878  67.831  0.00  0.00     0.086 H 
BRANCH  13  15
ATOM     15  N2  non d ame      -9.049  14.254  69.440  0.00  0.00    -0.343 N 
ATOM     16  C5  non d ame      -9.864  15.468  69.354  0.00  0.00     0.273 C 
ATOM     17  O2  non d ame      -9.544  16.346  68.630  0.00  0.00    -0.266 OA
ATOM     18  H5  non d ame      -9.312  13.500  70.058  0.00  0.00     0.163 HD
BRANCH  16  19
ATOM     19  C4  non d ame     -11.133  15.605  70.209  0.00  0.00     0.154 A 
ATOM     20  C1  non d ame     -11.234  15.496  71.632  0.00  0.00    -0.017 A 
ATOM     21  C2  non d ame     -12.602  15.700  71.916  0.00  0.00     0.077 A 
ATOM     22  H1  non d ame     -10.436  15.300  72.349  0.00  0.00     0.091 H 
ATOM     23  O1  non d ame     -13.207  15.904  70.783  0.00  0.00    -0.218 OA
ATOM     24  N1  non d ame     -12.371  15.853  69.772  0.00  0.00    -0.123 NA
BRANCH  21  25
ATOM     25  C3  non d ame     -13.248  15.687  73.296  0.00  0.00    -0.029 C 
ATOM     26  H2  non d ame     -12.816  16.479  73.908  0.00  0.00     0.036 H 
ATOM     27  H3  non d ame     -14.321  15.849  73.197  0.00  0.00     0.036 H 
ATOM     28  H4  non d ame     -13.069  14.722  73.772  0.00  0.00     0.036 H 
ENDBRANCH  21  25
ENDBRANCH  16  19
ENDBRANCH  13  15
BRANCH  13  29
ATOM     29  C8  non d ame      -6.631  14.453  69.453  0.00  0.00    -0.049 C 
ATOM     30  H7  non d ame      -5.734  14.286  68.856  0.00  0.00     0.030 H 
ATOM     31  H8  non d ame      -6.666  15.495  69.771  0.00  0.00     0.030 H 
ATOM     32  H9  non d ame      -6.609  13.806  70.329  0.00  0.00     0.030 H 
ENDBRANCH  13  29
ENDBRANCH  10  13
ENDBRANCH   7   9
BRANCH   7  33
ATOM     33  C11 non d ame      -9.061   9.309  69.155  0.00  0.00    -0.033 C 
ATOM     34  H12 non d ame      -9.466   8.432  68.652  0.00  0.00     0.042 H 
BRANCH  33  35
ATOM     35  C12 non d ame      -7.881   8.829  70.058  0.00  0.00    -0.071 C 
ATOM     36  H13 non d ame      -7.729   9.542  70.867  0.00  0.00     0.028 H 
ATOM     37  H14 non d ame      -8.117   7.851  70.475  0.00  0.00     0.028 H 
ATOM     38  H15 non d ame      -6.973   8.760  69.459  0.00  0.00     0.028 H 
ENDBRANCH  33  35
BRANCH  33  39
ATOM     39  C13 non d ame     -10.203   9.946  70.010  0.00  0.00    -0.071 C 
ATOM     40  H16 non d ame     -11.105  10.030  69.406  0.00  0.00     0.028 H 
ATOM     41  H17 non d ame     -10.404   9.315  70.877  0.00  0.00     0.028 H 
ATOM     42  H18 non d ame      -9.897  10.936  70.346  0.00  0.00     0.028 H 
ENDBRANCH  33  39
ENDBRANCH   7  33
ENDBRANCH   4   7
ENDBRANCH   1   3
BRANCH   1  43
ATOM     43  C15 non d ame      -9.282  10.074  63.433  0.00  0.00     0.240 C 
ATOM     44  O5  non d ame      -9.123  10.469  62.323  0.00  0.00    -0.271 OA
ATOM     45  N6  non d ame      -8.742   8.742  63.830  0.00  0.00    -0.355 N 
ATOM     46  H46 non d ame      -8.868   8.398  64.771  0.00  0.00     0.162 HD
BRANCH  45  47
ATOM     47  C20 non d ame      -8.019   7.919  62.837  0.00  0.00     0.013 C 
ATOM     48  H30 non d ame      -8.600   7.918  61.915  0.00  0.00     0.072 H 
BRANCH  47  49
ATOM     49  C21 non d ame      -7.882   6.507  63.361  0.00  0.00    -0.038 C 
ATOM     50  H31 non d ame      -8.625   5.920  62.824  0.00  0.00     0.036 H 
ATOM     51  H32 non d ame      -6.823   6.261  63.272  0.00  0.00     0.036 H 
BRANCH  49  52
ATOM     52  C22 non d ame      -8.233   6.389  64.861  0.00  0.00     0.018 C 
ATOM     53  H33 non d ame      -7.284   6.238  65.376  0.00  0.00     0.048 H 
ATOM     54  H34 non d ame      -8.845   7.260  65.091  0.00  0.00     0.048 H 
BRANCH  52  55
ATOM     55  C23 non d ame      -9.107   5.149  65.203  0.00  0.00     0.259 C 
ATOM     56  O7  non d ame      -9.412   4.375  64.356  0.00  0.00    -0.265 OA
BRANCH  55  57
ATOM     57  O8  non d ame      -9.550   4.958  66.541  0.00  0.00    -0.317 OA
BRANCH  57  58
ATOM     58  C29 non d ame     -10.552   5.890  66.961  0.00  0.00     0.052 C 
ATOM     59  H47 non d ame     -10.226   6.860  66.589  0.00  0.00     0.082 H 
ATOM     60  H48 non d ame     -11.501   5.470  66.630  0.00  0.00     0.082 H 
BRANCH  58  61
ATOM     61  C35 non d ame     -10.548   5.930  68.512  0.00  0.00    -0.034 A 
ATOM     62  C30 non d ame     -11.603   6.523  69.198  0.00  0.00    -0.075 A 
ATOM     63  C31 non d ame     -11.599   6.559  70.591  0.00  0.00    -0.082 A 
ATOM     64  H49 non d ame     -12.434   6.958  68.642  0.00  0.00     0.084 H 
ATOM     65  C32 non d ame     -10.531   6.002  71.300  0.00  0.00    -0.083 A 
ATOM     66  H50 non d ame     -12.430   7.021  71.125  0.00  0.00     0.083 H 
ATOM     67  C33 non d ame      -9.478   5.415  70.612  0.00  0.00    -0.082 A 
ATOM     68  H51 non d ame     -10.521   6.025  72.390  0.00  0.00     0.083 H 
ATOM     69  C34 non d ame      -9.479   5.375  69.220  0.00  0.00    -0.075 A 
ATOM     70  H52 non d ame      -8.645   4.983  71.169  0.00  0.00     0.083 H 
ATOM     71  H53 non d ame      -8.648   4.910  68.687  0.00  0.00     0.084 H 
ENDBRANCH  58  61
ENDBRANCH  57  58
ENDBRANCH  55  57
ENDBRANCH  52  55
ENDBRANCH  49  52
ENDBRANCH  47  49
BRANCH  47  72
ATOM     72  C24 non d ame      -6.632   8.508  62.590  0.00  0.00    -0.039 C 
ATOM     73  H35 non d ame      -6.076   7.731  62.066  0.00  0.00     0.036 H 
ATOM     74  H36 non d ame      -6.807   9.471  62.108  0.00  0.00     0.036 H 
BRANCH  72  75
ATOM     75  C25 non d ame      -5.858   8.800  63.961  0.00  0.00    -0.001 C 
ATOM     76  C26 non d ame      -5.622  10.418  64.137  0.00  0.00    -0.035 C 
ATOM     77  C27 non d ame      -4.313  10.641  64.406  0.00  0.00     0.085 C 
ATOM     78  H38 non d ame      -5.777  10.924  63.185  0.00  0.00     0.036 H 
ATOM     79  H39 non d ame      -6.130  10.775  65.033  0.00  0.00     0.036 H 
ATOM     80  N5  non d ame      -3.576   9.358  64.106  0.00  0.00    -0.049 N 
ATOM     81  H40 non d ame      -3.997  11.407  63.697  0.00  0.00     0.075 H 
ATOM     82  H41 non d ame      -4.265  10.836  65.476  0.00  0.00     0.075 H 
ATOM     83  C28 non d ame      -4.708   8.213  63.985  0.00  0.00     0.193 C 
ATOM     84  H42 non d ame      -3.145   9.480  63.202  0.00  0.00     0.280 HD
ATOM     85  H43 non d ame      -3.005   9.160  64.915  0.00  0.00     0.280 HD
ATOM     86  H44 non d ame      -4.866   7.501  64.795  0.00  0.00     0.129 H 
ATOM     87  H37 non d ame      -6.300   8.269  64.805  0.00  0.00     0.046 H 
BRANCH  83  88
ATOM     88  O6  non d ame      -4.485   7.420  62.818  0.00  0.00    -0.369 OA
ATOM     89  H45 non d ame      -5.090   6.674  62.818  0.00  0.00     0.212 HD
ENDBRANCH  83  88
ENDBRANCH  72  75
ENDBRANCH  47  72
ENDBRANCH  45  47
ENDBRANCH   1  43
BRANCH   1  90
ATOM     90  C16 non d ame     -10.287  12.334  63.881  0.00  0.00    -0.035 C 
ATOM     91  H21 non d ame      -9.735  13.021  64.523  0.00  0.00     0.037 H 
ATOM     92  H22 non d ame     -10.031  12.250  62.825  0.00  0.00     0.037 H 
BRANCH  90  93
ATOM     93  C17 non d ame     -11.782  12.784  63.937  0.00  0.00    -0.059 C 
ATOM     94  H23 non d ame     -11.857  13.743  63.425  0.00  0.00     0.038 H 
BRANCH  93  95
ATOM     95  C18 non d ame     -12.729  11.779  63.206  0.00  0.00    -0.073 C 
ATOM     96  H24 non d ame     -12.136  10.980  62.761  0.00  0.00     0.028 H 
ATOM     97  H25 non d ame     -13.430  11.354  63.924  0.00  0.00     0.028 H 
ATOM     98  H26 non d ame     -13.280  12.302  62.425  0.00  0.00     0.028 H 
ENDBRANCH  93  95
BRANCH  93  99
ATOM     99  C19 non d ame     -12.233  13.005  65.383  0.00  0.00    -0.073 C 
ATOM    100  H27 non d ame     -12.479  14.057  65.531  0.00  0.00     0.028 H 
ATOM    101  H28 non d ame     -13.113  12.393  65.585  0.00  0.00     0.028 H 
ATOM    102  H29 non d ame     -11.430  12.719  66.063  0.00  0.00     0.028 H 
ENDBRANCH  93  99
ENDBRANCH  90  93
ENDBRANCH   1  90
TORSDOF 26
ENDMDL
MODEL 13
REMARK VINA RESULT:      -6.2      3.525      9.552
REMARK  26 active torsions:
REMARK  status: ('A' for Active; 'I' for Inactive)
REMARK    1  A    between atoms: C2_2  and  C3_3 
REMARK    2  A    between atoms: C4_6  and  C5_7 
REMARK       I    between atoms: C5_7  and  N2_9 
REMARK    3  A    between atoms: N2_9  and  C6_10 
REMARK    4  A    between atoms: C6_10  and  C7_11 
REMARK    5  A    between atoms: C6_10  and  C8_13 
REMARK       I    between atoms: C7_11  and  N3_14 
REMARK    6  A    between atoms: N3_14  and  C9_15 
REMARK    7  A    between atoms: C9_15  and  C10_16 
REMARK    8  A    between atoms: C9_15  and  C11_18 
REMARK       I    between atoms: C10_16  and  N4_21 
REMARK    9  A    between atoms: C11_18  and  C12_19 
REMARK   10  A    between atoms: C11_18  and  C13_20 
REMARK   11  A    between atoms: N4_21  and  C14_22 
REMARK   12  A    between atoms: C14_22  and  C15_23 
REMARK   13  A    between atoms: C14_22  and  C16_25 
REMARK       I    between atoms: C15_23  and  N6_40 
REMARK   14  A    between atoms: C16_25  and  C17_26 
REMARK   15  A    between atoms: C17_26  and  C18_27 
REMARK   16  A    between atoms: C17_26  and  C19_28 
REMARK   17  A    between atoms: C20_29  and  C21_30 
REMARK   18  A    between atoms: C20_29  and  C24_33 
REMARK   19  A    between atoms: C20_29  and  N6_40 
REMARK   20  A    between atoms: C21_30  and  C22_31 
REMARK   21  A    between atoms: C22_31  and  C23_32 
REMARK   22  A    between atoms: C23_32  and  O8_43 
REMARK   23  A    between atoms: C24_33  and  C25_34 
REMARK   24  A    between atoms: C28_38  and  O6_39 
REMARK   25  A    between atoms: C29_42  and  O8_43 
REMARK   26  A    between atoms: C29_42  and  C35_49 
ROOT
ATOM      1  C14 non d ame      -8.292   8.211  62.781  0.00  0.00     0.089 C 
ATOM      2  H20 non d ame      -8.758   8.279  61.798  0.00  0.00     0.087 H 
ENDROOT
BRANCH   1   3
ATOM      3  N4  non d ame      -9.130   8.946  63.716  0.00  0.00    -0.346 N 
ATOM      4  C10 non d ame      -9.639  10.322  63.363  0.00  0.00     0.241 C 
ATOM      5  O4  non d ame      -9.357  10.817  62.321  0.00  0.00    -0.271 OA
ATOM      6  H19 non d ame      -9.355   8.509  64.599  0.00  0.00     0.163 HD
BRANCH   4   7
ATOM      7  C9  non d ame     -10.509  11.068  64.340  0.00  0.00     0.092 C 
ATOM      8  H11 non d ame     -11.185  10.365  64.827  0.00  0.00     0.088 H 
BRANCH   7   9
ATOM      9  N3  non d ame      -9.672  11.659  65.389  0.00  0.00    -0.346 N 
ATOM     10  C7  non d ame      -9.948  11.378  66.776  0.00  0.00     0.240 C 
ATOM     11  O3  non d ame     -10.841  10.679  67.067  0.00  0.00    -0.271 OA
ATOM     12  H10 non d ame      -8.898  12.264  65.153  0.00  0.00     0.163 HD
BRANCH  10  13
ATOM     13  C6  non d ame      -9.055  12.012  67.887  0.00  0.00     0.086 C 
ATOM     14  H6  non d ame      -8.456  12.847  67.522  0.00  0.00     0.086 H 
BRANCH  13  15
ATOM     15  N2  non d ame      -9.912  12.543  68.935  0.00  0.00    -0.343 N 
ATOM     16  C5  non d ame     -10.501  13.875  68.781  0.00  0.00     0.273 C 
ATOM     17  O2  non d ame     -10.276  14.513  67.812  0.00  0.00    -0.266 OA
ATOM     18  H5  non d ame     -10.097  11.991  69.761  0.00  0.00     0.163 HD
BRANCH  16  19
ATOM     19  C4  non d ame     -11.410  14.447  69.880  0.00  0.00     0.154 A 
ATOM     20  C1  non d ame     -11.009  15.205  71.026  0.00  0.00    -0.017 A 
ATOM     21  C2  non d ame     -12.211  15.487  71.713  0.00  0.00     0.077 A 
ATOM     22  H1  non d ame     -10.001  15.505  71.314  0.00  0.00     0.091 H 
ATOM     23  O1  non d ame     -13.181  14.951  71.032  0.00  0.00    -0.218 OA
ATOM     24  N1  non d ame     -12.739  14.338  69.958  0.00  0.00    -0.123 NA
BRANCH  21  25
ATOM     25  C3  non d ame     -12.344  16.275  73.009  0.00  0.00    -0.029 C 
ATOM     26  H2  non d ame     -12.068  17.315  72.833  0.00  0.00     0.036 H 
ATOM     27  H3  non d ame     -13.374  16.227  73.360  0.00  0.00     0.036 H 
ATOM     28  H4  non d ame     -11.683  15.847  73.764  0.00  0.00     0.036 H 
ENDBRANCH  21  25
ENDBRANCH  16  19
ENDBRANCH  13  15
BRANCH  13  29
ATOM     29  C8  non d ame      -8.134  10.964  68.456  0.00  0.00    -0.049 C 
ATOM     30  H7  non d ame      -8.315  10.863  69.526  0.00  0.00     0.030 H 
ATOM     31  H8  non d ame      -8.320  10.010  67.964  0.00  0.00     0.030 H 
ATOM     32  H9  non d ame      -7.098  11.262  68.291  0.00  0.00     0.030 H 
ENDBRANCH  13  29
ENDBRANCH  10  13
ENDBRANCH   7   9
BRANCH   7  33
ATOM     33  C11 non d ame     -11.276  12.198  63.594  0.00  0.00    -0.033 C 
ATOM     34  H12 non d ame     -10.780  12.355  62.637  0.00  0.00     0.042 H 
BRANCH  33  35
ATOM     35  C12 non d ame     -12.751  11.783  63.296  0.00  0.00    -0.071 C 
ATOM     36  H13 non d ame     -12.762  10.814  62.797  0.00  0.00     0.028 H 
ATOM     37  H14 non d ame     -13.305  11.716  64.231  0.00  0.00     0.028 H 
ATOM     38  H15 non d ame     -13.213  12.529  62.651  0.00  0.00     0.028 H 
ENDBRANCH  33  35
BRANCH  33  39
ATOM     39  C13 non d ame     -11.217  13.538  64.396  0.00  0.00    -0.071 C 
ATOM     40  H16 non d ame     -12.229  13.894  64.583  0.00  0.00     0.028 H 
ATOM     41  H17 non d ame     -10.709  13.370  65.347  0.00  0.00     0.028 H 
ATOM     42  H18 non d ame     -10.670  14.283  63.819  0.00  0.00     0.028 H 
ENDBRANCH  33  39
ENDBRANCH   7  33
ENDBRANCH   4   7
ENDBRANCH   1   3
BRANCH   1  43
ATOM     43  C15 non d ame      -8.174   6.740  63.274  0.00  0.00     0.240 C 
ATOM     44  O5  non d ame      -7.734   5.907  62.551  0.00  0.00    -0.271 OA
ATOM     45  N6  non d ame      -8.603   6.372  64.654  0.00  0.00    -0.355 N 
ATOM     46  H46 non d ame      -8.975   7.072  65.279  0.00  0.00     0.162 HD
BRANCH  45  47
ATOM     47  C20 non d ame      -8.485   4.970  65.109  0.00  0.00     0.013 C 
ATOM     48  H30 non d ame      -8.121   4.375  64.271  0.00  0.00     0.072 H 
BRANCH  47  49
ATOM     49  C21 non d ame      -9.842   4.470  65.547  0.00  0.00    -0.038 C 
ATOM     50  H31 non d ame     -10.566   5.145  65.092  0.00  0.00     0.036 H 
ATOM     51  H32 non d ame      -9.858   3.407  65.300  0.00  0.00     0.036 H 
BRANCH  49  52
ATOM     52  C22 non d ame     -10.053   4.567  67.074  0.00  0.00     0.018 C 
ATOM     53  H33 non d ame     -10.755   3.772  67.327  0.00  0.00     0.048 H 
ATOM     54  H34 non d ame      -9.054   4.570  67.510  0.00  0.00     0.048 H 
BRANCH  52  55
ATOM     55  C23 non d ame     -10.725   5.892  67.530  0.00  0.00     0.259 C 
ATOM     56  O7  non d ame     -11.060   6.704  66.731  0.00  0.00    -0.265 OA
BRANCH  55  57
ATOM     57  O8  non d ame     -10.922   6.130  68.918  0.00  0.00    -0.317 OA
BRANCH  57  58
ATOM     58  C29 non d ame     -10.394   7.379  69.375  0.00  0.00     0.052 C 
ATOM     59  H47 non d ame      -9.506   7.129  69.955  0.00  0.00     0.082 H 
ATOM     60  H48 non d ame     -10.307   8.004  68.487  0.00  0.00     0.082 H 
BRANCH  58  61
ATOM     61  C35 non d ame     -11.439   8.021  70.326  0.00  0.00    -0.034 A 
ATOM     62  C30 non d ame     -12.368   7.222  70.984  0.00  0.00    -0.075 A 
ATOM     63  C31 non d ame     -13.306   7.799  71.839  0.00  0.00    -0.082 A 
ATOM     64  H49 non d ame     -12.360   6.142  70.831  0.00  0.00     0.084 H 
ATOM     65  C32 non d ame     -13.315   9.183  72.031  0.00  0.00    -0.083 A 
ATOM     66  H50 non d ame     -14.030   7.169  72.355  0.00  0.00     0.083 H 
ATOM     67  C33 non d ame     -12.389   9.978  71.370  0.00  0.00    -0.082 A 
ATOM     68  H51 non d ame     -14.045   9.642  72.698  0.00  0.00     0.083 H 
ATOM     69  C34 non d ame     -11.448   9.404  70.517  0.00  0.00    -0.075 A 
ATOM     70  H52 non d ame     -12.400  11.058  71.521  0.00  0.00     0.083 H 
ATOM     71  H53 non d ame     -10.723  10.036  70.002  0.00  0.00     0.084 H 
ENDBRANCH  58  61
ENDBRANCH  57  58
ENDBRANCH  55  57
ENDBRANCH  52  55
ENDBRANCH  49  52
ENDBRANCH  47  49
BRANCH  47  72
ATOM     72  C24 non d ame      -7.508   4.889  66.280  0.00  0.00    -0.039 C 
ATOM     73  H35 non d ame      -8.095   5.141  67.164  0.00  0.00     0.036 H 
ATOM     74  H36 non d ame      -7.040   3.907  66.200  0.00  0.00     0.036 H 
BRANCH  72  75
ATOM     75  C25 non d ame      -6.342   5.980  66.159  0.00  0.00    -0.001 C 
ATOM     76  C26 non d ame      -4.962   5.267  65.622  0.00  0.00    -0.035 C 
ATOM     77  C27 non d ame      -3.946   5.601  66.454  0.00  0.00     0.085 C 
ATOM     78  H38 non d ame      -5.034   4.185  65.728  0.00  0.00     0.036 H 
ATOM     79  H39 non d ame      -4.662   5.702  64.668  0.00  0.00     0.036 H 
ATOM     80  N5  non d ame      -4.569   6.206  67.690  0.00  0.00    -0.049 N 
ATOM     81  H40 non d ame      -3.468   4.658  66.723  0.00  0.00     0.075 H 
ATOM     82  H41 non d ame      -3.380   6.369  65.929  0.00  0.00     0.075 H 
ATOM     83  C28 non d ame      -6.100   6.536  67.299  0.00  0.00     0.193 C 
ATOM     84  H42 non d ame      -4.566   5.483  68.395  0.00  0.00     0.280 HD
ATOM     85  H43 non d ame      -4.086   7.077  67.857  0.00  0.00     0.280 HD
ATOM     86  H44 non d ame      -6.411   7.560  67.091  0.00  0.00     0.129 H 
ATOM     87  H37 non d ame      -6.672   6.879  65.637  0.00  0.00     0.046 H 
BRANCH  83  88
ATOM     88  O6  non d ame      -6.982   6.071  68.322  0.00  0.00    -0.369 OA
ATOM     89  H45 non d ame      -6.980   6.694  69.053  0.00  0.00     0.212 HD
ENDBRANCH  83  88
ENDBRANCH  72  75
ENDBRANCH  47  72
ENDBRANCH  45  47
ENDBRANCH   1  43
BRANCH   1  90
ATOM     90  C16 non d ame      -6.913   8.849  62.743  0.00  0.00    -0.035 C 
ATOM     91  H21 non d ame      -6.438   8.457  61.842  0.00  0.00     0.037 H 
ATOM     92  H22 non d ame      -7.088   9.920  62.844  0.00  0.00     0.037 H 
BRANCH  90  93
ATOM     93  C17 non d ame      -5.997   8.436  63.939  0.00  0.00    -0.059 C 
ATOM     94  H23 non d ame      -6.437   7.553  64.402  0.00  0.00     0.038 H 
BRANCH  93  95
ATOM     95  C18 non d ame      -4.554   8.060  63.474  0.00  0.00    -0.073 C 
ATOM     96  H24 non d ame      -4.612   7.371  62.631  0.00  0.00     0.028 H 
ATOM     97  H25 non d ame      -4.024   8.962  63.169  0.00  0.00     0.028 H 
ATOM     98  H26 non d ame      -4.019   7.585  64.297  0.00  0.00     0.028 H 
ENDBRANCH  93  95
BRANCH  93  99
ATOM     99  C19 non d ame      -5.957   9.536  65.003  0.00  0.00    -0.073 C 
ATOM    100  H27 non d ame      -4.942   9.928  65.082  0.00  0.00     0.028 H 
ATOM    101  H28 non d ame      -6.637  10.340  64.719  0.00  0.00     0.028 H 
ATOM    102  H29 non d ame      -6.264   9.124  65.964  0.00  0.00     0.028 H 
ENDBRANCH  93  99
ENDBRANCH  90  93
ENDBRANCH   1  90
TORSDOF 26
ENDMDL
MODEL 14
REMARK VINA RESULT:      -6.2      3.274      9.178
REMARK  26 active torsions:
REMARK  status: ('A' for Active; 'I' for Inactive)
REMARK    1  A    between atoms: C2_2  and  C3_3 
REMARK    2  A    between atoms: C4_6  and  C5_7 
REMARK       I    between atoms: C5_7  and  N2_9 
REMARK    3  A    between atoms: N2_9  and  C6_10 
REMARK    4  A    between atoms: C6_10  and  C7_11 
REMARK    5  A    between atoms: C6_10  and  C8_13 
REMARK       I    between atoms: C7_11  and  N3_14 
REMARK    6  A    between atoms: N3_14  and  C9_15 
REMARK    7  A    between atoms: C9_15  and  C10_16 
REMARK    8  A    between atoms: C9_15  and  C11_18 
REMARK       I    between atoms: C10_16  and  N4_21 
REMARK    9  A    between atoms: C11_18  and  C12_19 
REMARK   10  A    between atoms: C11_18  and  C13_20 
REMARK   11  A    between atoms: N4_21  and  C14_22 
REMARK   12  A    between atoms: C14_22  and  C15_23 
REMARK   13  A    between atoms: C14_22  and  C16_25 
REMARK       I    between atoms: C15_23  and  N6_40 
REMARK   14  A    between atoms: C16_25  and  C17_26 
REMARK   15  A    between atoms: C17_26  and  C18_27 
REMARK   16  A    between atoms: C17_26  and  C19_28 
REMARK   17  A    between atoms: C20_29  and  C21_30 
REMARK   18  A    between atoms: C20_29  and  C24_33 
REMARK   19  A    between atoms: C20_29  and  N6_40 
REMARK   20  A    between atoms: C21_30  and  C22_31 
REMARK   21  A    between atoms: C22_31  and  C23_32 
REMARK   22  A    between atoms: C23_32  and  O8_43 
REMARK   23  A    between atoms: C24_33  and  C25_34 
REMARK   24  A    between atoms: C28_38  and  O6_39 
REMARK   25  A    between atoms: C29_42  and  O8_43 
REMARK   26  A    between atoms: C29_42  and  C35_49 
ROOT
ATOM      1  C14 non d ame      -9.831   5.946  68.075  0.00  0.00     0.089 C 
ATOM      2  H20 non d ame     -10.659   5.705  67.407  0.00  0.00     0.087 H 
ENDROOT
BRANCH   1   3
ATOM      3  N4  non d ame      -9.094   7.049  67.477  0.00  0.00    -0.346 N 
ATOM      4  C10 non d ame      -9.828   8.162  66.771  0.00  0.00     0.241 C 
ATOM      5  O4  non d ame     -11.013   8.146  66.695  0.00  0.00    -0.271 OA
ATOM      6  H19 non d ame      -8.086   7.043  67.549  0.00  0.00     0.163 HD
BRANCH   4   7
ATOM      7  C9  non d ame      -9.050   9.299  66.162  0.00  0.00     0.092 C 
ATOM      8  H11 non d ame      -8.730   9.018  65.158  0.00  0.00     0.088 H 
BRANCH   7   9
ATOM      9  N3  non d ame      -9.921  10.471  66.026  0.00  0.00    -0.346 N 
ATOM     10  C7  non d ame     -10.379  10.881  64.722  0.00  0.00     0.240 C 
ATOM     11  O3  non d ame     -10.056  10.282  63.770  0.00  0.00    -0.271 OA
ATOM     12  H10 non d ame     -10.208  10.999  66.838  0.00  0.00     0.163 HD
BRANCH  10  13
ATOM     13  C6  non d ame     -11.303  12.131  64.584  0.00  0.00     0.086 C 
ATOM     14  H6  non d ame     -12.086  12.163  65.343  0.00  0.00     0.086 H 
BRANCH  13  15
ATOM     15  N2  non d ame     -10.503  13.331  64.762  0.00  0.00    -0.343 N 
ATOM     16  C5  non d ame     -10.984  14.396  65.646  0.00  0.00     0.273 C 
ATOM     17  O2  non d ame     -12.017  14.278  66.206  0.00  0.00    -0.266 OA
ATOM     18  H5  non d ame      -9.622  13.425  64.276  0.00  0.00     0.163 HD
BRANCH  16  19
ATOM     19  C4  non d ame     -10.147  15.669  65.843  0.00  0.00     0.154 A 
ATOM     20  C1  non d ame      -8.861  15.772  66.463  0.00  0.00    -0.017 A 
ATOM     21  C2  non d ame      -8.531  17.143  66.391  0.00  0.00     0.077 A 
ATOM     22  H1  non d ame      -8.259  14.973  66.897  0.00  0.00     0.091 H 
ATOM     23  O1  non d ame      -9.517  17.748  65.796  0.00  0.00    -0.218 OA
ATOM     24  N1  non d ame     -10.472  16.909  65.467  0.00  0.00    -0.123 NA
BRANCH  21  25
ATOM     25  C3  non d ame      -7.256  17.792  66.912  0.00  0.00    -0.029 C 
ATOM     26  H2  non d ame      -6.693  18.210  66.078  0.00  0.00     0.036 H 
ATOM     27  H3  non d ame      -7.512  18.586  67.612  0.00  0.00     0.036 H 
ATOM     28  H4  non d ame      -6.648  17.042  67.421  0.00  0.00     0.036 H 
ENDBRANCH  21  25
ENDBRANCH  16  19
ENDBRANCH  13  15
BRANCH  13  29
ATOM     29  C8  non d ame     -11.946  12.136  63.221  0.00  0.00    -0.049 C 
ATOM     30  H7  non d ame     -12.260  11.124  62.963  0.00  0.00     0.030 H 
ATOM     31  H8  non d ame     -12.814  12.795  63.229  0.00  0.00     0.030 H 
ATOM     32  H9  non d ame     -11.227  12.491  62.482  0.00  0.00     0.030 H 
ENDBRANCH  13  29
ENDBRANCH  10  13
ENDBRANCH   7   9
BRANCH   7  33
ATOM     33  C11 non d ame      -7.846   9.654  67.082  0.00  0.00    -0.033 C 
ATOM     34  H12 non d ame      -7.822   8.925  67.890  0.00  0.00     0.042 H 
BRANCH  33  35
ATOM     35  C12 non d ame      -6.492   9.548  66.313  0.00  0.00    -0.071 C 
ATOM     36  H13 non d ame      -5.718  10.081  66.865  0.00  0.00     0.028 H 
ATOM     37  H14 non d ame      -6.212   8.500  66.214  0.00  0.00     0.028 H 
ATOM     38  H15 non d ame      -6.602   9.990  65.324  0.00  0.00     0.028 H 
ENDBRANCH  33  35
BRANCH  33  39
ATOM     39  C13 non d ame      -8.026  11.072  67.716  0.00  0.00    -0.071 C 
ATOM     40  H16 non d ame      -7.354  11.177  68.567  0.00  0.00     0.028 H 
ATOM     41  H17 non d ame      -7.792  11.835  66.972  0.00  0.00     0.028 H 
ATOM     42  H18 non d ame      -9.057  11.193  68.048  0.00  0.00     0.028 H 
ENDBRANCH  33  39
ENDBRANCH   7  33
ENDBRANCH   4   7
ENDBRANCH   1   3
BRANCH   1  43
ATOM     43  C15 non d ame     -10.321   6.386  69.484  0.00  0.00     0.240 C 
ATOM     44  O5  non d ame     -11.047   5.679  70.105  0.00  0.00    -0.271 OA
ATOM     45  N6  non d ame      -9.876   7.685  70.064  0.00  0.00    -0.355 N 
ATOM     46  H46 non d ame      -9.256   8.292  69.548  0.00  0.00     0.162 HD
BRANCH  45  47
ATOM     47  C20 non d ame     -10.350   8.089  71.405  0.00  0.00     0.013 C 
ATOM     48  H30 non d ame     -10.934   7.266  71.817  0.00  0.00     0.072 H 
BRANCH  47  49
ATOM     49  C21 non d ame     -11.214   9.323  71.281  0.00  0.00    -0.038 C 
ATOM     50  H31 non d ame     -12.055   9.163  71.955  0.00  0.00     0.036 H 
ATOM     51  H32 non d ame     -10.544  10.169  71.435  0.00  0.00     0.036 H 
BRANCH  49  52
ATOM     52  C22 non d ame     -11.814   9.493  69.868  0.00  0.00     0.018 C 
ATOM     53  H33 non d ame     -11.159   8.936  69.199  0.00  0.00     0.048 H 
ATOM     54  H34 non d ame     -12.864   9.216  69.958  0.00  0.00     0.048 H 
BRANCH  52  55
ATOM     55  C23 non d ame     -11.801  10.960  69.354  0.00  0.00     0.259 C 
ATOM     56  O7  non d ame     -11.946  11.196  68.199  0.00  0.00    -0.265 OA
BRANCH  55  57
ATOM     57  O8  non d ame     -11.598  12.021  70.280  0.00  0.00    -0.317 OA
BRANCH  57  58
ATOM     58  C29 non d ame     -11.961  13.310  69.777  0.00  0.00     0.052 C 
ATOM     59  H47 non d ame     -11.056  13.717  69.328  0.00  0.00     0.082 H 
ATOM     60  H48 non d ame     -12.848  13.148  69.164  0.00  0.00     0.082 H 
BRANCH  58  61
ATOM     61  C35 non d ame     -12.357  14.201  70.984  0.00  0.00    -0.034 A 
ATOM     62  C30 non d ame     -13.444  13.856  71.780  0.00  0.00    -0.075 A 
ATOM     63  C31 non d ame     -13.798  14.657  72.865  0.00  0.00    -0.082 A 
ATOM     64  H49 non d ame     -14.017  12.956  71.555  0.00  0.00     0.084 H 
ATOM     65  C32 non d ame     -13.063  15.810  73.150  0.00  0.00    -0.083 A 
ATOM     66  H50 non d ame     -14.649  14.380  73.488  0.00  0.00     0.083 H 
ATOM     67  C33 non d ame     -11.981  16.154  72.350  0.00  0.00    -0.082 A 
ATOM     68  H51 non d ame     -13.333  16.441  73.996  0.00  0.00     0.083 H 
ATOM     69  C34 non d ame     -11.622  15.354  71.267  0.00  0.00    -0.075 A 
ATOM     70  H52 non d ame     -11.411  17.056  72.575  0.00  0.00     0.083 H 
ATOM     71  H53 non d ame     -10.770  15.631  70.645  0.00  0.00     0.084 H 
ENDBRANCH  58  61
ENDBRANCH  57  58
ENDBRANCH  55  57
ENDBRANCH  52  55
ENDBRANCH  49  52
ENDBRANCH  47  49
BRANCH  47  72
ATOM     72  C24 non d ame      -9.154   8.392  72.305  0.00  0.00    -0.039 C 
ATOM     73  H35 non d ame      -8.328   8.606  71.626  0.00  0.00     0.036 H 
ATOM     74  H36 non d ame      -9.500   9.158  73.000  0.00  0.00     0.036 H 
BRANCH  72  75
ATOM     75  C25 non d ame      -8.730   7.119  73.179  0.00  0.00    -0.001 C 
ATOM     76  C26 non d ame     -10.051   6.190  73.492  0.00  0.00    -0.035 C 
ATOM     77  C27 non d ame     -10.108   5.949  74.824  0.00  0.00     0.085 C 
ATOM     78  H38 non d ame     -10.960   6.756  73.296  0.00  0.00     0.036 H 
ATOM     79  H39 non d ame      -9.922   5.199  73.059  0.00  0.00     0.036 H 
ATOM     80  N5  non d ame      -9.136   6.897  75.486  0.00  0.00    -0.049 N 
ATOM     81  H40 non d ame     -11.122   6.213  75.125  0.00  0.00     0.075 H 
ATOM     82  H41 non d ame      -9.750   4.928  74.951  0.00  0.00     0.075 H 
ATOM     83  C28 non d ame      -8.203   7.475  74.303  0.00  0.00     0.193 C 
ATOM     84  H42 non d ame      -9.687   7.655  75.862  0.00  0.00     0.280 HD
ATOM     85  H43 non d ame      -8.563   6.336  76.101  0.00  0.00     0.280 HD
ATOM     86  H44 non d ame      -7.185   7.110  74.170  0.00  0.00     0.129 H 
ATOM     87  H37 non d ame      -7.853   6.613  72.773  0.00  0.00     0.046 H 
BRANCH  83  88
ATOM     88  O6  non d ame      -8.087   8.895  74.416  0.00  0.00    -0.369 OA
ATOM     89  H45 non d ame      -7.792   9.122  75.301  0.00  0.00     0.212 HD
ENDBRANCH  83  88
ENDBRANCH  72  75
ENDBRANCH  47  72
ENDBRANCH  45  47
ENDBRANCH   1  43
BRANCH   1  90
ATOM     90  C16 non d ame      -8.908   4.746  68.205  0.00  0.00    -0.035 C 
ATOM     91  H21 non d ame      -7.937   5.088  67.844  0.00  0.00     0.037 H 
ATOM     92  H22 non d ame      -9.017   4.408  69.236  0.00  0.00     0.037 H 
BRANCH  90  93
ATOM     93  C17 non d ame      -9.315   3.540  67.300  0.00  0.00    -0.059 C 
ATOM     94  H23 non d ame     -10.191   3.071  67.749  0.00  0.00     0.038 H 
BRANCH  93  95
ATOM     95  C18 non d ame      -9.705   3.992  65.856  0.00  0.00    -0.073 C 
ATOM     96  H24 non d ame     -10.732   4.357  65.855  0.00  0.00     0.028 H 
ATOM     97  H25 non d ame      -9.036   4.788  65.532  0.00  0.00     0.028 H 
ATOM     98  H26 non d ame      -9.619   3.145  65.175  0.00  0.00     0.028 H 
ENDBRANCH  93  95
BRANCH  93  99
ATOM     99  C19 non d ame      -8.206   2.486  67.260  0.00  0.00    -0.073 C 
ATOM    100  H27 non d ame      -7.238   2.980  67.163  0.00  0.00     0.028 H 
ATOM    101  H28 non d ame      -8.226   1.903  68.182  0.00  0.00     0.028 H 
ATOM    102  H29 non d ame      -8.363   1.823  66.409  0.00  0.00     0.028 H 
ENDBRANCH  93  99
ENDBRANCH  90  93
ENDBRANCH   1  90
TORSDOF 26
ENDMDL
MODEL 15
REMARK VINA RESULT:      -6.2      1.999      7.271
REMARK  26 active torsions:
REMARK  status: ('A' for Active; 'I' for Inactive)
REMARK    1  A    between atoms: C2_2  and  C3_3 
REMARK    2  A    between atoms: C4_6  and  C5_7 
REMARK       I    between atoms: C5_7  and  N2_9 
REMARK    3  A    between atoms: N2_9  and  C6_10 
REMARK    4  A    between atoms: C6_10  and  C7_11 
REMARK    5  A    between atoms: C6_10  and  C8_13 
REMARK       I    between atoms: C7_11  and  N3_14 
REMARK    6  A    between atoms: N3_14  and  C9_15 
REMARK    7  A    between atoms: C9_15  and  C10_16 
REMARK    8  A    between atoms: C9_15  and  C11_18 
REMARK       I    between atoms: C10_16  and  N4_21 
REMARK    9  A    between atoms: C11_18  and  C12_19 
REMARK   10  A    between atoms: C11_18  and  C13_20 
REMARK   11  A    between atoms: N4_21  and  C14_22 
REMARK   12  A    between atoms: C14_22  and  C15_23 
REMARK   13  A    between atoms: C14_22  and  C16_25 
REMARK       I    between atoms: C15_23  and  N6_40 
REMARK   14  A    between atoms: C16_25  and  C17_26 
REMARK   15  A    between atoms: C17_26  and  C18_27 
REMARK   16  A    between atoms: C17_26  and  C19_28 
REMARK   17  A    between atoms: C20_29  and  C21_30 
REMARK   18  A    between atoms: C20_29  and  C24_33 
REMARK   19  A    between atoms: C20_29  and  N6_40 
REMARK   20  A    between atoms: C21_30  and  C22_31 
REMARK   21  A    between atoms: C22_31  and  C23_32 
REMARK   22  A    between atoms: C23_32  and  O8_43 
REMARK   23  A    between atoms: C24_33  and  C25_34 
REMARK   24  A    between atoms: C28_38  and  O6_39 
REMARK   25  A    between atoms: C29_42  and  O8_43 
REMARK   26  A    between atoms: C29_42  and  C35_49 
ROOT
ATOM      1  C14 non d ame      -6.749  14.489  68.221  0.00  0.00     0.089 C 
ATOM      2  H20 non d ame      -5.935  14.867  67.601  0.00  0.00     0.087 H 
ENDROOT
BRANCH   1   3
ATOM      3  N4  non d ame      -7.961  15.193  67.830  0.00  0.00    -0.346 N 
ATOM      4  C10 non d ame      -7.913  16.255  66.760  0.00  0.00     0.241 C 
ATOM      5  O4  non d ame      -6.886  16.527  66.230  0.00  0.00    -0.271 OA
ATOM      6  H19 non d ame      -8.824  14.950  68.295  0.00  0.00     0.163 HD
BRANCH   4   7
ATOM      7  C9  non d ame      -9.177  16.971  66.364  0.00  0.00     0.092 C 
ATOM      8  H11 non d ame      -9.216  17.057  65.278  0.00  0.00     0.088 H 
BRANCH   7   9
ATOM      9  N3  non d ame     -10.339  16.176  66.776  0.00  0.00    -0.346 N 
ATOM     10  C7  non d ame     -10.576  14.885  66.182  0.00  0.00     0.240 C 
ATOM     11  O3  non d ame      -9.844  14.468  65.369  0.00  0.00    -0.271 OA
ATOM     12  H10 non d ame     -10.980  16.523  67.476  0.00  0.00     0.163 HD
BRANCH  10  13
ATOM     13  C6  non d ame     -11.816  14.046  66.623  0.00  0.00     0.086 C 
ATOM     14  H6  non d ame     -11.568  13.006  66.836  0.00  0.00     0.086 H 
BRANCH  13  15
ATOM     15  N2  non d ame     -12.350  14.606  67.854  0.00  0.00    -0.343 N 
ATOM     16  C5  non d ame     -11.834  14.140  69.143  0.00  0.00     0.273 C 
ATOM     17  O2  non d ame     -10.993  13.311  69.179  0.00  0.00    -0.266 OA
ATOM     18  H5  non d ame     -13.072  15.312  67.814  0.00  0.00     0.163 HD
BRANCH  16  19
ATOM     19  C4  non d ame     -12.389  14.724  70.451  0.00  0.00     0.154 A 
ATOM     20  C1  non d ame     -11.657  15.024  71.644  0.00  0.00    -0.017 A 
ATOM     21  C2  non d ame     -12.620  15.536  72.542  0.00  0.00     0.077 A 
ATOM     22  H1  non d ame     -10.591  14.892  71.828  0.00  0.00     0.091 H 
ATOM     23  O1  non d ame     -13.766  15.528  71.927  0.00  0.00    -0.218 OA
ATOM     24  N1  non d ame     -13.657  15.059  70.706  0.00  0.00    -0.123 NA
BRANCH  21  25
ATOM     25  C3  non d ame     -12.361  16.010  73.966  0.00  0.00    -0.029 C 
ATOM     26  H2  non d ame     -13.305  16.293  74.432  0.00  0.00     0.036 H 
ATOM     27  H3  non d ame     -11.900  15.206  74.539  0.00  0.00     0.036 H 
ATOM     28  H4  non d ame     -11.693  16.872  73.946  0.00  0.00     0.036 H 
ENDBRANCH  21  25
ENDBRANCH  16  19
ENDBRANCH  13  15
BRANCH  13  29
ATOM     29  C8  non d ame     -12.864  14.085  65.541  0.00  0.00    -0.049 C 
ATOM     30  H7  non d ame     -12.378  14.093  64.565  0.00  0.00     0.030 H 
ATOM     31  H8  non d ame     -13.504  13.207  65.622  0.00  0.00     0.030 H 
ATOM     32  H9  non d ame     -13.468  14.986  65.652  0.00  0.00     0.030 H 
ENDBRANCH  13  29
ENDBRANCH  10  13
ENDBRANCH   7   9
BRANCH   7  33
ATOM     33  C11 non d ame      -9.227  18.361  67.063  0.00  0.00    -0.033 C 
ATOM     34  H12 non d ame      -8.646  18.288  67.981  0.00  0.00     0.042 H 
BRANCH  33  35
ATOM     35  C12 non d ame      -8.571  19.466  66.178  0.00  0.00    -0.071 C 
ATOM     36  H13 non d ame      -7.488  19.350  66.194  0.00  0.00     0.028 H 
ATOM     37  H14 non d ame      -8.932  19.373  65.154  0.00  0.00     0.028 H 
ATOM     38  H15 non d ame      -8.836  20.448  66.570  0.00  0.00     0.028 H 
ENDBRANCH  33  35
BRANCH  33  39
ATOM     39  C13 non d ame     -10.693  18.740  67.448  0.00  0.00    -0.071 C 
ATOM     40  H16 non d ame     -10.687  19.336  68.360  0.00  0.00     0.028 H 
ATOM     41  H17 non d ame     -11.143  19.318  66.640  0.00  0.00     0.028 H 
ATOM     42  H18 non d ame     -11.273  17.832  67.611  0.00  0.00     0.028 H 
ENDBRANCH  33  39
ENDBRANCH   7  33
ENDBRANCH   4   7
ENDBRANCH   1   3
BRANCH   1  43
ATOM     43  C15 non d ame      -6.979  12.963  68.024  0.00  0.00     0.240 C 
ATOM     44  O5  non d ame      -6.291  12.182  68.597  0.00  0.00    -0.271 OA
ATOM     45  N6  non d ame      -8.064  12.475  67.125  0.00  0.00    -0.355 N 
ATOM     46  H46 non d ame      -8.658  13.129  66.637  0.00  0.00     0.162 HD
BRANCH  45  47
ATOM     47  C20 non d ame      -8.271  11.022  66.948  0.00  0.00     0.013 C 
ATOM     48  H30 non d ame      -7.556  10.501  67.585  0.00  0.00     0.072 H 
BRANCH  47  49
ATOM     49  C21 non d ame      -8.035  10.655  65.501  0.00  0.00    -0.038 C 
ATOM     50  H31 non d ame      -7.796  11.591  64.995  0.00  0.00     0.036 H 
ATOM     51  H32 non d ame      -7.307   9.843  65.517  0.00  0.00     0.036 H 
BRANCH  49  52
ATOM     52  C22 non d ame      -9.298  10.096  64.811  0.00  0.00     0.018 C 
ATOM     53  H33 non d ame      -9.359   9.049  65.110  0.00  0.00     0.048 H 
ATOM     54  H34 non d ame     -10.104  10.783  65.068  0.00  0.00     0.048 H 
BRANCH  52  55
ATOM     55  C23 non d ame      -9.216  10.093  63.259  0.00  0.00     0.259 C 
ATOM     56  O7  non d ame      -9.356  11.102  62.647  0.00  0.00    -0.265 OA
BRANCH  55  57
ATOM     57  O8  non d ame      -8.985   8.868  62.576  0.00  0.00    -0.317 OA
BRANCH  57  58
ATOM     58  C29 non d ame      -7.749   8.827  61.856  0.00  0.00     0.052 C 
ATOM     59  H47 non d ame      -7.947   8.237  60.962  0.00  0.00     0.082 H 
ATOM     60  H48 non d ame      -7.428   9.865  61.764  0.00  0.00     0.082 H 
BRANCH  58  61
ATOM     61  C35 non d ame      -6.712   8.068  62.727  0.00  0.00    -0.034 A 
ATOM     62  C30 non d ame      -5.505   8.674  63.061  0.00  0.00    -0.075 A 
ATOM     63  C31 non d ame      -4.575   7.991  63.843  0.00  0.00    -0.082 A 
ATOM     64  H49 non d ame      -5.289   9.683  62.710  0.00  0.00     0.084 H 
ATOM     65  C32 non d ame      -4.854   6.697  64.289  0.00  0.00    -0.083 A 
ATOM     66  H50 non d ame      -3.631   8.470  64.106  0.00  0.00     0.083 H 
ATOM     67  C33 non d ame      -6.058   6.095  63.950  0.00  0.00    -0.082 A 
ATOM     68  H51 non d ame      -4.132   6.157  64.902  0.00  0.00     0.083 H 
ATOM     69  C34 non d ame      -6.992   6.774  63.170  0.00  0.00    -0.075 A 
ATOM     70  H52 non d ame      -6.271   5.083  64.298  0.00  0.00     0.083 H 
ATOM     71  H53 non d ame      -7.936   6.295  62.909  0.00  0.00     0.084 H 
ENDBRANCH  58  61
ENDBRANCH  57  58
ENDBRANCH  55  57
ENDBRANCH  52  55
ENDBRANCH  49  52
ENDBRANCH  47  49
BRANCH  47  72
ATOM     72  C24 non d ame      -9.699  10.652  67.342  0.00  0.00    -0.039 C 
ATOM     73  H35 non d ame     -10.238  11.598  67.401  0.00  0.00     0.036 H 
ATOM     74  H36 non d ame     -10.011   9.893  66.625  0.00  0.00     0.036 H 
BRANCH  72  75
ATOM     75  C25 non d ame      -9.760   9.982  68.796  0.00  0.00    -0.001 C 
ATOM     76  C26 non d ame      -9.035   8.506  68.763  0.00  0.00    -0.035 C 
ATOM     77  C27 non d ame      -9.879   7.594  69.302  0.00  0.00     0.085 C 
ATOM     78  H38 non d ame      -8.920   8.169  67.733  0.00  0.00     0.036 H 
ATOM     79  H39 non d ame      -8.180   8.494  69.439  0.00  0.00     0.036 H 
ATOM     80  N5  non d ame     -11.235   8.251  69.400  0.00  0.00    -0.049 N 
ATOM     81  H40 non d ame      -9.929   6.780  68.578  0.00  0.00     0.075 H 
ATOM     82  H41 non d ame      -9.502   7.408  70.307  0.00  0.00     0.075 H 
ATOM     83  C28 non d ame     -10.979   9.831  69.192  0.00  0.00     0.193 C 
ATOM     84  H42 non d ame     -11.776   7.907  68.620  0.00  0.00     0.280 HD
ATOM     85  H43 non d ame     -11.559   8.100  70.345  0.00  0.00     0.280 HD
ATOM     86  H44 non d ame     -10.998  10.512  70.042  0.00  0.00     0.129 H 
ATOM     87  H37 non d ame      -9.446  10.671  69.581  0.00  0.00     0.046 H 
BRANCH  83  88
ATOM     88  O6  non d ame     -11.919  10.364  68.256  0.00  0.00    -0.369 OA
ATOM     89  H45 non d ame     -12.168   9.681  67.630  0.00  0.00     0.212 HD
ENDBRANCH  83  88
ENDBRANCH  72  75
ENDBRANCH  47  72
ENDBRANCH  45  47
ENDBRANCH   1  43
BRANCH   1  90
ATOM     90  C16 non d ame      -6.458  14.777  69.685  0.00  0.00    -0.035 C 
ATOM     91  H21 non d ame      -7.097  15.622  69.945  0.00  0.00     0.037 H 
ATOM     92  H22 non d ame      -6.582  13.823  70.197  0.00  0.00     0.037 H 
BRANCH  90  93
ATOM     93  C17 non d ame      -4.990  15.235  69.954  0.00  0.00    -0.059 C 
ATOM     94  H23 non d ame      -4.334  14.394  69.730  0.00  0.00     0.038 H 
BRANCH  93  95
ATOM     95  C18 non d ame      -4.566  16.426  69.036  0.00  0.00    -0.073 C 
ATOM     96  H24 non d ame      -4.040  16.042  68.162  0.00  0.00     0.028 H 
ATOM     97  H25 non d ame      -5.454  16.971  68.716  0.00  0.00     0.028 H 
ATOM     98  H26 non d ame      -3.909  17.096  69.591  0.00  0.00     0.028 H 
ENDBRANCH  93  95
BRANCH  93  99
ATOM     99  C19 non d ame      -4.788  15.587  71.431  0.00  0.00    -0.073 C 
ATOM    100  H27 non d ame      -4.217  16.513  71.508  0.00  0.00     0.028 H 
ATOM    101  H28 non d ame      -5.759  15.716  71.908  0.00  0.00     0.028 H 
ATOM    102  H29 non d ame      -4.245  14.781  71.925  0.00  0.00     0.028 H 
ENDBRANCH  93  99
ENDBRANCH  90  93
ENDBRANCH   1  90
TORSDOF 26
ENDMDL
MODEL 16
REMARK VINA RESULT:      -6.1      3.056      7.739
REMARK  26 active torsions:
REMARK  status: ('A' for Active; 'I' for Inactive)
REMARK    1  A    between atoms: C2_2  and  C3_3 
REMARK    2  A    between atoms: C4_6  and  C5_7 
REMARK       I    between atoms: C5_7  and  N2_9 
REMARK    3  A    between atoms: N2_9  and  C6_10 
REMARK    4  A    between atoms: C6_10  and  C7_11 
REMARK    5  A    between atoms: C6_10  and  C8_13 
REMARK       I    between atoms: C7_11  and  N3_14 
REMARK    6  A    between atoms: N3_14  and  C9_15 
REMARK    7  A    between atoms: C9_15  and  C10_16 
REMARK    8  A    between atoms: C9_15  and  C11_18 
REMARK       I    between atoms: C10_16  and  N4_21 
REMARK    9  A    between atoms: C11_18  and  C12_19 
REMARK   10  A    between atoms: C11_18  and  C13_20 
REMARK   11  A    between atoms: N4_21  and  C14_22 
REMARK   12  A    between atoms: C14_22  and  C15_23 
REMARK   13  A    between atoms: C14_22  and  C16_25 
REMARK       I    between atoms: C15_23  and  N6_40 
REMARK   14  A    between atoms: C16_25  and  C17_26 
REMARK   15  A    between atoms: C17_26  and  C18_27 
REMARK   16  A    between atoms: C17_26  and  C19_28 
REMARK   17  A    between atoms: C20_29  and  C21_30 
REMARK   18  A    between atoms: C20_29  and  C24_33 
REMARK   19  A    between atoms: C20_29  and  N6_40 
REMARK   20  A    between atoms: C21_30  and  C22_31 
REMARK   21  A    between atoms: C22_31  and  C23_32 
REMARK   22  A    between atoms: C23_32  and  O8_43 
REMARK   23  A    between atoms: C24_33  and  C25_34 
REMARK   24  A    between atoms: C28_38  and  O6_39 
REMARK   25  A    between atoms: C29_42  and  O8_43 
REMARK   26  A    between atoms: C29_42  and  C35_49 
ROOT
ATOM      1  C14 non d ame     -10.926  10.259  69.357  0.00  0.00     0.089 C 
ATOM      2  H20 non d ame     -11.561   9.427  69.052  0.00  0.00     0.087 H 
ENDROOT
BRANCH   1   3
ATOM      3  N4  non d ame     -10.134  10.654  68.201  0.00  0.00    -0.346 N 
ATOM      4  C10 non d ame     -10.803  11.256  66.990  0.00  0.00     0.241 C 
ATOM      5  O4  non d ame     -11.980  11.411  66.969  0.00  0.00    -0.271 OA
ATOM      6  H19 non d ame      -9.135  10.511  68.237  0.00  0.00     0.163 HD
BRANCH   4   7
ATOM      7  C9  non d ame      -9.968  11.663  65.804  0.00  0.00     0.092 C 
ATOM      8  H11 non d ame      -9.041  12.116  66.156  0.00  0.00     0.088 H 
BRANCH   7   9
ATOM      9  N3  non d ame      -9.602  10.472  65.032  0.00  0.00    -0.346 N 
ATOM     10  C7  non d ame      -8.220  10.075  64.932  0.00  0.00     0.240 C 
ATOM     11  O3  non d ame      -7.388  10.702  65.465  0.00  0.00    -0.271 OA
ATOM     12  H10 non d ame     -10.308   9.920  64.565  0.00  0.00     0.163 HD
BRANCH  10  13
ATOM     13  C6  non d ame      -7.836   8.807  64.105  0.00  0.00     0.086 C 
ATOM     14  H6  non d ame      -6.772   8.578  64.155  0.00  0.00     0.086 H 
BRANCH  13  15
ATOM     15  N2  non d ame      -8.535   7.657  64.655  0.00  0.00    -0.343 N 
ATOM     16  C5  non d ame      -7.802   6.690  65.473  0.00  0.00     0.273 C 
ATOM     17  O2  non d ame      -6.649   6.844  65.681  0.00  0.00    -0.266 OA
ATOM     18  H5  non d ame      -9.521   7.532  64.470  0.00  0.00     0.163 HD
BRANCH  16  19
ATOM     19  C4  non d ame      -8.529   5.470  66.061  0.00  0.00     0.154 A 
ATOM     20  C1  non d ame      -7.936   4.267  66.560  0.00  0.00    -0.017 A 
ATOM     21  C2  non d ame      -9.025   3.473  66.982  0.00  0.00     0.077 A 
ATOM     22  H1  non d ame      -6.877   4.010  66.609  0.00  0.00     0.091 H 
ATOM     23  O1  non d ame     -10.111   4.150  66.750  0.00  0.00    -0.218 OA
ATOM     24  N1  non d ame      -9.847   5.319  66.213  0.00  0.00    -0.123 NA
BRANCH  21  25
ATOM     25  C3  non d ame      -8.942   2.082  67.596  0.00  0.00    -0.029 C 
ATOM     26  H2  non d ame      -8.526   2.152  68.601  0.00  0.00     0.036 H 
ATOM     27  H3  non d ame      -9.939   1.646  67.646  0.00  0.00     0.036 H 
ATOM     28  H4  non d ame      -8.299   1.450  66.981  0.00  0.00     0.036 H 
ENDBRANCH  21  25
ENDBRANCH  16  19
ENDBRANCH  13  15
BRANCH  13  29
ATOM     29  C8  non d ame      -8.225   9.007  62.663  0.00  0.00    -0.049 C 
ATOM     30  H7  non d ame      -8.970   8.262  62.381  0.00  0.00     0.030 H 
ATOM     31  H8  non d ame      -8.642  10.005  62.533  0.00  0.00     0.030 H 
ATOM     32  H9  non d ame      -7.344   8.896  62.031  0.00  0.00     0.030 H 
ENDBRANCH  13  29
ENDBRANCH  10  13
ENDBRANCH   7   9
BRANCH   7  33
ATOM     33  C11 non d ame     -10.787  12.632  64.902  0.00  0.00    -0.033 C 
ATOM     34  H12 non d ame     -11.789  12.704  65.322  0.00  0.00     0.042 H 
BRANCH  33  35
ATOM     35  C12 non d ame     -10.172  14.066  64.903  0.00  0.00    -0.071 C 
ATOM     36  H13 non d ame     -10.269  14.503  65.897  0.00  0.00     0.028 H 
ATOM     37  H14 non d ame      -9.119  14.010  64.631  0.00  0.00     0.028 H 
ATOM     38  H15 non d ame     -10.702  14.687  64.181  0.00  0.00     0.028 H 
ENDBRANCH  33  35
BRANCH  33  39
ATOM     39  C13 non d ame     -10.912  12.071  63.449  0.00  0.00    -0.071 C 
ATOM     40  H16 non d ame      -9.993  11.551  63.180  0.00  0.00     0.028 H 
ATOM     41  H17 non d ame     -11.751  11.376  63.398  0.00  0.00     0.028 H 
ATOM     42  H18 non d ame     -11.080  12.894  62.754  0.00  0.00     0.028 H 
ENDBRANCH  33  39
ENDBRANCH   7  33
ENDBRANCH   4   7
ENDBRANCH   1   3
BRANCH   1  43
ATOM     43  C15 non d ame     -11.753  11.488  69.831  0.00  0.00     0.240 C 
ATOM     44  O5  non d ame     -12.788  11.323  70.392  0.00  0.00    -0.271 OA
ATOM     45  N6  non d ame     -11.251  12.871  69.593  0.00  0.00    -0.355 N 
ATOM     46  H46 non d ame     -10.372  13.023  69.121  0.00  0.00     0.162 HD
BRANCH  45  47
ATOM     47  C20 non d ame     -12.050  14.029  70.051  0.00  0.00     0.013 C 
ATOM     48  H30 non d ame     -13.104  13.774  69.943  0.00  0.00     0.072 H 
BRANCH  47  49
ATOM     49  C21 non d ame     -11.721  15.233  69.197  0.00  0.00    -0.038 C 
ATOM     50  H31 non d ame     -11.464  14.836  68.215  0.00  0.00     0.036 H 
ATOM     51  H32 non d ame     -12.567  15.911  69.306  0.00  0.00     0.036 H 
BRANCH  49  52
ATOM     52  C22 non d ame     -10.478  16.000  69.697  0.00  0.00     0.018 C 
ATOM     53  H33 non d ame     -10.618  17.032  69.375  0.00  0.00     0.048 H 
ATOM     54  H34 non d ame     -10.395  15.768  70.759  0.00  0.00     0.048 H 
BRANCH  52  55
ATOM     55  C23 non d ame      -9.147  15.527  69.049  0.00  0.00     0.259 C 
ATOM     56  O7  non d ame      -9.067  14.450  68.554  0.00  0.00    -0.265 OA
BRANCH  55  57
ATOM     57  O8  non d ame      -8.017  16.392  69.068  0.00  0.00    -0.317 OA
BRANCH  57  58
ATOM     58  C29 non d ame      -7.637  16.879  67.777  0.00  0.00     0.052 C 
ATOM     59  H47 non d ame      -6.663  17.347  67.914  0.00  0.00     0.082 H 
ATOM     60  H48 non d ame      -7.744  16.032  67.100  0.00  0.00     0.082 H 
BRANCH  58  61
ATOM     61  C35 non d ame      -8.655  17.973  67.359  0.00  0.00    -0.034 A 
ATOM     62  C30 non d ame      -9.575  17.720  66.347  0.00  0.00    -0.075 A 
ATOM     63  C31 non d ame     -10.489  18.703  65.972  0.00  0.00    -0.082 A 
ATOM     64  H49 non d ame      -9.580  16.750  65.848  0.00  0.00     0.084 H 
ATOM     65  C32 non d ame     -10.478  19.946  66.611  0.00  0.00    -0.083 A 
ATOM     66  H50 non d ame     -11.211  18.500  65.180  0.00  0.00     0.083 H 
ATOM     67  C33 non d ame      -9.555  20.196  67.618  0.00  0.00    -0.082 A 
ATOM     68  H51 non d ame     -11.190  20.720  66.324  0.00  0.00     0.083 H 
ATOM     69  C34 non d ame      -8.642  19.215  67.997  0.00  0.00    -0.075 A 
ATOM     70  H52 non d ame      -9.549  21.168  68.113  0.00  0.00     0.083 H 
ATOM     71  H53 non d ame      -7.921  19.419  68.790  0.00  0.00     0.084 H 
ENDBRANCH  58  61
ENDBRANCH  57  58
ENDBRANCH  55  57
ENDBRANCH  52  55
ENDBRANCH  49  52
ENDBRANCH  47  49
BRANCH  47  72
ATOM     72  C24 non d ame     -11.724  14.335  71.511  0.00  0.00    -0.039 C 
ATOM     73  H35 non d ame     -11.117  13.497  71.855  0.00  0.00     0.036 H 
ATOM     74  H36 non d ame     -11.308  15.343  71.511  0.00  0.00     0.036 H 
BRANCH  72  75
ATOM     75  C25 non d ame     -13.043  14.368  72.420  0.00  0.00    -0.001 C 
ATOM     76  C26 non d ame     -14.381  14.357  71.463  0.00  0.00    -0.035 C 
ATOM     77  C27 non d ame     -15.194  15.373  71.840  0.00  0.00     0.085 C 
ATOM     78  H38 non d ame     -14.111  14.612  70.439  0.00  0.00     0.036 H 
ATOM     79  H39 non d ame     -14.977  13.467  71.664  0.00  0.00     0.036 H 
ATOM     80  N5  non d ame     -14.385  16.273  72.743  0.00  0.00    -0.049 N 
ATOM     81  H40 non d ame     -15.431  15.912  70.921  0.00  0.00     0.075 H 
ATOM     82  H41 non d ame     -15.990  14.910  72.420  0.00  0.00     0.075 H 
ATOM     83  C28 non d ame     -13.076  15.425  73.160  0.00  0.00     0.193 C 
ATOM     84  H42 non d ame     -14.094  17.058  72.179  0.00  0.00     0.280 HD
ATOM     85  H43 non d ame     -14.945  16.426  73.570  0.00  0.00     0.280 HD
ATOM     86  H44 non d ame     -12.998  14.977  74.150  0.00  0.00     0.129 H 
ATOM     87  H37 non d ame     -13.005  13.637  73.228  0.00  0.00     0.046 H 
BRANCH  83  88
ATOM     88  O6  non d ame     -11.902  16.225  73.009  0.00  0.00    -0.369 OA
ATOM     89  H45 non d ame     -11.265  15.757  72.464  0.00  0.00     0.212 HD
ENDBRANCH  83  88
ENDBRANCH  72  75
ENDBRANCH  47  72
ENDBRANCH  45  47
ENDBRANCH   1  43
BRANCH   1  90
ATOM     90  C16 non d ame      -9.991   9.813  70.469  0.00  0.00    -0.035 C 
ATOM     91  H21 non d ame      -9.189   9.266  69.970  0.00  0.00     0.037 H 
ATOM     92  H22 non d ame      -9.764  10.715  71.035  0.00  0.00     0.037 H 
BRANCH  90  93
ATOM     93  C17 non d ame     -10.645   8.813  71.474  0.00  0.00    -0.059 C 
ATOM     94  H23 non d ame     -11.227   9.395  72.188  0.00  0.00     0.038 H 
BRANCH  93  95
ATOM     95  C18 non d ame     -11.618   7.816  70.767  0.00  0.00    -0.073 C 
ATOM     96  H24 non d ame     -11.088   6.890  70.542  0.00  0.00     0.028 H 
ATOM     97  H25 non d ame     -12.460   7.603  71.424  0.00  0.00     0.028 H 
ATOM     98  H26 non d ame     -11.983   8.261  69.841  0.00  0.00     0.028 H 
ENDBRANCH  93  95
BRANCH  93  99
ATOM     99  C19 non d ame      -9.576   8.058  72.270  0.00  0.00    -0.073 C 
ATOM    100  H27 non d ame      -9.201   7.225  71.674  0.00  0.00     0.028 H 
ATOM    101  H28 non d ame      -8.755   8.736  72.506  0.00  0.00     0.028 H 
ATOM    102  H29 non d ame     -10.011   7.679  73.194  0.00  0.00     0.028 H 
ENDBRANCH  93  99
ENDBRANCH  90  93
ENDBRANCH   1  90
TORSDOF 26
ENDMDL
