MODEL 1
REMARK VINA RESULT:      -7.1      0.000      0.000
REMARK  26 active torsions:
REMARK  status: ('A' for Active; 'I' for Inactive)
REMARK    1  A    between atoms: C2_2  and  C3_3 
REMARK    2  A    between atoms: C4_6  and  C5_7 
REMARK       I    between atoms: C5_7  and  N2_9 
REMARK    3  A    between atoms: N2_9  and  C6_10 
REMARK    4  A    between atoms: C6_10  and  C7_11 
REMARK    5  A    between atoms: C6_10  and  C8_13 
REMARK       I    between atoms: C7_11  and  N3_14 
REMARK    6  A    between atoms: N3_14  and  C9_15 
REMARK    7  A    between atoms: C9_15  and  C10_16 
REMARK    8  A    between atoms: C9_15  and  C11_18 
REMARK       I    between atoms: C10_16  and  N4_21 
REMARK    9  A    between atoms: C11_18  and  C12_19 
REMARK   10  A    between atoms: C11_18  and  C13_20 
REMARK   11  A    between atoms: N4_21  and  C14_22 
REMARK   12  A    between atoms: C14_22  and  C15_23 
REMARK   13  A    between atoms: C14_22  and  C16_25 
REMARK       I    between atoms: C15_23  and  N6_40 
REMARK   14  A    between atoms: C16_25  and  C17_26 
REMARK   15  A    between atoms: C17_26  and  C18_27 
REMARK   16  A    between atoms: C17_26  and  C19_28 
REMARK   17  A    between atoms: C20_29  and  C21_30 
REMARK   18  A    between atoms: C20_29  and  C24_33 
REMARK   19  A    between atoms: C20_29  and  N6_40 
REMARK   20  A    between atoms: C21_30  and  C22_31 
REMARK   21  A    between atoms: C22_31  and  C23_32 
REMARK   22  A    between atoms: C23_32  and  O8_43 
REMARK   23  A    between atoms: C24_33  and  C25_34 
REMARK   24  A    between atoms: C28_38  and  O6_39 
REMARK   25  A    between atoms: C29_42  and  O8_43 
REMARK   26  A    between atoms: C29_42  and  C35_49 
ROOT
ATOM      1  C14 non d ame     -12.192  14.438  70.372  0.00  0.00     0.089 C 
ATOM      2  H20 non d ame     -13.276  14.328  70.430  0.00  0.00     0.087 H 
ENDROOT
BRANCH   1   3
ATOM      3  N4  non d ame     -11.639  13.139  70.018  0.00  0.00    -0.346 N 
ATOM      4  C10 non d ame     -12.180  11.882  70.653  0.00  0.00     0.241 C 
ATOM      5  O4  non d ame     -13.059  11.942  71.449  0.00  0.00    -0.271 OA
ATOM      6  H19 non d ame     -10.890  13.110  69.341  0.00  0.00     0.163 HD
BRANCH   4   7
ATOM      7  C9  non d ame     -11.599  10.546  70.272  0.00  0.00     0.092 C 
ATOM      8  H11 non d ame     -12.074  10.196  69.355  0.00  0.00     0.088 H 
BRANCH   7   9
ATOM      9  N3  non d ame     -10.168  10.698  69.986  0.00  0.00    -0.346 N 
ATOM     10  C7  non d ame      -9.728  10.980  68.643  0.00  0.00     0.240 C 
ATOM     11  O3  non d ame     -10.509  11.087  67.778  0.00  0.00    -0.271 OA
ATOM     12  H10 non d ame      -9.482  10.607  70.722  0.00  0.00     0.163 HD
BRANCH  10  13
ATOM     13  C6  non d ame      -8.204  11.137  68.345  0.00  0.00     0.086 C 
ATOM     14  H6  non d ame      -7.956  10.944  67.301  0.00  0.00     0.086 H 
BRANCH  13  15
ATOM     15  N2  non d ame      -7.810  12.509  68.620  0.00  0.00    -0.343 N 
ATOM     16  C5  non d ame      -6.766  13.137  67.806  0.00  0.00     0.273 C 
ATOM     17  O2  non d ame      -6.247  12.528  66.936  0.00  0.00    -0.266 OA
ATOM     18  H5  non d ame      -8.256  13.021  69.367  0.00  0.00     0.163 HD
BRANCH  16  19
ATOM     19  C4  non d ame      -6.340  14.587  68.085  0.00  0.00     0.154 A 
ATOM     20  C1  non d ame      -6.466  15.304  69.317  0.00  0.00    -0.017 A 
ATOM     21  C2  non d ame      -5.932  16.583  69.049  0.00  0.00     0.077 A 
ATOM     22  H1  non d ame      -6.881  14.949  70.261  0.00  0.00     0.091 H 
ATOM     23  O1  non d ame      -5.545  16.590  67.807  0.00  0.00    -0.218 OA
ATOM     24  N1  non d ame      -5.773  15.436  67.223  0.00  0.00    -0.123 NA
BRANCH  21  25
ATOM     25  C3  non d ame      -5.826  17.740  70.034  0.00  0.00    -0.029 C 
ATOM     26  H2  non d ame      -6.824  18.031  70.363  0.00  0.00     0.036 H 
ATOM     27  H3  non d ame      -5.236  17.431  70.896  0.00  0.00     0.036 H 
ATOM     28  H4  non d ame      -5.343  18.589  69.548  0.00  0.00     0.036 H 
ENDBRANCH  21  25
ENDBRANCH  16  19
ENDBRANCH  13  15
BRANCH  13  29
ATOM     29  C8  non d ame      -7.418  10.191  69.216  0.00  0.00    -0.049 C 
ATOM     30  H7  non d ame      -6.626  10.739  69.726  0.00  0.00     0.030 H 
ATOM     31  H8  non d ame      -8.081   9.739  69.954  0.00  0.00     0.030 H 
ATOM     32  H9  non d ame      -6.976   9.410  68.597  0.00  0.00     0.030 H 
ENDBRANCH  13  29
ENDBRANCH  10  13
ENDBRANCH   7   9
BRANCH   7  33
ATOM     33  C11 non d ame     -11.787   9.544  71.448  0.00  0.00    -0.033 C 
ATOM     34  H12 non d ame     -12.063  10.120  72.330  0.00  0.00     0.042 H 
BRANCH  33  35
ATOM     35  C12 non d ame     -12.947   8.541  71.160  0.00  0.00    -0.071 C 
ATOM     36  H13 non d ame     -13.849   8.869  71.677  0.00  0.00     0.028 H 
ATOM     37  H14 non d ame     -13.137   8.503  70.088  0.00  0.00     0.028 H 
ATOM     38  H15 non d ame     -12.666   7.550  71.516  0.00  0.00     0.028 H 
ENDBRANCH  33  35
BRANCH  33  39
ATOM     39  C13 non d ame     -10.454   8.791  71.760  0.00  0.00    -0.071 C 
ATOM     40  H16 non d ame      -9.840   9.400  72.424  0.00  0.00     0.028 H 
ATOM     41  H17 non d ame     -10.678   7.840  72.244  0.00  0.00     0.028 H 
ATOM     42  H18 non d ame      -9.914   8.608  70.832  0.00  0.00     0.028 H 
ENDBRANCH  33  39
ENDBRANCH   7  33
ENDBRANCH   4   7
ENDBRANCH   1   3
BRANCH   1  43
ATOM     43  C15 non d ame     -11.763  15.469  69.290  0.00  0.00     0.240 C 
ATOM     44  O5  non d ame     -11.948  16.629  69.472  0.00  0.00    -0.271 OA
ATOM     45  N6  non d ame     -11.112  15.011  68.029  0.00  0.00    -0.355 N 
ATOM     46  H46 non d ame     -10.945  14.029  67.866  0.00  0.00     0.162 HD
BRANCH  45  47
ATOM     47  C20 non d ame     -10.708  16.004  67.011  0.00  0.00     0.013 C 
ATOM     48  H30 non d ame     -11.361  16.871  67.110  0.00  0.00     0.072 H 
BRANCH  47  49
ATOM     49  C21 non d ame     -10.860  15.399  65.634  0.00  0.00    -0.038 C 
ATOM     50  H31 non d ame     -11.933  15.286  65.479  0.00  0.00     0.036 H 
ATOM     51  H32 non d ame     -10.276  16.034  64.967  0.00  0.00     0.036 H 
BRANCH  49  52
ATOM     52  C22 non d ame     -10.252  13.983  65.532  0.00  0.00     0.018 C 
ATOM     53  H33 non d ame      -9.352  14.090  64.925  0.00  0.00     0.048 H 
ATOM     54  H34 non d ame     -10.178  13.619  66.556  0.00  0.00     0.048 H 
BRANCH  52  55
ATOM     55  C23 non d ame     -11.155  12.966  64.780  0.00  0.00     0.259 C 
ATOM     56  O7  non d ame     -12.299  12.840  65.078  0.00  0.00    -0.265 OA
BRANCH  55  57
ATOM     57  O8  non d ame     -10.597  12.175  63.738  0.00  0.00    -0.317 OA
BRANCH  57  58
ATOM     58  C29 non d ame     -10.413  10.799  64.087  0.00  0.00     0.052 C 
ATOM     59  H47 non d ame     -10.148  10.796  65.143  0.00  0.00     0.082 H 
ATOM     60  H48 non d ame     -11.315  10.288  63.750  0.00  0.00     0.082 H 
BRANCH  58  61
ATOM     61  C35 non d ame      -9.208  10.256  63.274  0.00  0.00    -0.034 A 
ATOM     62  C30 non d ame      -8.734  10.962  62.173  0.00  0.00    -0.075 A 
ATOM     63  C31 non d ame      -7.651  10.473  61.444  0.00  0.00    -0.082 A 
ATOM     64  H49 non d ame      -9.211  11.898  61.883  0.00  0.00     0.084 H 
ATOM     65  C32 non d ame      -7.044   9.272  61.817  0.00  0.00    -0.083 A 
ATOM     66  H50 non d ame      -7.281  11.031  60.583  0.00  0.00     0.083 H 
ATOM     67  C33 non d ame      -7.522   8.568  62.914  0.00  0.00    -0.082 A 
ATOM     68  H51 non d ame      -6.196   8.883  61.252  0.00  0.00     0.083 H 
ATOM     69  C34 non d ame      -8.603   9.055  63.647  0.00  0.00    -0.075 A 
ATOM     70  H52 non d ame      -7.047   7.630  63.201  0.00  0.00     0.083 H 
ATOM     71  H53 non d ame      -8.972   8.496  64.509  0.00  0.00     0.084 H 
ENDBRANCH  58  61
ENDBRANCH  57  58
ENDBRANCH  55  57
ENDBRANCH  52  55
ENDBRANCH  49  52
ENDBRANCH  47  49
BRANCH  47  72
ATOM     72  C24 non d ame      -9.252  16.409  67.233  0.00  0.00    -0.039 C 
ATOM     73  H35 non d ame      -8.926  15.848  68.109  0.00  0.00     0.036 H 
ATOM     74  H36 non d ame      -8.758  16.254  66.273  0.00  0.00     0.036 H 
BRANCH  72  75
ATOM     75  C25 non d ame      -9.116  17.964  67.589  0.00  0.00    -0.001 C 
ATOM     76  C26 non d ame     -10.574  18.706  67.422  0.00  0.00    -0.035 C 
ATOM     77  C27 non d ame     -10.418  19.802  66.641  0.00  0.00     0.085 C 
ATOM     78  H38 non d ame     -11.251  18.076  66.847  0.00  0.00     0.036 H 
ATOM     79  H39 non d ame     -10.895  19.120  68.378  0.00  0.00     0.036 H 
ATOM     80  N5  non d ame      -9.059  19.692  65.993  0.00  0.00    -0.049 N 
ATOM     81  H40 non d ame     -11.186  19.722  65.871  0.00  0.00     0.075 H 
ATOM     82  H41 non d ame     -10.418  20.650  67.325  0.00  0.00     0.075 H 
ATOM     83  C28 non d ame      -8.266  18.550  66.813  0.00  0.00     0.193 C 
ATOM     84  H42 non d ame      -9.216  19.362  65.052  0.00  0.00     0.280 HD
ATOM     85  H43 non d ame      -8.596  20.577  66.147  0.00  0.00     0.280 HD
ATOM     86  H44 non d ame      -7.493  18.819  67.533  0.00  0.00     0.129 H 
ATOM     87  H37 non d ame      -8.581  18.128  68.525  0.00  0.00     0.046 H 
BRANCH  83  88
ATOM     88  O6  non d ame      -7.644  17.635  65.909  0.00  0.00    -0.369 OA
ATOM     89  H45 non d ame      -7.393  16.839  66.383  0.00  0.00     0.212 HD
ENDBRANCH  83  88
ENDBRANCH  72  75
ENDBRANCH  47  72
ENDBRANCH  45  47
ENDBRANCH   1  43
BRANCH   1  90
ATOM     90  C16 non d ame     -11.644  14.858  71.726  0.00  0.00    -0.035 C 
ATOM     91  H21 non d ame     -11.021  14.026  72.056  0.00  0.00     0.037 H 
ATOM     92  H22 non d ame     -11.201  15.840  71.565  0.00  0.00     0.037 H 
BRANCH  90  93
ATOM     93  C17 non d ame     -12.745  15.044  72.818  0.00  0.00    -0.059 C 
ATOM     94  H23 non d ame     -12.793  14.123  73.399  0.00  0.00     0.038 H 
BRANCH  93  95
ATOM     95  C18 non d ame     -12.409  16.210  73.802  0.00  0.00    -0.073 C 
ATOM     96  H24 non d ame     -11.334  16.239  73.977  0.00  0.00     0.028 H 
ATOM     97  H25 non d ame     -12.732  17.156  73.366  0.00  0.00     0.028 H 
ATOM     98  H26 non d ame     -12.929  16.049  74.747  0.00  0.00     0.028 H 
ENDBRANCH  93  95
BRANCH  93  99
ATOM     99  C19 non d ame     -14.121  15.250  72.179  0.00  0.00    -0.073 C 
ATOM    100  H27 non d ame     -14.036  15.957  71.353  0.00  0.00     0.028 H 
ATOM    101  H28 non d ame     -14.493  14.296  71.805  0.00  0.00     0.028 H 
ATOM    102  H29 non d ame     -14.814  15.642  72.924  0.00  0.00     0.028 H 
ENDBRANCH  93  99
ENDBRANCH  90  93
ENDBRANCH   1  90
TORSDOF 26
ENDMDL
MODEL 2
REMARK VINA RESULT:      -7.0      2.399      5.303
REMARK  26 active torsions:
REMARK  status: ('A' for Active; 'I' for Inactive)
REMARK    1  A    between atoms: C2_2  and  C3_3 
REMARK    2  A    between atoms: C4_6  and  C5_7 
REMARK       I    between atoms: C5_7  and  N2_9 
REMARK    3  A    between atoms: N2_9  and  C6_10 
REMARK    4  A    between atoms: C6_10  and  C7_11 
REMARK    5  A    between atoms: C6_10  and  C8_13 
REMARK       I    between atoms: C7_11  and  N3_14 
REMARK    6  A    between atoms: N3_14  and  C9_15 
REMARK    7  A    between atoms: C9_15  and  C10_16 
REMARK    8  A    between atoms: C9_15  and  C11_18 
REMARK       I    between atoms: C10_16  and  N4_21 
REMARK    9  A    between atoms: C11_18  and  C12_19 
REMARK   10  A    between atoms: C11_18  and  C13_20 
REMARK   11  A    between atoms: N4_21  and  C14_22 
REMARK   12  A    between atoms: C14_22  and  C15_23 
REMARK   13  A    between atoms: C14_22  and  C16_25 
REMARK       I    between atoms: C15_23  and  N6_40 
REMARK   14  A    between atoms: C16_25  and  C17_26 
REMARK   15  A    between atoms: C17_26  and  C18_27 
REMARK   16  A    between atoms: C17_26  and  C19_28 
REMARK   17  A    between atoms: C20_29  and  C21_30 
REMARK   18  A    between atoms: C20_29  and  C24_33 
REMARK   19  A    between atoms: C20_29  and  N6_40 
REMARK   20  A    between atoms: C21_30  and  C22_31 
REMARK   21  A    between atoms: C22_31  and  C23_32 
REMARK   22  A    between atoms: C23_32  and  O8_43 
REMARK   23  A    between atoms: C24_33  and  C25_34 
REMARK   24  A    between atoms: C28_38  and  O6_39 
REMARK   25  A    between atoms: C29_42  and  O8_43 
REMARK   26  A    between atoms: C29_42  and  C35_49 
ROOT
ATOM      1  C14 non d ame     -11.870  14.565  70.058  0.00  0.00     0.089 C 
ATOM      2  H20 non d ame     -12.844  14.559  69.568  0.00  0.00     0.087 H 
ENDROOT
BRANCH   1   3
ATOM      3  N4  non d ame     -11.514  13.183  70.343  0.00  0.00    -0.346 N 
ATOM      4  C10 non d ame     -11.660  12.123  69.280  0.00  0.00     0.241 C 
ATOM      5  O4  non d ame     -12.069  12.407  68.202  0.00  0.00    -0.271 OA
ATOM      6  H19 non d ame     -11.172  12.961  71.267  0.00  0.00     0.163 HD
BRANCH   4   7
ATOM      7  C9  non d ame     -11.283  10.699  69.591  0.00  0.00     0.092 C 
ATOM      8  H11 non d ame     -11.711  10.040  68.834  0.00  0.00     0.088 H 
BRANCH   7   9
ATOM      9  N3  non d ame      -9.826  10.551  69.517  0.00  0.00    -0.346 N 
ATOM     10  C7  non d ame      -9.243   9.614  68.590  0.00  0.00     0.240 C 
ATOM     11  O3  non d ame      -9.929   8.968  67.896  0.00  0.00    -0.271 OA
ATOM     12  H10 non d ame      -9.220  11.101  70.110  0.00  0.00     0.163 HD
BRANCH  10  13
ATOM     13  C6  non d ame      -7.691   9.459  68.519  0.00  0.00     0.086 C 
ATOM     14  H6  non d ame      -7.354   9.011  67.584  0.00  0.00     0.086 H 
BRANCH  13  15
ATOM     15  N2  non d ame      -7.083  10.778  68.592  0.00  0.00    -0.343 N 
ATOM     16  C5  non d ame      -7.001  11.603  67.384  0.00  0.00     0.273 C 
ATOM     17  O2  non d ame      -7.425  11.195  66.360  0.00  0.00    -0.266 OA
ATOM     18  H5  non d ame      -6.720  11.117  69.472  0.00  0.00     0.163 HD
BRANCH  16  19
ATOM     19  C4  non d ame      -6.362  12.998  67.447  0.00  0.00     0.154 A 
ATOM     20  C1  non d ame      -7.037  14.255  67.564  0.00  0.00    -0.017 A 
ATOM     21  C2  non d ame      -6.007  15.221  67.580  0.00  0.00     0.077 A 
ATOM     22  H1  non d ame      -8.110  14.437  67.627  0.00  0.00     0.091 H 
ATOM     23  O1  non d ame      -4.876  14.584  67.486  0.00  0.00    -0.218 OA
ATOM     24  N1  non d ame      -5.058  13.285  67.407  0.00  0.00    -0.123 NA
BRANCH  21  25
ATOM     25  C3  non d ame      -6.187  16.729  67.690  0.00  0.00    -0.029 C 
ATOM     26  H2  non d ame      -6.705  16.967  68.619  0.00  0.00     0.036 H 
ATOM     27  H3  non d ame      -5.211  17.213  67.684  0.00  0.00     0.036 H 
ATOM     28  H4  non d ame      -6.776  17.087  66.844  0.00  0.00     0.036 H 
ENDBRANCH  21  25
ENDBRANCH  16  19
ENDBRANCH  13  15
BRANCH  13  29
ATOM     29  C8  non d ame      -7.215   8.607  69.668  0.00  0.00    -0.049 C 
ATOM     30  H7  non d ame      -6.185   8.869  69.911  0.00  0.00     0.030 H 
ATOM     31  H8  non d ame      -7.849   8.779  70.537  0.00  0.00     0.030 H 
ATOM     32  H9  non d ame      -7.263   7.556  69.384  0.00  0.00     0.030 H 
ENDBRANCH  13  29
ENDBRANCH  10  13
ENDBRANCH   7   9
BRANCH   7  33
ATOM     33  C11 non d ame     -11.767  10.335  71.025  0.00  0.00    -0.033 C 
ATOM     34  H12 non d ame     -11.577  11.196  71.664  0.00  0.00     0.042 H 
BRANCH  33  35
ATOM     35  C12 non d ame     -13.303  10.060  71.054  0.00  0.00    -0.071 C 
ATOM     36  H13 non d ame     -13.613   9.833  72.074  0.00  0.00     0.028 H 
ATOM     37  H14 non d ame     -13.837  10.941  70.699  0.00  0.00     0.028 H 
ATOM     38  H15 non d ame     -13.531   9.212  70.409  0.00  0.00     0.028 H 
ENDBRANCH  33  35
BRANCH  33  39
ATOM     39  C13 non d ame     -10.965   9.122  71.595  0.00  0.00    -0.071 C 
ATOM     40  H16 non d ame      -9.897   9.314  71.496  0.00  0.00     0.028 H 
ATOM     41  H17 non d ame     -11.213   8.985  72.649  0.00  0.00     0.028 H 
ATOM     42  H18 non d ame     -11.225   8.221  71.041  0.00  0.00     0.028 H 
ENDBRANCH  33  39
ENDBRANCH   7  33
ENDBRANCH   4   7
ENDBRANCH   1   3
BRANCH   1  43
ATOM     43  C15 non d ame     -10.763  15.183  69.156  0.00  0.00     0.240 C 
ATOM     44  O5  non d ame      -9.662  15.320  69.581  0.00  0.00    -0.271 OA
ATOM     45  N6  non d ame     -11.075  15.597  67.758  0.00  0.00    -0.355 N 
ATOM     46  H46 non d ame     -12.006  15.481  67.385  0.00  0.00     0.162 HD
BRANCH  45  47
ATOM     47  C20 non d ame     -10.012  16.182  66.913  0.00  0.00     0.013 C 
ATOM     48  H30 non d ame      -9.052  15.952  67.374  0.00  0.00     0.072 H 
BRANCH  47  49
ATOM     49  C21 non d ame     -10.202  17.680  66.836  0.00  0.00    -0.038 C 
ATOM     50  H31 non d ame      -9.580  18.013  66.006  0.00  0.00     0.036 H 
ATOM     51  H32 non d ame     -11.281  17.839  66.808  0.00  0.00     0.036 H 
BRANCH  49  52
ATOM     52  C22 non d ame      -9.685  18.415  68.092  0.00  0.00     0.018 C 
ATOM     53  H33 non d ame     -10.569  18.629  68.694  0.00  0.00     0.048 H 
ATOM     54  H34 non d ame      -8.891  17.787  68.495  0.00  0.00     0.048 H 
BRANCH  52  55
ATOM     55  C23 non d ame      -9.032  19.792  67.788  0.00  0.00     0.259 C 
ATOM     56  O7  non d ame      -9.671  20.669  67.305  0.00  0.00    -0.265 OA
BRANCH  55  57
ATOM     57  O8  non d ame      -7.654  19.988  68.080  0.00  0.00    -0.317 OA
BRANCH  57  58
ATOM     58  C29 non d ame      -7.013  20.953  67.240  0.00  0.00     0.052 C 
ATOM     59  H47 non d ame      -7.809  21.407  66.652  0.00  0.00     0.082 H 
ATOM     60  H48 non d ame      -6.409  21.568  67.907  0.00  0.00     0.082 H 
BRANCH  58  61
ATOM     61  C35 non d ame      -6.062  20.193  66.278  0.00  0.00    -0.034 A 
ATOM     62  C30 non d ame      -4.733  19.983  66.632  0.00  0.00    -0.075 A 
ATOM     63  C31 non d ame      -3.879  19.300  65.767  0.00  0.00    -0.082 A 
ATOM     64  H49 non d ame      -4.360  20.353  67.587  0.00  0.00     0.084 H 
ATOM     65  C32 non d ame      -4.358  18.829  64.541  0.00  0.00    -0.083 A 
ATOM     66  H50 non d ame      -2.839  19.135  66.049  0.00  0.00     0.083 H 
ATOM     67  C33 non d ame      -5.684  19.044  64.190  0.00  0.00    -0.082 A 
ATOM     68  H51 non d ame      -3.697  18.294  63.860  0.00  0.00     0.083 H 
ATOM     69  C34 non d ame      -6.541  19.724  65.053  0.00  0.00    -0.075 A 
ATOM     70  H52 non d ame      -6.054  18.677  63.233  0.00  0.00     0.083 H 
ATOM     71  H53 non d ame      -7.582  19.887  64.771  0.00  0.00     0.084 H 
ENDBRANCH  58  61
ENDBRANCH  57  58
ENDBRANCH  55  57
ENDBRANCH  52  55
ENDBRANCH  49  52
ENDBRANCH  47  49
BRANCH  47  72
ATOM     72  C24 non d ame     -10.083  15.586  65.509  0.00  0.00    -0.039 C 
ATOM     73  H35 non d ame     -10.259  16.431  64.843  0.00  0.00     0.036 H 
ATOM     74  H36 non d ame      -9.177  14.989  65.401  0.00  0.00     0.036 H 
BRANCH  72  75
ATOM     75  C25 non d ame     -11.327  14.590  65.348  0.00  0.00    -0.001 C 
ATOM     76  C26 non d ame     -10.791  13.076  64.995  0.00  0.00    -0.035 C 
ATOM     77  C27 non d ame     -11.450  12.624  63.901  0.00  0.00     0.085 C 
ATOM     78  H38 non d ame      -9.752  13.114  64.668  0.00  0.00     0.036 H 
ATOM     79  H39 non d ame     -11.090  12.381  65.778  0.00  0.00     0.036 H 
ATOM     80  N5  non d ame     -12.148  13.813  63.284  0.00  0.00    -0.049 N 
ATOM     81  H40 non d ame     -10.676  12.273  63.218  0.00  0.00     0.075 H 
ATOM     82  H41 non d ame     -12.200  11.930  64.280  0.00  0.00     0.075 H 
ATOM     83  C28 non d ame     -12.117  14.976  64.403  0.00  0.00     0.193 C 
ATOM     84  H42 non d ame     -11.580  14.103  62.502  0.00  0.00     0.280 HD
ATOM     85  H43 non d ame     -13.108  13.536  63.136  0.00  0.00     0.280 HD
ATOM     86  H44 non d ame     -13.011  15.217  64.977  0.00  0.00     0.129 H 
ATOM     87  H37 non d ame     -12.040  14.685  66.168  0.00  0.00     0.046 H 
BRANCH  83  88
ATOM     88  O6  non d ame     -11.695  16.211  63.819  0.00  0.00    -0.369 OA
ATOM     89  H45 non d ame     -10.737  16.227  63.765  0.00  0.00     0.212 HD
ENDBRANCH  83  88
ENDBRANCH  72  75
ENDBRANCH  47  72
ENDBRANCH  45  47
ENDBRANCH   1  43
BRANCH   1  90
ATOM     90  C16 non d ame     -11.954  15.336  71.365  0.00  0.00    -0.035 C 
ATOM     91  H21 non d ame     -10.947  15.308  71.782  0.00  0.00     0.037 H 
ATOM     92  H22 non d ame     -12.411  16.291  71.108  0.00  0.00     0.037 H 
BRANCH  90  93
ATOM     93  C17 non d ame     -12.888  14.671  72.425  0.00  0.00    -0.059 C 
ATOM     94  H23 non d ame     -12.662  13.605  72.443  0.00  0.00     0.038 H 
BRANCH  93  95
ATOM     95  C18 non d ame     -12.643  15.233  73.862  0.00  0.00    -0.073 C 
ATOM     96  H24 non d ame     -13.105  16.217  73.950  0.00  0.00     0.028 H 
ATOM     97  H25 non d ame     -13.084  14.558  74.596  0.00  0.00     0.028 H 
ATOM     98  H26 non d ame     -11.571  15.316  74.042  0.00  0.00     0.028 H 
ENDBRANCH  93  95
BRANCH  93  99
ATOM     99  C19 non d ame     -14.360  14.816  72.027  0.00  0.00    -0.073 C 
ATOM    100  H27 non d ame     -14.827  15.589  72.639  0.00  0.00     0.028 H 
ATOM    101  H28 non d ame     -14.424  15.095  70.975  0.00  0.00     0.028 H 
ATOM    102  H29 non d ame     -14.874  13.868  72.183  0.00  0.00     0.028 H 
ENDBRANCH  93  99
ENDBRANCH  90  93
ENDBRANCH   1  90
TORSDOF 26
ENDMDL
MODEL 3
REMARK VINA RESULT:      -6.8      3.654      9.741
REMARK  26 active torsions:
REMARK  status: ('A' for Active; 'I' for Inactive)
REMARK    1  A    between atoms: C2_2  and  C3_3 
REMARK    2  A    between atoms: C4_6  and  C5_7 
REMARK       I    between atoms: C5_7  and  N2_9 
REMARK    3  A    between atoms: N2_9  and  C6_10 
REMARK    4  A    between atoms: C6_10  and  C7_11 
REMARK    5  A    between atoms: C6_10  and  C8_13 
REMARK       I    between atoms: C7_11  and  N3_14 
REMARK    6  A    between atoms: N3_14  and  C9_15 
REMARK    7  A    between atoms: C9_15  and  C10_16 
REMARK    8  A    between atoms: C9_15  and  C11_18 
REMARK       I    between atoms: C10_16  and  N4_21 
REMARK    9  A    between atoms: C11_18  and  C12_19 
REMARK   10  A    between atoms: C11_18  and  C13_20 
REMARK   11  A    between atoms: N4_21  and  C14_22 
REMARK   12  A    between atoms: C14_22  and  C15_23 
REMARK   13  A    between atoms: C14_22  and  C16_25 
REMARK       I    between atoms: C15_23  and  N6_40 
REMARK   14  A    between atoms: C16_25  and  C17_26 
REMARK   15  A    between atoms: C17_26  and  C18_27 
REMARK   16  A    between atoms: C17_26  and  C19_28 
REMARK   17  A    between atoms: C20_29  and  C21_30 
REMARK   18  A    between atoms: C20_29  and  C24_33 
REMARK   19  A    between atoms: C20_29  and  N6_40 
REMARK   20  A    between atoms: C21_30  and  C22_31 
REMARK   21  A    between atoms: C22_31  and  C23_32 
REMARK   22  A    between atoms: C23_32  and  O8_43 
REMARK   23  A    between atoms: C24_33  and  C25_34 
REMARK   24  A    between atoms: C28_38  and  O6_39 
REMARK   25  A    between atoms: C29_42  and  O8_43 
REMARK   26  A    between atoms: C29_42  and  C35_49 
ROOT
ATOM      1  C14 non d ame      -7.940   8.049  63.734  0.00  0.00     0.089 C 
ATOM      2  H20 non d ame      -8.041   8.294  62.676  0.00  0.00     0.087 H 
ENDROOT
BRANCH   1   3
ATOM      3  N4  non d ame      -8.877   8.887  64.469  0.00  0.00    -0.346 N 
ATOM      4  C10 non d ame      -9.505  10.088  63.807  0.00  0.00     0.241 C 
ATOM      5  O4  non d ame      -9.238  10.362  62.683  0.00  0.00    -0.271 OA
ATOM      6  H19 non d ame      -9.088   8.639  65.425  0.00  0.00     0.163 HD
BRANCH   4   7
ATOM      7  C9  non d ame     -10.476  10.941  64.580  0.00  0.00     0.092 C 
ATOM      8  H11 non d ame     -11.287  10.315  64.952  0.00  0.00     0.088 H 
BRANCH   7   9
ATOM      9  N3  non d ame      -9.801  11.514  65.749  0.00  0.00    -0.346 N 
ATOM     10  C7  non d ame      -9.846  10.827  67.015  0.00  0.00     0.240 C 
ATOM     11  O3  non d ame     -10.421   9.812  67.113  0.00  0.00    -0.271 OA
ATOM     12  H10 non d ame      -9.302  12.390  65.680  0.00  0.00     0.163 HD
BRANCH  10  13
ATOM     13  C6  non d ame      -9.128  11.444  68.256  0.00  0.00     0.086 C 
ATOM     14  H6  non d ame      -8.346  12.152  67.983  0.00  0.00     0.086 H 
BRANCH  13  15
ATOM     15  N2  non d ame     -10.101  12.183  69.044  0.00  0.00    -0.343 N 
ATOM     16  C5  non d ame     -10.438  13.558  68.670  0.00  0.00     0.273 C 
ATOM     17  O2  non d ame      -9.918  14.061  67.736  0.00  0.00    -0.266 OA
ATOM     18  H5  non d ame     -10.538  11.745  69.843  0.00  0.00     0.163 HD
BRANCH  16  19
ATOM     19  C4  non d ame     -11.465  14.350  69.494  0.00  0.00     0.154 A 
ATOM     20  C1  non d ame     -12.309  13.850  70.536  0.00  0.00    -0.017 A 
ATOM     21  C2  non d ame     -13.058  14.968  70.965  0.00  0.00     0.077 A 
ATOM     22  H1  non d ame     -12.369  12.832  70.922  0.00  0.00     0.091 H 
ATOM     23  O1  non d ame     -12.679  15.986  70.250  0.00  0.00    -0.218 OA
ATOM     24  N1  non d ame     -11.751  15.650  69.384  0.00  0.00    -0.123 NA
BRANCH  21  25
ATOM     25  C3  non d ame     -14.112  14.978  72.065  0.00  0.00    -0.029 C 
ATOM     26  H2  non d ame     -13.955  14.127  72.727  0.00  0.00     0.036 H 
ATOM     27  H3  non d ame     -14.031  15.902  72.636  0.00  0.00     0.036 H 
ATOM     28  H4  non d ame     -15.105  14.913  71.618  0.00  0.00     0.036 H 
ENDBRANCH  21  25
ENDBRANCH  16  19
ENDBRANCH  13  15
BRANCH  13  29
ATOM     29  C8  non d ame      -8.520  10.343  69.087  0.00  0.00    -0.049 C 
ATOM     30  H7  non d ame      -7.521  10.641  69.409  0.00  0.00     0.030 H 
ATOM     31  H8  non d ame      -9.144  10.159  69.961  0.00  0.00     0.030 H 
ATOM     32  H9  non d ame      -8.452   9.433  68.491  0.00  0.00     0.030 H 
ENDBRANCH  13  29
ENDBRANCH  10  13
ENDBRANCH   7   9
BRANCH   7  33
ATOM     33  C11 non d ame     -10.995  12.091  63.668  0.00  0.00    -0.033 C 
ATOM     34  H12 non d ame     -10.430  12.054  62.738  0.00  0.00     0.042 H 
BRANCH  33  35
ATOM     35  C12 non d ame     -12.502  11.897  63.311  0.00  0.00    -0.071 C 
ATOM     36  H13 non d ame     -12.723  12.409  62.374  0.00  0.00     0.028 H 
ATOM     37  H14 non d ame     -12.716  10.834  63.203  0.00  0.00     0.028 H 
ATOM     38  H15 non d ame     -13.119  12.313  64.106  0.00  0.00     0.028 H 
ENDBRANCH  33  35
BRANCH  33  39
ATOM     39  C13 non d ame     -10.747  13.485  64.330  0.00  0.00    -0.071 C 
ATOM     40  H16 non d ame     -10.007  14.035  63.750  0.00  0.00     0.028 H 
ATOM     41  H17 non d ame     -11.681  14.047  64.354  0.00  0.00     0.028 H 
ATOM     42  H18 non d ame     -10.381  13.344  65.347  0.00  0.00     0.028 H 
ENDBRANCH  33  39
ENDBRANCH   7  33
ENDBRANCH   4   7
ENDBRANCH   1   3
BRANCH   1  43
ATOM     43  C15 non d ame      -8.274   6.559  64.028  0.00  0.00     0.240 C 
ATOM     44  O5  non d ame      -8.169   5.748  63.166  0.00  0.00    -0.271 OA
ATOM     45  N6  non d ame      -8.716   6.141  65.390  0.00  0.00    -0.355 N 
ATOM     46  H46 non d ame      -8.805   6.820  66.131  0.00  0.00     0.162 HD
BRANCH  45  47
ATOM     47  C20 non d ame      -9.030   4.720  65.653  0.00  0.00     0.013 C 
ATOM     48  H30 non d ame      -9.034   4.194  64.699  0.00  0.00     0.072 H 
BRANCH  47  49
ATOM     49  C21 non d ame     -10.391   4.620  66.303  0.00  0.00    -0.038 C 
ATOM     50  H31 non d ame     -11.068   4.281  65.519  0.00  0.00     0.036 H 
ATOM     51  H32 non d ame     -10.246   4.014  67.198  0.00  0.00     0.036 H 
BRANCH  49  52
ATOM     52  C22 non d ame     -10.928   5.986  66.783  0.00  0.00     0.018 C 
ATOM     53  H33 non d ame     -10.404   6.735  66.188  0.00  0.00     0.048 H 
ATOM     54  H34 non d ame     -12.013   5.912  66.731  0.00  0.00     0.048 H 
BRANCH  52  55
ATOM     55  C23 non d ame     -10.590   6.307  68.266  0.00  0.00     0.259 C 
ATOM     56  O7  non d ame      -9.509   6.699  68.567  0.00  0.00    -0.265 OA
BRANCH  55  57
ATOM     57  O8  non d ame     -11.584   6.112  69.264  0.00  0.00    -0.317 OA
BRANCH  57  58
ATOM     58  C29 non d ame     -11.150   6.439  70.588  0.00  0.00     0.052 C 
ATOM     59  H47 non d ame     -11.463   5.605  71.215  0.00  0.00     0.082 H 
ATOM     60  H48 non d ame     -10.093   6.686  70.499  0.00  0.00     0.082 H 
BRANCH  58  61
ATOM     61  C35 non d ame     -11.915   7.711  71.042  0.00  0.00    -0.034 A 
ATOM     62  C30 non d ame     -13.156   7.596  71.658  0.00  0.00    -0.075 A 
ATOM     63  C31 non d ame     -13.843   8.739  72.066  0.00  0.00    -0.082 A 
ATOM     64  H49 non d ame     -13.591   6.610  71.824  0.00  0.00     0.084 H 
ATOM     65  C32 non d ame     -13.284  10.001  71.851  0.00  0.00    -0.083 A 
ATOM     66  H50 non d ame     -14.814   8.644  72.552  0.00  0.00     0.083 H 
ATOM     67  C33 non d ame     -12.047  10.112  71.231  0.00  0.00    -0.082 A 
ATOM     68  H51 non d ame     -13.814  10.900  72.167  0.00  0.00     0.083 H 
ATOM     69  C34 non d ame     -11.356   8.972  70.825  0.00  0.00    -0.075 A 
ATOM     70  H52 non d ame     -11.615  11.100  71.063  0.00  0.00     0.083 H 
ATOM     71  H53 non d ame     -10.384   9.068  70.340  0.00  0.00     0.084 H 
ENDBRANCH  58  61
ENDBRANCH  57  58
ENDBRANCH  55  57
ENDBRANCH  52  55
ENDBRANCH  49  52
ENDBRANCH  47  49
BRANCH  47  72
ATOM     72  C24 non d ame      -7.975   4.123  66.583  0.00  0.00    -0.039 C 
ATOM     73  H35 non d ame      -8.464   4.029  67.553  0.00  0.00     0.036 H 
ATOM     74  H36 non d ame      -7.606   3.234  66.071  0.00  0.00     0.036 H 
BRANCH  72  75
ATOM     75  C25 non d ame      -6.728   5.110  66.777  0.00  0.00    -0.001 C 
ATOM     76  C26 non d ame      -5.407   4.498  66.012  0.00  0.00    -0.035 C 
ATOM     77  C27 non d ame      -4.368   4.481  66.882  0.00  0.00     0.085 C 
ATOM     78  H38 non d ame      -5.563   3.445  65.781  0.00  0.00     0.036 H 
ATOM     79  H39 non d ame      -5.075   5.183  65.232  0.00  0.00     0.036 H 
ATOM     80  N5  non d ame      -4.942   4.717  68.258  0.00  0.00    -0.049 N 
ATOM     81  H40 non d ame      -3.965   3.469  66.834  0.00  0.00     0.075 H 
ATOM     82  H41 non d ame      -3.745   5.330  66.606  0.00  0.00     0.075 H 
ATOM     83  C28 non d ame      -6.443   5.265  68.026  0.00  0.00     0.193 C 
ATOM     84  H42 non d ame      -4.995   3.814  68.705  0.00  0.00     0.280 HD
ATOM     85  H43 non d ame      -4.392   5.455  68.675  0.00  0.00     0.280 HD
ATOM     86  H44 non d ame      -6.673   6.323  68.152  0.00  0.00     0.129 H 
ATOM     87  H37 non d ame      -6.986   6.148  66.566  0.00  0.00     0.046 H 
BRANCH  83  88
ATOM     88  O6  non d ame      -7.358   4.572  68.877  0.00  0.00    -0.369 OA
ATOM     89  H45 non d ame      -7.621   3.748  68.460  0.00  0.00     0.212 HD
ENDBRANCH  83  88
ENDBRANCH  72  75
ENDBRANCH  47  72
ENDBRANCH  45  47
ENDBRANCH   1  43
BRANCH   1  90
ATOM     90  C16 non d ame      -6.527   8.358  64.202  0.00  0.00    -0.035 C 
ATOM     91  H21 non d ame      -6.646   8.912  65.134  0.00  0.00     0.037 H 
ATOM     92  H22 non d ame      -6.006   7.401  64.200  0.00  0.00     0.037 H 
BRANCH  90  93
ATOM     93  C17 non d ame      -5.736   9.293  63.232  0.00  0.00    -0.059 C 
ATOM     94  H23 non d ame      -6.403   9.559  62.412  0.00  0.00     0.038 H 
BRANCH  93  95
ATOM     95  C18 non d ame      -5.285  10.617  63.927  0.00  0.00    -0.073 C 
ATOM     96  H24 non d ame      -4.567  10.388  64.714  0.00  0.00     0.028 H 
ATOM     97  H25 non d ame      -4.819  11.273  63.191  0.00  0.00     0.028 H 
ATOM     98  H26 non d ame      -6.153  11.115  64.359  0.00  0.00     0.028 H 
ENDBRANCH  93  95
BRANCH  93  99
ATOM     99  C19 non d ame      -4.537   8.561  62.623  0.00  0.00    -0.073 C 
ATOM    100  H27 non d ame      -3.715   8.552  63.339  0.00  0.00     0.028 H 
ATOM    101  H28 non d ame      -4.822   7.537  62.382  0.00  0.00     0.028 H 
ATOM    102  H29 non d ame      -4.222   9.073  61.713  0.00  0.00     0.028 H 
ENDBRANCH  93  99
ENDBRANCH  90  93
ENDBRANCH   1  90
TORSDOF 26
ENDMDL
MODEL 4
REMARK VINA RESULT:      -6.7      2.226      5.766
REMARK  26 active torsions:
REMARK  status: ('A' for Active; 'I' for Inactive)
REMARK    1  A    between atoms: C2_2  and  C3_3 
REMARK    2  A    between atoms: C4_6  and  C5_7 
REMARK       I    between atoms: C5_7  and  N2_9 
REMARK    3  A    between atoms: N2_9  and  C6_10 
REMARK    4  A    between atoms: C6_10  and  C7_11 
REMARK    5  A    between atoms: C6_10  and  C8_13 
REMARK       I    between atoms: C7_11  and  N3_14 
REMARK    6  A    between atoms: N3_14  and  C9_15 
REMARK    7  A    between atoms: C9_15  and  C10_16 
REMARK    8  A    between atoms: C9_15  and  C11_18 
REMARK       I    between atoms: C10_16  and  N4_21 
REMARK    9  A    between atoms: C11_18  and  C12_19 
REMARK   10  A    between atoms: C11_18  and  C13_20 
REMARK   11  A    between atoms: N4_21  and  C14_22 
REMARK   12  A    between atoms: C14_22  and  C15_23 
REMARK   13  A    between atoms: C14_22  and  C16_25 
REMARK       I    between atoms: C15_23  and  N6_40 
REMARK   14  A    between atoms: C16_25  and  C17_26 
REMARK   15  A    between atoms: C17_26  and  C18_27 
REMARK   16  A    between atoms: C17_26  and  C19_28 
REMARK   17  A    between atoms: C20_29  and  C21_30 
REMARK   18  A    between atoms: C20_29  and  C24_33 
REMARK   19  A    between atoms: C20_29  and  N6_40 
REMARK   20  A    between atoms: C21_30  and  C22_31 
REMARK   21  A    between atoms: C22_31  and  C23_32 
REMARK   22  A    between atoms: C23_32  and  O8_43 
REMARK   23  A    between atoms: C24_33  and  C25_34 
REMARK   24  A    between atoms: C28_38  and  O6_39 
REMARK   25  A    between atoms: C29_42  and  O8_43 
REMARK   26  A    between atoms: C29_42  and  C35_49 
ROOT
ATOM      1  C14 non d ame     -12.047  14.166  70.182  0.00  0.00     0.089 C 
ATOM      2  H20 non d ame     -13.081  14.260  69.847  0.00  0.00     0.087 H 
ENDROOT
BRANCH   1   3
ATOM      3  N4  non d ame     -11.662  12.771  70.028  0.00  0.00    -0.346 N 
ATOM      4  C10 non d ame     -12.363  11.696  70.822  0.00  0.00     0.241 C 
ATOM      5  O4  non d ame     -13.232  11.979  71.579  0.00  0.00    -0.271 OA
ATOM      6  H19 non d ame     -10.919  12.551  69.381  0.00  0.00     0.163 HD
BRANCH   4   7
ATOM      7  C9  non d ame     -11.955  10.256  70.647  0.00  0.00     0.092 C 
ATOM      8  H11 non d ame     -12.345   9.885  69.699  0.00  0.00     0.088 H 
BRANCH   7   9
ATOM      9  N3  non d ame     -10.493  10.167  70.579  0.00  0.00    -0.346 N 
ATOM     10  C7  non d ame      -9.829  10.195  69.300  0.00  0.00     0.240 C 
ATOM     11  O3  non d ame     -10.454  10.289  68.314  0.00  0.00    -0.271 OA
ATOM     12  H10 non d ame      -9.940  10.085  71.420  0.00  0.00     0.163 HD
BRANCH  10  13
ATOM     13  C6  non d ame      -8.273  10.097  69.233  0.00  0.00     0.086 C 
ATOM     14  H6  non d ame      -7.920   9.584  68.338  0.00  0.00     0.086 H 
BRANCH  13  15
ATOM     15  N2  non d ame      -7.717  11.439  69.190  0.00  0.00    -0.343 N 
ATOM     16  C5  non d ame      -7.346  12.026  67.900  0.00  0.00     0.273 C 
ATOM     17  O2  non d ame      -7.496  11.408  66.904  0.00  0.00    -0.266 OA
ATOM     18  H5  non d ame      -7.590  11.959  70.046  0.00  0.00     0.163 HD
BRANCH  16  19
ATOM     19  C4  non d ame      -6.759  13.444  67.840  0.00  0.00     0.154 A 
ATOM     20  C1  non d ame      -5.665  13.961  68.605  0.00  0.00    -0.017 A 
ATOM     21  C2  non d ame      -5.523  15.300  68.178  0.00  0.00     0.077 A 
ATOM     22  H1  non d ame      -5.066  13.443  69.355  0.00  0.00     0.091 H 
ATOM     23  O1  non d ame      -6.431  15.516  67.272  0.00  0.00    -0.218 OA
ATOM     24  N1  non d ame      -7.165  14.448  67.057  0.00  0.00    -0.123 NA
BRANCH  21  25
ATOM     25  C3  non d ame      -4.495  16.303  68.684  0.00  0.00    -0.029 C 
ATOM     26  H2  non d ame      -4.144  16.915  67.852  0.00  0.00     0.036 H 
ATOM     27  H3  non d ame      -4.951  16.942  69.438  0.00  0.00     0.036 H 
ATOM     28  H4  non d ame      -3.651  15.769  69.123  0.00  0.00     0.036 H 
ENDBRANCH  21  25
ENDBRANCH  16  19
ENDBRANCH  13  15
BRANCH  13  29
ATOM     29  C8  non d ame      -7.760   9.365  70.447  0.00  0.00    -0.049 C 
ATOM     30  H7  non d ame      -7.431  10.088  71.194  0.00  0.00     0.030 H 
ATOM     31  H8  non d ame      -8.556   8.749  70.864  0.00  0.00     0.030 H 
ATOM     32  H9  non d ame      -6.920   8.731  70.161  0.00  0.00     0.030 H 
ENDBRANCH  13  29
ENDBRANCH  10  13
ENDBRANCH   7   9
BRANCH   7  33
ATOM     33  C11 non d ame     -12.467   9.422  71.858  0.00  0.00    -0.033 C 
ATOM     34  H12 non d ame     -12.628  10.110  72.687  0.00  0.00     0.042 H 
BRANCH  33  35
ATOM     35  C12 non d ame     -13.835   8.741  71.541  0.00  0.00    -0.071 C 
ATOM     36  H13 non d ame     -13.816   7.708  71.887  0.00  0.00     0.028 H 
ATOM     37  H14 non d ame     -14.635   9.280  72.048  0.00  0.00     0.028 H 
ATOM     38  H15 non d ame     -14.008   8.760  70.466  0.00  0.00     0.028 H 
ENDBRANCH  33  35
BRANCH  33  39
ATOM     39  C13 non d ame     -11.401   8.370  72.302  0.00  0.00    -0.071 C 
ATOM     40  H16 non d ame     -10.983   7.882  71.422  0.00  0.00     0.028 H 
ATOM     41  H17 non d ame     -10.604   8.870  72.854  0.00  0.00     0.028 H 
ATOM     42  H18 non d ame     -11.872   7.624  72.942  0.00  0.00     0.028 H 
ENDBRANCH  33  39
ENDBRANCH   7  33
ENDBRANCH   4   7
ENDBRANCH   1   3
BRANCH   1  43
ATOM     43  C15 non d ame     -11.075  15.042  69.341  0.00  0.00     0.240 C 
ATOM     44  O5  non d ame     -10.124  15.531  69.857  0.00  0.00    -0.271 OA
ATOM     45  N6  non d ame     -11.327  15.264  67.888  0.00  0.00    -0.355 N 
ATOM     46  H46 non d ame     -12.130  14.850  67.438  0.00  0.00     0.162 HD
BRANCH  45  47
ATOM     47  C20 non d ame     -10.393  16.098  67.102  0.00  0.00     0.013 C 
ATOM     48  H30 non d ame      -9.396  15.978  67.526  0.00  0.00     0.072 H 
BRANCH  47  49
ATOM     49  C21 non d ame     -10.820  17.546  67.191  0.00  0.00    -0.038 C 
ATOM     50  H31 non d ame     -10.956  17.877  66.162  0.00  0.00     0.036 H 
ATOM     51  H32 non d ame     -11.660  17.563  67.885  0.00  0.00     0.036 H 
BRANCH  49  52
ATOM     52  C22 non d ame      -9.730  18.455  67.801  0.00  0.00     0.018 C 
ATOM     53  H33 non d ame     -10.140  18.816  68.745  0.00  0.00     0.048 H 
ATOM     54  H34 non d ame      -8.815  17.864  67.796  0.00  0.00     0.048 H 
BRANCH  52  55
ATOM     55  C23 non d ame      -9.426  19.723  66.955  0.00  0.00     0.259 C 
ATOM     56  O7  non d ame     -10.039  19.946  65.961  0.00  0.00    -0.265 OA
BRANCH  55  57
ATOM     57  O8  non d ame      -8.396  20.609  67.373  0.00  0.00    -0.317 OA
BRANCH  57  58
ATOM     58  C29 non d ame      -7.086  20.221  66.947  0.00  0.00     0.052 C 
ATOM     59  H47 non d ame      -7.182  19.194  66.598  0.00  0.00     0.082 H 
ATOM     60  H48 non d ame      -6.757  21.001  66.260  0.00  0.00     0.082 H 
BRANCH  58  61
ATOM     61  C35 non d ame      -6.155  20.235  68.188  0.00  0.00    -0.034 A 
ATOM     62  C30 non d ame      -4.840  20.674  68.069  0.00  0.00    -0.075 A 
ATOM     63  C31 non d ame      -4.004  20.687  69.185  0.00  0.00    -0.082 A 
ATOM     64  H49 non d ame      -4.466  21.011  67.102  0.00  0.00     0.084 H 
ATOM     65  C32 non d ame      -4.486  20.253  70.422  0.00  0.00    -0.083 A 
ATOM     66  H50 non d ame      -2.976  21.035  69.088  0.00  0.00     0.083 H 
ATOM     67  C33 non d ame      -5.798  19.811  70.536  0.00  0.00    -0.082 A 
ATOM     68  H51 non d ame      -3.839  20.260  71.300  0.00  0.00     0.083 H 
ATOM     69  C34 non d ame      -6.637  19.800  69.424  0.00  0.00    -0.075 A 
ATOM     70  H52 non d ame      -6.170  19.472  71.503  0.00  0.00     0.083 H 
ATOM     71  H53 non d ame      -7.667  19.452  69.522  0.00  0.00     0.084 H 
ENDBRANCH  58  61
ENDBRANCH  57  58
ENDBRANCH  55  57
ENDBRANCH  52  55
ENDBRANCH  49  52
ENDBRANCH  47  49
BRANCH  47  72
ATOM     72  C24 non d ame     -10.406  15.651  65.642  0.00  0.00    -0.039 C 
ATOM     73  H35 non d ame     -10.717  16.528  65.073  0.00  0.00     0.036 H 
ATOM     74  H36 non d ame      -9.425  15.208  65.465  0.00  0.00     0.036 H 
BRANCH  72  75
ATOM     75  C25 non d ame     -11.496  14.507  65.381  0.00  0.00    -0.001 C 
ATOM     76  C26 non d ame     -10.743  13.081  65.058  0.00  0.00    -0.035 C 
ATOM     77  C27 non d ame     -11.256  12.566  63.914  0.00  0.00     0.085 C 
ATOM     78  H38 non d ame      -9.697  13.257  64.810  0.00  0.00     0.036 H 
ATOM     79  H39 non d ame     -11.007  12.339  65.811  0.00  0.00     0.036 H 
ATOM     80  N5  non d ame     -12.054  13.665  63.255  0.00  0.00    -0.049 N 
ATOM     81  H40 non d ame     -10.395  12.329  63.289  0.00  0.00     0.075 H 
ATOM     82  H41 non d ame     -11.935  11.775  64.230  0.00  0.00     0.075 H 
ATOM     83  C28 non d ame     -12.257  14.804  64.381  0.00  0.00     0.193 C 
ATOM     84  H42 non d ame     -11.473  14.040  62.520  0.00  0.00     0.280 HD
ATOM     85  H43 non d ame     -12.957  13.270  63.033  0.00  0.00     0.280 HD
ATOM     86  H44 non d ame     -13.215  14.918  64.888  0.00  0.00     0.129 H 
ATOM     87  H37 non d ame     -12.273  14.495  66.145  0.00  0.00     0.046 H 
BRANCH  83  88
ATOM     88  O6  non d ame     -11.957  16.092  63.840  0.00  0.00    -0.369 OA
ATOM     89  H45 non d ame     -11.142  16.044  63.335  0.00  0.00     0.212 HD
ENDBRANCH  83  88
ENDBRANCH  72  75
ENDBRANCH  47  72
ENDBRANCH  45  47
ENDBRANCH   1  43
BRANCH   1  90
ATOM     90  C16 non d ame     -11.944  14.551  71.648  0.00  0.00    -0.035 C 
ATOM     91  H21 non d ame     -12.174  13.639  72.203  0.00  0.00     0.037 H 
ATOM     92  H22 non d ame     -10.967  15.021  71.755  0.00  0.00     0.037 H 
BRANCH  90  93
ATOM     93  C17 non d ame     -12.998  15.614  72.093  0.00  0.00    -0.059 C 
ATOM     94  H23 non d ame     -12.771  16.543  71.570  0.00  0.00     0.038 H 
BRANCH  93  95
ATOM     95  C18 non d ame     -14.455  15.196  71.713  0.00  0.00    -0.073 C 
ATOM     96  H24 non d ame     -14.660  14.200  72.103  0.00  0.00     0.028 H 
ATOM     97  H25 non d ame     -15.160  15.907  72.143  0.00  0.00     0.028 H 
ATOM     98  H26 non d ame     -14.559  15.192  70.628  0.00  0.00     0.028 H 
ENDBRANCH  93  95
BRANCH  93  99
ATOM     99  C19 non d ame     -12.888  15.900  73.593  0.00  0.00    -0.073 C 
ATOM    100  H27 non d ame     -13.872  16.153  73.988  0.00  0.00     0.028 H 
ATOM    101  H28 non d ame     -12.507  15.015  74.104  0.00  0.00     0.028 H 
ATOM    102  H29 non d ame     -12.205  16.734  73.755  0.00  0.00     0.028 H 
ENDBRANCH  93  99
ENDBRANCH  90  93
ENDBRANCH   1  90
TORSDOF 26
ENDMDL
MODEL 5
REMARK VINA RESULT:      -6.5      2.239      7.124
REMARK  26 active torsions:
REMARK  status: ('A' for Active; 'I' for Inactive)
REMARK    1  A    between atoms: C2_2  and  C3_3 
REMARK    2  A    between atoms: C4_6  and  C5_7 
REMARK       I    between atoms: C5_7  and  N2_9 
REMARK    3  A    between atoms: N2_9  and  C6_10 
REMARK    4  A    between atoms: C6_10  and  C7_11 
REMARK    5  A    between atoms: C6_10  and  C8_13 
REMARK       I    between atoms: C7_11  and  N3_14 
REMARK    6  A    between atoms: N3_14  and  C9_15 
REMARK    7  A    between atoms: C9_15  and  C10_16 
REMARK    8  A    between atoms: C9_15  and  C11_18 
REMARK       I    between atoms: C10_16  and  N4_21 
REMARK    9  A    between atoms: C11_18  and  C12_19 
REMARK   10  A    between atoms: C11_18  and  C13_20 
REMARK   11  A    between atoms: N4_21  and  C14_22 
REMARK   12  A    between atoms: C14_22  and  C15_23 
REMARK   13  A    between atoms: C14_22  and  C16_25 
REMARK       I    between atoms: C15_23  and  N6_40 
REMARK   14  A    between atoms: C16_25  and  C17_26 
REMARK   15  A    between atoms: C17_26  and  C18_27 
REMARK   16  A    between atoms: C17_26  and  C19_28 
REMARK   17  A    between atoms: C20_29  and  C21_30 
REMARK   18  A    between atoms: C20_29  and  C24_33 
REMARK   19  A    between atoms: C20_29  and  N6_40 
REMARK   20  A    between atoms: C21_30  and  C22_31 
REMARK   21  A    between atoms: C22_31  and  C23_32 
REMARK   22  A    between atoms: C23_32  and  O8_43 
REMARK   23  A    between atoms: C24_33  and  C25_34 
REMARK   24  A    between atoms: C28_38  and  O6_39 
REMARK   25  A    between atoms: C29_42  and  O8_43 
REMARK   26  A    between atoms: C29_42  and  C35_49 
ROOT
ATOM      1  C14 non d ame      -6.833  13.443  67.963  0.00  0.00     0.089 C 
ATOM      2  H20 non d ame      -6.181  13.334  67.096  0.00  0.00     0.087 H 
ENDROOT
BRANCH   1   3
ATOM      3  N4  non d ame      -7.095  14.864  68.138  0.00  0.00    -0.346 N 
ATOM      4  C10 non d ame      -6.096  15.888  67.659  0.00  0.00     0.241 C 
ATOM      5  O4  non d ame      -5.087  15.543  67.137  0.00  0.00    -0.271 OA
ATOM      6  H19 non d ame      -7.958  15.137  68.587  0.00  0.00     0.163 HD
BRANCH   4   7
ATOM      7  C9  non d ame      -6.385  17.354  67.844  0.00  0.00     0.092 C 
ATOM      8  H11 non d ame      -6.097  17.893  66.942  0.00  0.00     0.088 H 
BRANCH   7   9
ATOM      9  N3  non d ame      -7.827  17.549  68.023  0.00  0.00    -0.346 N 
ATOM     10  C7  non d ame      -8.666  17.810  66.881  0.00  0.00     0.240 C 
ATOM     11  O3  non d ame      -8.199  17.867  65.809  0.00  0.00    -0.271 OA
ATOM     12  H10 non d ame      -8.245  17.504  68.942  0.00  0.00     0.163 HD
BRANCH  10  13
ATOM     13  C6  non d ame     -10.200  18.020  67.079  0.00  0.00     0.086 C 
ATOM     14  H6  non d ame     -10.797  17.514  66.319  0.00  0.00     0.086 H 
BRANCH  13  15
ATOM     15  N2  non d ame     -10.592  17.454  68.359  0.00  0.00    -0.343 N 
ATOM     16  C5  non d ame     -11.215  16.130  68.403  0.00  0.00     0.273 C 
ATOM     17  O2  non d ame     -11.400  15.529  67.403  0.00  0.00    -0.266 OA
ATOM     18  H5  non d ame     -10.433  17.976  69.209  0.00  0.00     0.163 HD
BRANCH  16  19
ATOM     19  C4  non d ame     -11.633  15.520  69.750  0.00  0.00     0.154 A 
ATOM     20  C1  non d ame     -12.440  14.357  69.960  0.00  0.00    -0.017 A 
ATOM     21  C2  non d ame     -12.526  14.223  71.363  0.00  0.00     0.077 A 
ATOM     22  H1  non d ame     -12.893  13.709  69.209  0.00  0.00     0.091 H 
ATOM     23  O1  non d ame     -11.844  15.198  71.889  0.00  0.00    -0.218 OA
ATOM     24  N1  non d ame     -11.313  15.968  70.967  0.00  0.00    -0.123 NA
BRANCH  21  25
ATOM     25  C3  non d ame     -13.278  13.135  72.120  0.00  0.00    -0.029 C 
ATOM     26  H2  non d ame     -14.350  13.314  72.044  0.00  0.00     0.036 H 
ATOM     27  H3  non d ame     -13.040  12.163  71.691  0.00  0.00     0.036 H 
ATOM     28  H4  non d ame     -12.980  13.151  73.170  0.00  0.00     0.036 H 
ENDBRANCH  21  25
ENDBRANCH  16  19
ENDBRANCH  13  15
BRANCH  13  29
ATOM     29  C8  non d ame     -10.517  19.493  67.046  0.00  0.00    -0.049 C 
ATOM     30  H7  non d ame     -10.469  19.852  66.018  0.00  0.00     0.030 H 
ATOM     31  H8  non d ame     -11.518  19.660  67.443  0.00  0.00     0.030 H 
ATOM     32  H9  non d ame      -9.790  20.034  67.653  0.00  0.00     0.030 H 
ENDBRANCH  13  29
ENDBRANCH  10  13
ENDBRANCH   7   9
BRANCH   7  33
ATOM     33  C11 non d ame      -5.633  17.876  69.103  0.00  0.00    -0.033 C 
ATOM     34  H12 non d ame      -4.606  18.088  68.809  0.00  0.00     0.042 H 
BRANCH  33  35
ATOM     35  C12 non d ame      -6.257  19.207  69.627  0.00  0.00    -0.071 C 
ATOM     36  H13 non d ame      -7.343  19.116  69.647  0.00  0.00     0.028 H 
ATOM     37  H14 non d ame      -5.890  19.408  70.633  0.00  0.00     0.028 H 
ATOM     38  H15 non d ame      -5.973  20.024  68.965  0.00  0.00     0.028 H 
ENDBRANCH  33  35
BRANCH  33  39
ATOM     39  C13 non d ame      -5.598  16.788  70.225  0.00  0.00    -0.071 C 
ATOM     40  H16 non d ame      -4.721  16.155  70.090  0.00  0.00     0.028 H 
ATOM     41  H17 non d ame      -5.550  17.273  71.200  0.00  0.00     0.028 H 
ATOM     42  H18 non d ame      -6.499  16.177  70.167  0.00  0.00     0.028 H 
ENDBRANCH  33  39
ENDBRANCH   7  33
ENDBRANCH   4   7
ENDBRANCH   1   3
BRANCH   1  43
ATOM     43  C15 non d ame      -8.192  12.710  67.771  0.00  0.00     0.240 C 
ATOM     44  O5  non d ame      -9.174  13.144  68.279  0.00  0.00    -0.271 OA
ATOM     45  N6  non d ame      -8.269  11.471  66.945  0.00  0.00    -0.355 N 
ATOM     46  H46 non d ame      -7.442  11.096  66.506  0.00  0.00     0.162 HD
BRANCH  45  47
ATOM     47  C20 non d ame      -9.568  10.786  66.772  0.00  0.00     0.013 C 
ATOM     48  H30 non d ame     -10.340  11.411  67.222  0.00  0.00     0.072 H 
BRANCH  47  49
ATOM     49  C21 non d ame      -9.522   9.443  67.465  0.00  0.00    -0.038 C 
ATOM     50  H31 non d ame      -8.465   9.204  67.573  0.00  0.00     0.036 H 
ATOM     51  H32 non d ame     -10.151   9.547  68.350  0.00  0.00     0.036 H 
BRANCH  49  52
ATOM     52  C22 non d ame     -10.143   8.311  66.618  0.00  0.00     0.018 C 
ATOM     53  H33 non d ame     -11.030   7.986  67.162  0.00  0.00     0.048 H 
ATOM     54  H34 non d ame     -10.240   8.715  65.611  0.00  0.00     0.048 H 
BRANCH  52  55
ATOM     55  C23 non d ame      -9.236   7.055  66.491  0.00  0.00     0.259 C 
ATOM     56  O7  non d ame      -8.866   6.478  67.461  0.00  0.00    -0.265 OA
BRANCH  55  57
ATOM     57  O8  non d ame      -8.841   6.609  65.199  0.00  0.00    -0.317 OA
BRANCH  57  58
ATOM     58  C29 non d ame      -7.440   6.741  64.942  0.00  0.00     0.052 C 
ATOM     59  H47 non d ame      -6.978   6.925  65.911  0.00  0.00     0.082 H 
ATOM     60  H48 non d ame      -7.162   5.859  64.365  0.00  0.00     0.082 H 
BRANCH  58  61
ATOM     61  C35 non d ame      -7.232   7.995  64.052  0.00  0.00    -0.034 A 
ATOM     62  C30 non d ame      -6.550   9.100  64.551  0.00  0.00    -0.075 A 
ATOM     63  C31 non d ame      -6.364  10.226  63.751  0.00  0.00    -0.082 A 
ATOM     64  H49 non d ame      -6.159   9.082  65.569  0.00  0.00     0.084 H 
ATOM     65  C32 non d ame      -6.867  10.247  62.448  0.00  0.00    -0.083 A 
ATOM     66  H50 non d ame      -5.825  11.088  64.144  0.00  0.00     0.083 H 
ATOM     67  C33 non d ame      -7.552   9.143  61.955  0.00  0.00    -0.082 A 
ATOM     68  H51 non d ame      -6.726  11.123  61.815  0.00  0.00     0.083 H 
ATOM     69  C34 non d ame      -7.737   8.015  62.750  0.00  0.00    -0.075 A 
ATOM     70  H52 non d ame      -7.945   9.164  60.938  0.00  0.00     0.083 H 
ATOM     71  H53 non d ame      -8.275   7.152  62.355  0.00  0.00     0.084 H 
ENDBRANCH  58  61
ENDBRANCH  57  58
ENDBRANCH  55  57
ENDBRANCH  52  55
ENDBRANCH  49  52
ENDBRANCH  47  49
BRANCH  47  72
ATOM     72  C24 non d ame      -9.850  10.584  65.285  0.00  0.00    -0.039 C 
ATOM     73  H35 non d ame      -8.978  10.059  64.893  0.00  0.00     0.036 H 
ATOM     74  H36 non d ame     -10.834  10.116  65.237  0.00  0.00     0.036 H 
BRANCH  72  75
ATOM     75  C25 non d ame      -9.952  11.979  64.505  0.00  0.00    -0.001 C 
ATOM     76  C26 non d ame     -11.035  12.963  65.256  0.00  0.00    -0.035 C 
ATOM     77  C27 non d ame     -11.918  13.422  64.337  0.00  0.00     0.085 C 
ATOM     78  H38 non d ame     -11.655  12.384  65.939  0.00  0.00     0.036 H 
ATOM     79  H39 non d ame     -10.538  13.868  65.606  0.00  0.00     0.036 H 
ATOM     80  N5  non d ame     -11.735  12.585  63.093  0.00  0.00    -0.049 N 
ATOM     81  H40 non d ame     -12.905  13.223  64.757  0.00  0.00     0.075 H 
ATOM     82  H41 non d ame     -11.611  14.445  64.124  0.00  0.00     0.075 H 
ATOM     83  C28 non d ame     -10.334  11.807  63.283  0.00  0.00     0.193 C 
ATOM     84  H42 non d ame     -12.482  11.906  63.093  0.00  0.00     0.280 HD
ATOM     85  H43 non d ame     -11.641  13.232  62.324  0.00  0.00     0.280 HD
ATOM     86  H44 non d ame      -9.442  12.132  62.749  0.00  0.00     0.129 H 
ATOM     87  H37 non d ame      -8.971  12.400  64.282  0.00  0.00     0.046 H 
BRANCH  83  88
ATOM     88  O6  non d ame     -10.489  10.424  62.959  0.00  0.00    -0.369 OA
ATOM     89  H45 non d ame      -9.636  10.054  62.718  0.00  0.00     0.212 HD
ENDBRANCH  83  88
ENDBRANCH  72  75
ENDBRANCH  47  72
ENDBRANCH  45  47
ENDBRANCH   1  43
BRANCH   1  90
ATOM     90  C16 non d ame      -6.135  12.910  69.203  0.00  0.00    -0.035 C 
ATOM     91  H21 non d ame      -6.000  13.776  69.853  0.00  0.00     0.037 H 
ATOM     92  H22 non d ame      -6.741  12.068  69.537  0.00  0.00     0.037 H 
BRANCH  90  93
ATOM     93  C17 non d ame      -4.707  12.343  68.924  0.00  0.00    -0.059 C 
ATOM     94  H23 non d ame      -4.610  11.407  69.474  0.00  0.00     0.038 H 
BRANCH  93  95
ATOM     95  C18 non d ame      -4.482  12.031  67.410  0.00  0.00    -0.073 C 
ATOM     96  H24 non d ame      -4.940  11.073  67.164  0.00  0.00     0.028 H 
ATOM     97  H25 non d ame      -4.936  12.817  66.806  0.00  0.00     0.028 H 
ATOM     98  H26 non d ame      -3.412  11.987  67.203  0.00  0.00     0.028 H 
ENDBRANCH  93  95
BRANCH  93  99
ATOM     99  C19 non d ame      -3.628  13.293  69.451  0.00  0.00    -0.073 C 
ATOM    100  H27 non d ame      -3.211  13.865  68.621  0.00  0.00     0.028 H 
ATOM    101  H28 non d ame      -4.069  13.974  70.178  0.00  0.00     0.028 H 
ATOM    102  H29 non d ame      -2.837  12.715  69.929  0.00  0.00     0.028 H 
ENDBRANCH  93  99
ENDBRANCH  90  93
ENDBRANCH   1  90
TORSDOF 26
ENDMDL
MODEL 6
REMARK VINA RESULT:      -6.3      3.068      6.275
REMARK  26 active torsions:
REMARK  status: ('A' for Active; 'I' for Inactive)
REMARK    1  A    between atoms: C2_2  and  C3_3 
REMARK    2  A    between atoms: C4_6  and  C5_7 
REMARK       I    between atoms: C5_7  and  N2_9 
REMARK    3  A    between atoms: N2_9  and  C6_10 
REMARK    4  A    between atoms: C6_10  and  C7_11 
REMARK    5  A    between atoms: C6_10  and  C8_13 
REMARK       I    between atoms: C7_11  and  N3_14 
REMARK    6  A    between atoms: N3_14  and  C9_15 
REMARK    7  A    between atoms: C9_15  and  C10_16 
REMARK    8  A    between atoms: C9_15  and  C11_18 
REMARK       I    between atoms: C10_16  and  N4_21 
REMARK    9  A    between atoms: C11_18  and  C12_19 
REMARK   10  A    between atoms: C11_18  and  C13_20 
REMARK   11  A    between atoms: N4_21  and  C14_22 
REMARK   12  A    between atoms: C14_22  and  C15_23 
REMARK   13  A    between atoms: C14_22  and  C16_25 
REMARK       I    between atoms: C15_23  and  N6_40 
REMARK   14  A    between atoms: C16_25  and  C17_26 
REMARK   15  A    between atoms: C17_26  and  C18_27 
REMARK   16  A    between atoms: C17_26  and  C19_28 
REMARK   17  A    between atoms: C20_29  and  C21_30 
REMARK   18  A    between atoms: C20_29  and  C24_33 
REMARK   19  A    between atoms: C20_29  and  N6_40 
REMARK   20  A    between atoms: C21_30  and  C22_31 
REMARK   21  A    between atoms: C22_31  and  C23_32 
REMARK   22  A    between atoms: C23_32  and  O8_43 
REMARK   23  A    between atoms: C24_33  and  C25_34 
REMARK   24  A    between atoms: C28_38  and  O6_39 
REMARK   25  A    between atoms: C29_42  and  O8_43 
REMARK   26  A    between atoms: C29_42  and  C35_49 
ROOT
ATOM      1  C14 non d ame     -11.291   9.784  69.582  0.00  0.00     0.089 C 
ATOM      2  H20 non d ame     -11.880   8.994  69.115  0.00  0.00     0.087 H 
ENDROOT
BRANCH   1   3
ATOM      3  N4  non d ame      -9.900   9.358  69.572  0.00  0.00    -0.346 N 
ATOM      4  C10 non d ame      -9.551   7.899  69.404  0.00  0.00     0.241 C 
ATOM      5  O4  non d ame     -10.409   7.088  69.281  0.00  0.00    -0.271 OA
ATOM      6  H19 non d ame      -9.185  10.063  69.681  0.00  0.00     0.163 HD
BRANCH   4   7
ATOM      7  C9  non d ame      -8.106   7.476  69.391  0.00  0.00     0.092 C 
ATOM      8  H11 non d ame      -7.976   6.625  70.060  0.00  0.00     0.088 H 
BRANCH   7   9
ATOM      9  N3  non d ame      -7.740   7.027  68.044  0.00  0.00    -0.346 N 
ATOM     10  C7  non d ame      -7.625   5.618  67.760  0.00  0.00     0.240 C 
ATOM     11  O3  non d ame      -7.822   4.831  68.603  0.00  0.00    -0.271 OA
ATOM     12  H10 non d ame      -7.566   7.695  67.306  0.00  0.00     0.163 HD
BRANCH  10  13
ATOM     13  C6  non d ame      -7.231   5.147  66.325  0.00  0.00     0.086 C 
ATOM     14  H6  non d ame      -8.033   4.604  65.825  0.00  0.00     0.086 H 
BRANCH  13  15
ATOM     15  N2  non d ame      -6.948   6.315  65.507  0.00  0.00    -0.343 N 
ATOM     16  C5  non d ame      -7.531   6.417  64.168  0.00  0.00     0.273 C 
ATOM     17  O2  non d ame      -8.224   5.553  63.756  0.00  0.00    -0.266 OA
ATOM     18  H5  non d ame      -6.352   7.048  65.866  0.00  0.00     0.163 HD
BRANCH  16  19
ATOM     19  C4  non d ame      -7.240   7.647  63.293  0.00  0.00     0.154 A 
ATOM     20  C1  non d ame      -8.178   8.630  62.843  0.00  0.00    -0.017 A 
ATOM     21  C2  non d ame      -7.413   9.539  62.080  0.00  0.00     0.077 A 
ATOM     22  H1  non d ame      -9.249   8.676  63.041  0.00  0.00     0.091 H 
ATOM     23  O1  non d ame      -6.181   9.121  62.098  0.00  0.00    -0.218 OA
ATOM     24  N1  non d ame      -6.055   8.017  62.799  0.00  0.00    -0.123 NA
BRANCH  21  25
ATOM     25  C3  non d ame      -7.934  10.782  61.371  0.00  0.00    -0.029 C 
ATOM     26  H2  non d ame      -9.023  10.804  61.428  0.00  0.00     0.036 H 
ATOM     27  H3  non d ame      -7.527  11.672  61.849  0.00  0.00     0.036 H 
ATOM     28  H4  non d ame      -7.626  10.760  60.324  0.00  0.00     0.036 H 
ENDBRANCH  21  25
ENDBRANCH  16  19
ENDBRANCH  13  15
BRANCH  13  29
ATOM     29  C8  non d ame      -6.014   4.261  66.400  0.00  0.00    -0.049 C 
ATOM     30  H7  non d ame      -6.212   3.328  65.872  0.00  0.00     0.030 H 
ATOM     31  H8  non d ame      -5.167   4.767  65.939  0.00  0.00     0.030 H 
ATOM     32  H9  non d ame      -5.786   4.046  67.444  0.00  0.00     0.030 H 
ENDBRANCH  13  29
ENDBRANCH  10  13
ENDBRANCH   7   9
BRANCH   7  33
ATOM     33  C11 non d ame      -7.209   8.681  69.796  0.00  0.00    -0.033 C 
ATOM     34  H12 non d ame      -7.790   9.590  69.644  0.00  0.00     0.042 H 
BRANCH  33  35
ATOM     35  C12 non d ame      -6.820   8.619  71.306  0.00  0.00    -0.071 C 
ATOM     36  H13 non d ame      -5.951   9.253  71.484  0.00  0.00     0.028 H 
ATOM     37  H14 non d ame      -7.655   8.969  71.911  0.00  0.00     0.028 H 
ATOM     38  H15 non d ame      -6.580   7.591  71.576  0.00  0.00     0.028 H 
ENDBRANCH  33  35
BRANCH  33  39
ATOM     39  C13 non d ame      -5.939   8.763  68.888  0.00  0.00    -0.071 C 
ATOM     40  H16 non d ame      -5.889   7.879  68.254  0.00  0.00     0.028 H 
ATOM     41  H17 non d ame      -5.996   9.655  68.263  0.00  0.00     0.028 H 
ATOM     42  H18 non d ame      -5.048   8.814  69.513  0.00  0.00     0.028 H 
ENDBRANCH  33  39
ENDBRANCH   7  33
ENDBRANCH   4   7
ENDBRANCH   1   3
BRANCH   1  43
ATOM     43  C15 non d ame     -11.400  11.131  68.812  0.00  0.00     0.240 C 
ATOM     44  O5  non d ame     -11.952  11.169  67.761  0.00  0.00    -0.271 OA
ATOM     45  N6  non d ame     -10.823  12.379  69.391  0.00  0.00    -0.355 N 
ATOM     46  H46 non d ame     -10.355  12.360  70.285  0.00  0.00     0.162 HD
BRANCH  45  47
ATOM     47  C20 non d ame     -10.935  13.651  68.647  0.00  0.00     0.013 C 
ATOM     48  H30 non d ame     -11.324  13.427  67.654  0.00  0.00     0.072 H 
BRANCH  47  49
ATOM     49  C21 non d ame      -9.568  14.288  68.534  0.00  0.00    -0.038 C 
ATOM     50  H31 non d ame      -9.094  14.140  69.504  0.00  0.00     0.036 H 
ATOM     51  H32 non d ame      -9.119  13.862  67.637  0.00  0.00     0.036 H 
BRANCH  49  52
ATOM     52  C22 non d ame      -9.635  15.814  68.309  0.00  0.00     0.018 C 
ATOM     53  H33 non d ame     -10.680  16.089  68.455  0.00  0.00     0.048 H 
ATOM     54  H34 non d ame      -8.864  16.241  68.950  0.00  0.00     0.048 H 
BRANCH  52  55
ATOM     55  C23 non d ame      -9.277  16.249  66.860  0.00  0.00     0.259 C 
ATOM     56  O7  non d ame      -8.996  17.379  66.622  0.00  0.00    -0.265 OA
BRANCH  55  57
ATOM     57  O8  non d ame      -9.304  15.284  65.816  0.00  0.00    -0.317 OA
BRANCH  57  58
ATOM     58  C29 non d ame     -10.592  15.108  65.218  0.00  0.00     0.052 C 
ATOM     59  H47 non d ame     -11.313  15.282  66.016  0.00  0.00     0.082 H 
ATOM     60  H48 non d ame     -10.595  15.744  64.333  0.00  0.00     0.082 H 
BRANCH  58  61
ATOM     61  C35 non d ame     -10.710  13.630  64.761  0.00  0.00    -0.034 A 
ATOM     62  C30 non d ame     -11.716  13.252  63.878  0.00  0.00    -0.075 A 
ATOM     63  C31 non d ame     -11.822  11.923  63.467  0.00  0.00    -0.082 A 
ATOM     64  H49 non d ame     -12.421  13.996  63.507  0.00  0.00     0.084 H 
ATOM     65  C32 non d ame     -10.918  10.971  63.947  0.00  0.00    -0.083 A 
ATOM     66  H50 non d ame     -12.609  11.631  62.772  0.00  0.00     0.083 H 
ATOM     67  C33 non d ame      -9.918  11.353  64.831  0.00  0.00    -0.082 A 
ATOM     68  H51 non d ame     -10.994   9.931  63.630  0.00  0.00     0.083 H 
ATOM     69  C34 non d ame      -9.808  12.680  65.241  0.00  0.00    -0.075 A 
ATOM     70  H52 non d ame      -9.216  10.606  65.204  0.00  0.00     0.083 H 
ATOM     71  H53 non d ame      -9.018  12.971  65.935  0.00  0.00     0.084 H 
ENDBRANCH  58  61
ENDBRANCH  57  58
ENDBRANCH  55  57
ENDBRANCH  52  55
ENDBRANCH  49  52
ENDBRANCH  47  49
BRANCH  47  72
ATOM     72  C24 non d ame     -11.879  14.598  69.385  0.00  0.00    -0.039 C 
ATOM     73  H35 non d ame     -11.483  15.599  69.209  0.00  0.00     0.036 H 
ATOM     74  H36 non d ame     -12.880  14.341  69.037  0.00  0.00     0.036 H 
BRANCH  72  75
ATOM     75  C25 non d ame     -11.852  14.350  70.968  0.00  0.00    -0.001 C 
ATOM     76  C26 non d ame     -13.209  13.546  71.432  0.00  0.00    -0.035 C 
ATOM     77  C27 non d ame     -13.782  14.214  72.461  0.00  0.00     0.085 C 
ATOM     78  H38 non d ame     -13.961  13.596  70.645  0.00  0.00     0.036 H 
ATOM     79  H39 non d ame     -12.942  12.584  71.870  0.00  0.00     0.036 H 
ATOM     80  N5  non d ame     -13.124  15.572  72.526  0.00  0.00    -0.049 N 
ATOM     81  H40 non d ame     -14.828  14.340  72.180  0.00  0.00     0.075 H 
ATOM     82  H41 non d ame     -13.521  13.651  73.356  0.00  0.00     0.075 H 
ATOM     83  C28 non d ame     -11.795  15.466  71.616  0.00  0.00     0.193 C 
ATOM     84  H42 non d ame     -13.762  16.220  72.088  0.00  0.00     0.280 HD
ATOM     85  H43 non d ame     -12.845  15.709  73.487  0.00  0.00     0.280 HD
ATOM     86  H44 non d ame     -10.812  15.377  72.078  0.00  0.00     0.129 H 
ATOM     87  H37 non d ame     -10.896  13.948  71.305  0.00  0.00     0.046 H 
BRANCH  83  88
ATOM     88  O6  non d ame     -11.704  16.592  70.741  0.00  0.00    -0.369 OA
ATOM     89  H45 non d ame     -10.786  16.863  70.663  0.00  0.00     0.212 HD
ENDBRANCH  83  88
ENDBRANCH  72  75
ENDBRANCH  47  72
ENDBRANCH  45  47
ENDBRANCH   1  43
BRANCH   1  90
ATOM     90  C16 non d ame     -11.740   9.980  71.020  0.00  0.00    -0.035 C 
ATOM     91  H21 non d ame     -10.824  10.148  71.589  0.00  0.00     0.037 H 
ATOM     92  H22 non d ame     -12.506  10.754  70.981  0.00  0.00     0.037 H 
BRANCH  90  93
ATOM     93  C17 non d ame     -12.419   8.718  71.642  0.00  0.00    -0.059 C 
ATOM     94  H23 non d ame     -12.666   8.040  70.826  0.00  0.00     0.038 H 
BRANCH  93  95
ATOM     95  C18 non d ame     -11.467   7.958  72.621  0.00  0.00    -0.073 C 
ATOM     96  H24 non d ame     -10.452   8.339  72.508  0.00  0.00     0.028 H 
ATOM     97  H25 non d ame     -11.802   8.114  73.646  0.00  0.00     0.028 H 
ATOM     98  H26 non d ame     -11.485   6.893  72.391  0.00  0.00     0.028 H 
ENDBRANCH  93  95
BRANCH  93  99
ATOM     99  C19 non d ame     -13.732   9.089  72.338  0.00  0.00    -0.073 C 
ATOM    100  H27 non d ame     -13.951  10.143  72.161  0.00  0.00     0.028 H 
ATOM    101  H28 non d ame     -14.540   8.477  71.936  0.00  0.00     0.028 H 
ATOM    102  H29 non d ame     -13.639   8.910  73.409  0.00  0.00     0.028 H 
ENDBRANCH  93  99
ENDBRANCH  90  93
ENDBRANCH   1  90
TORSDOF 26
ENDMDL
MODEL 7
REMARK VINA RESULT:      -6.3      2.216      8.171
REMARK  26 active torsions:
REMARK  status: ('A' for Active; 'I' for Inactive)
REMARK    1  A    between atoms: C2_2  and  C3_3 
REMARK    2  A    between atoms: C4_6  and  C5_7 
REMARK       I    between atoms: C5_7  and  N2_9 
REMARK    3  A    between atoms: N2_9  and  C6_10 
REMARK    4  A    between atoms: C6_10  and  C7_11 
REMARK    5  A    between atoms: C6_10  and  C8_13 
REMARK       I    between atoms: C7_11  and  N3_14 
REMARK    6  A    between atoms: N3_14  and  C9_15 
REMARK    7  A    between atoms: C9_15  and  C10_16 
REMARK    8  A    between atoms: C9_15  and  C11_18 
REMARK       I    between atoms: C10_16  and  N4_21 
REMARK    9  A    between atoms: C11_18  and  C12_19 
REMARK   10  A    between atoms: C11_18  and  C13_20 
REMARK   11  A    between atoms: N4_21  and  C14_22 
REMARK   12  A    between atoms: C14_22  and  C15_23 
REMARK   13  A    between atoms: C14_22  and  C16_25 
REMARK       I    between atoms: C15_23  and  N6_40 
REMARK   14  A    between atoms: C16_25  and  C17_26 
REMARK   15  A    between atoms: C17_26  and  C18_27 
REMARK   16  A    between atoms: C17_26  and  C19_28 
REMARK   17  A    between atoms: C20_29  and  C21_30 
REMARK   18  A    between atoms: C20_29  and  C24_33 
REMARK   19  A    between atoms: C20_29  and  N6_40 
REMARK   20  A    between atoms: C21_30  and  C22_31 
REMARK   21  A    between atoms: C22_31  and  C23_32 
REMARK   22  A    between atoms: C23_32  and  O8_43 
REMARK   23  A    between atoms: C24_33  and  C25_34 
REMARK   24  A    between atoms: C28_38  and  O6_39 
REMARK   25  A    between atoms: C29_42  and  O8_43 
REMARK   26  A    between atoms: C29_42  and  C35_49 
ROOT
ATOM      1  C14 non d ame      -6.771  14.090  67.956  0.00  0.00     0.089 C 
ATOM      2  H20 non d ame      -5.876  13.863  67.374  0.00  0.00     0.087 H 
ENDROOT
BRANCH   1   3
ATOM      3  N4  non d ame      -6.887  15.538  68.034  0.00  0.00    -0.346 N 
ATOM      4  C10 non d ame      -5.782  16.421  67.510  0.00  0.00     0.241 C 
ATOM      5  O4  non d ame      -4.807  15.941  67.031  0.00  0.00    -0.271 OA
ATOM      6  H19 non d ame      -7.723  15.927  68.448  0.00  0.00     0.163 HD
BRANCH   4   7
ATOM      7  C9  non d ame      -5.920  17.918  67.595  0.00  0.00     0.092 C 
ATOM      8  H11 non d ame      -5.627  18.361  66.643  0.00  0.00     0.088 H 
BRANCH   7   9
ATOM      9  N3  non d ame      -7.327  18.267  67.818  0.00  0.00    -0.346 N 
ATOM     10  C7  non d ame      -8.194  18.519  66.695  0.00  0.00     0.240 C 
ATOM     11  O3  non d ame      -7.778  18.447  65.603  0.00  0.00    -0.271 OA
ATOM     12  H10 non d ame      -7.701  18.334  68.755  0.00  0.00     0.163 HD
BRANCH  10  13
ATOM     13  C6  non d ame      -9.689  18.893  66.939  0.00  0.00     0.086 C 
ATOM     14  H6  non d ame     -10.316  18.722  66.064  0.00  0.00     0.086 H 
BRANCH  13  15
ATOM     15  N2  non d ame     -10.218  18.051  68.000  0.00  0.00    -0.343 N 
ATOM     16  C5  non d ame     -10.790  16.745  67.667  0.00  0.00     0.273 C 
ATOM     17  O2  non d ame     -10.822  16.382  66.543  0.00  0.00    -0.266 OA
ATOM     18  H5  non d ame     -10.189  18.371  68.958  0.00  0.00     0.163 HD
BRANCH  16  19
ATOM     19  C4  non d ame     -11.351  15.845  68.779  0.00  0.00     0.154 A 
ATOM     20  C1  non d ame     -11.425  14.415  68.780  0.00  0.00    -0.017 A 
ATOM     21  C2  non d ame     -12.016  14.083  70.019  0.00  0.00     0.077 A 
ATOM     22  H1  non d ame     -11.098  13.725  68.001  0.00  0.00     0.091 H 
ATOM     23  O1  non d ame     -12.248  15.197  70.649  0.00  0.00    -0.218 OA
ATOM     24  N1  non d ame     -11.869  16.239  69.945  0.00  0.00    -0.123 NA
BRANCH  21  25
ATOM     25  C3  non d ame     -12.321  12.679  70.524  0.00  0.00    -0.029 C 
ATOM     26  H2  non d ame     -12.741  12.737  71.528  0.00  0.00     0.036 H 
ATOM     27  H3  non d ame     -13.038  12.201  69.858  0.00  0.00     0.036 H 
ATOM     28  H4  non d ame     -11.401  12.093  70.549  0.00  0.00     0.036 H 
ENDBRANCH  21  25
ENDBRANCH  16  19
ENDBRANCH  13  15
BRANCH  13  29
ATOM     29  C8  non d ame      -9.789  20.345  67.333  0.00  0.00    -0.049 C 
ATOM     30  H7  non d ame     -10.286  20.903  66.539  0.00  0.00     0.030 H 
ATOM     31  H8  non d ame     -10.365  20.433  68.254  0.00  0.00     0.030 H 
ATOM     32  H9  non d ame      -8.789  20.748  67.489  0.00  0.00     0.030 H 
ENDBRANCH  13  29
ENDBRANCH  10  13
ENDBRANCH   7   9
BRANCH   7  33
ATOM     33  C11 non d ame      -5.062  18.452  68.779  0.00  0.00    -0.033 C 
ATOM     34  H12 non d ame      -4.014  18.334  68.505  0.00  0.00     0.042 H 
BRANCH  33  35
ATOM     35  C12 non d ame      -5.315  19.972  69.024  0.00  0.00    -0.071 C 
ATOM     36  H13 non d ame      -6.219  20.280  68.498  0.00  0.00     0.028 H 
ATOM     37  H14 non d ame      -5.436  20.153  70.091  0.00  0.00     0.028 H 
ATOM     38  H15 non d ame      -4.466  20.545  68.652  0.00  0.00     0.028 H 
ENDBRANCH  33  35
BRANCH  33  39
ATOM     39  C13 non d ame      -5.319  17.620  70.076  0.00  0.00    -0.071 C 
ATOM     40  H16 non d ame      -5.735  16.649  69.808  0.00  0.00     0.028 H 
ATOM     41  H17 non d ame      -4.377  17.476  70.608  0.00  0.00     0.028 H 
ATOM     42  H18 non d ame      -6.020  18.153  70.717  0.00  0.00     0.028 H 
ENDBRANCH  33  39
ENDBRANCH   7  33
ENDBRANCH   4   7
ENDBRANCH   1   3
BRANCH   1  43
ATOM     43  C15 non d ame      -8.060  13.526  67.293  0.00  0.00     0.240 C 
ATOM     44  O5  non d ame      -8.720  14.225  66.595  0.00  0.00    -0.271 OA
ATOM     45  N6  non d ame      -8.468  12.110  67.522  0.00  0.00    -0.355 N 
ATOM     46  H46 non d ame      -7.912  11.506  68.110  0.00  0.00     0.162 HD
BRANCH  45  47
ATOM     47  C20 non d ame      -9.695  11.589  66.885  0.00  0.00     0.013 C 
ATOM     48  H30 non d ame     -10.399  12.416  66.784  0.00  0.00     0.072 H 
BRANCH  47  49
ATOM     49  C21 non d ame     -10.292  10.508  67.758  0.00  0.00    -0.038 C 
ATOM     50  H31 non d ame     -11.343  10.772  67.876  0.00  0.00     0.036 H 
ATOM     51  H32 non d ame     -10.017   9.564  67.287  0.00  0.00     0.036 H 
BRANCH  49  52
ATOM     52  C22 non d ame      -9.686  10.482  69.178  0.00  0.00     0.018 C 
ATOM     53  H33 non d ame      -8.815  11.137  69.139  0.00  0.00     0.048 H 
ATOM     54  H34 non d ame     -10.509  10.710  69.854  0.00  0.00     0.048 H 
BRANCH  52  55
ATOM     55  C23 non d ame      -9.153   9.086  69.606  0.00  0.00     0.259 C 
ATOM     56  O7  non d ame      -8.346   8.520  68.943  0.00  0.00    -0.265 OA
BRANCH  55  57
ATOM     57  O8  non d ame      -9.652   8.485  70.794  0.00  0.00    -0.317 OA
BRANCH  57  58
ATOM     58  C29 non d ame     -10.563   7.406  70.562  0.00  0.00     0.052 C 
ATOM     59  H47 non d ame     -10.647   7.319  69.480  0.00  0.00     0.082 H 
ATOM     60  H48 non d ame     -10.183   6.569  71.148  0.00  0.00     0.082 H 
BRANCH  58  61
ATOM     61  C35 non d ame     -11.946   7.816  71.133  0.00  0.00    -0.034 A 
ATOM     62  C30 non d ame     -12.995   6.902  71.145  0.00  0.00    -0.075 A 
ATOM     63  C31 non d ame     -14.237   7.271  71.657  0.00  0.00    -0.082 A 
ATOM     64  H49 non d ame     -12.842   5.895  70.754  0.00  0.00     0.084 H 
ATOM     65  C32 non d ame     -14.431   8.562  72.156  0.00  0.00    -0.083 A 
ATOM     66  H50 non d ame     -15.056   6.551  71.669  0.00  0.00     0.083 H 
ATOM     67  C33 non d ame     -13.383   9.473  72.138  0.00  0.00    -0.082 A 
ATOM     68  H51 non d ame     -15.399   8.858  72.559  0.00  0.00     0.083 H 
ATOM     69  C34 non d ame     -12.139   9.107  71.629  0.00  0.00    -0.075 A 
ATOM     70  H52 non d ame     -13.538  10.480  72.526  0.00  0.00     0.083 H 
ATOM     71  H53 non d ame     -11.320   9.828  71.620  0.00  0.00     0.084 H 
ENDBRANCH  58  61
ENDBRANCH  57  58
ENDBRANCH  55  57
ENDBRANCH  52  55
ENDBRANCH  49  52
ENDBRANCH  47  49
BRANCH  47  72
ATOM     72  C24 non d ame      -9.358  11.009  65.513  0.00  0.00    -0.039 C 
ATOM     73  H35 non d ame      -8.270  11.046  65.442  0.00  0.00     0.036 H 
ATOM     74  H36 non d ame      -9.873  10.049  65.469  0.00  0.00     0.036 H 
BRANCH  72  75
ATOM     75  C25 non d ame      -9.940  11.913  64.326  0.00  0.00    -0.001 C 
ATOM     76  C26 non d ame     -11.289  12.704  64.835  0.00  0.00    -0.035 C 
ATOM     77  C27 non d ame     -12.284  12.489  63.940  0.00  0.00     0.085 C 
ATOM     78  H38 non d ame     -11.667  12.248  65.750  0.00  0.00     0.036 H 
ATOM     79  H39 non d ame     -11.132  13.781  64.788  0.00  0.00     0.036 H 
ATOM     80  N5  non d ame     -11.834  11.361  63.042  0.00  0.00    -0.049 N 
ATOM     81  H40 non d ame     -13.138  12.155  64.529  0.00  0.00     0.075 H 
ATOM     82  H41 non d ame     -12.350  13.405  63.354  0.00  0.00     0.075 H 
ATOM     83  C28 non d ame     -10.248  11.196  63.298  0.00  0.00     0.193 C 
ATOM     84  H42 non d ame     -12.302  10.530  63.371  0.00  0.00     0.280 HD
ATOM     85  H43 non d ame     -11.974  11.678  62.094  0.00  0.00     0.280 HD
ATOM     86  H44 non d ame      -9.527  11.569  62.571  0.00  0.00     0.129 H 
ATOM     87  H37 non d ame      -9.166  12.512  63.846  0.00  0.00     0.046 H 
BRANCH  83  88
ATOM     88  O6  non d ame      -9.921   9.817  63.486  0.00  0.00    -0.369 OA
ATOM     89  H45 non d ame     -10.727   9.296  63.495  0.00  0.00     0.212 HD
ENDBRANCH  83  88
ENDBRANCH  72  75
ENDBRANCH  47  72
ENDBRANCH  45  47
ENDBRANCH   1  43
BRANCH   1  90
ATOM     90  C16 non d ame      -6.629  13.526  69.360  0.00  0.00    -0.035 C 
ATOM     91  H21 non d ame      -7.144  14.237  70.009  0.00  0.00     0.037 H 
ATOM     92  H22 non d ame      -6.979  12.497  69.295  0.00  0.00     0.037 H 
BRANCH  90  93
ATOM     93  C17 non d ame      -5.152  13.460  69.863  0.00  0.00    -0.059 C 
ATOM     94  H23 non d ame      -4.832  14.478  70.084  0.00  0.00     0.038 H 
BRANCH  93  95
ATOM     95  C18 non d ame      -5.013  12.621  71.174  0.00  0.00    -0.073 C 
ATOM     96  H24 non d ame      -5.798  12.908  71.873  0.00  0.00     0.028 H 
ATOM     97  H25 non d ame      -5.105  11.561  70.938  0.00  0.00     0.028 H 
ATOM     98  H26 non d ame      -4.038  12.810  71.623  0.00  0.00     0.028 H 
ENDBRANCH  93  95
BRANCH  93  99
ATOM     99  C19 non d ame      -4.226  12.920  68.770  0.00  0.00    -0.073 C 
ATOM    100  H27 non d ame      -3.497  12.240  69.214  0.00  0.00     0.028 H 
ATOM    101  H28 non d ame      -4.816  12.385  68.026  0.00  0.00     0.028 H 
ATOM    102  H29 non d ame      -3.705  13.749  68.291  0.00  0.00     0.028 H 
ENDBRANCH  93  99
ENDBRANCH  90  93
ENDBRANCH   1  90
TORSDOF 26
ENDMDL
MODEL 8
REMARK VINA RESULT:      -6.2      3.221      7.523
REMARK  26 active torsions:
REMARK  status: ('A' for Active; 'I' for Inactive)
REMARK    1  A    between atoms: C2_2  and  C3_3 
REMARK    2  A    between atoms: C4_6  and  C5_7 
REMARK       I    between atoms: C5_7  and  N2_9 
REMARK    3  A    between atoms: N2_9  and  C6_10 
REMARK    4  A    between atoms: C6_10  and  C7_11 
REMARK    5  A    between atoms: C6_10  and  C8_13 
REMARK       I    between atoms: C7_11  and  N3_14 
REMARK    6  A    between atoms: N3_14  and  C9_15 
REMARK    7  A    between atoms: C9_15  and  C10_16 
REMARK    8  A    between atoms: C9_15  and  C11_18 
REMARK       I    between atoms: C10_16  and  N4_21 
REMARK    9  A    between atoms: C11_18  and  C12_19 
REMARK   10  A    between atoms: C11_18  and  C13_20 
REMARK   11  A    between atoms: N4_21  and  C14_22 
REMARK   12  A    between atoms: C14_22  and  C15_23 
REMARK   13  A    between atoms: C14_22  and  C16_25 
REMARK       I    between atoms: C15_23  and  N6_40 
REMARK   14  A    between atoms: C16_25  and  C17_26 
REMARK   15  A    between atoms: C17_26  and  C18_27 
REMARK   16  A    between atoms: C17_26  and  C19_28 
REMARK   17  A    between atoms: C20_29  and  C21_30 
REMARK   18  A    between atoms: C20_29  and  C24_33 
REMARK   19  A    between atoms: C20_29  and  N6_40 
REMARK   20  A    between atoms: C21_30  and  C22_31 
REMARK   21  A    between atoms: C22_31  and  C23_32 
REMARK   22  A    between atoms: C23_32  and  O8_43 
REMARK   23  A    between atoms: C24_33  and  C25_34 
REMARK   24  A    between atoms: C28_38  and  O6_39 
REMARK   25  A    between atoms: C29_42  and  O8_43 
REMARK   26  A    between atoms: C29_42  and  C35_49 
ROOT
ATOM      1  C14 non d ame      -9.217  11.088  67.909  0.00  0.00     0.089 C 
ATOM      2  H20 non d ame      -9.479  11.926  68.556  0.00  0.00     0.087 H 
ENDROOT
BRANCH   1   3
ATOM      3  N4  non d ame      -9.655   9.869  68.573  0.00  0.00    -0.346 N 
ATOM      4  C10 non d ame     -10.703   9.926  69.658  0.00  0.00     0.241 C 
ATOM      5  O4  non d ame     -11.176  10.966  69.980  0.00  0.00    -0.271 OA
ATOM      6  H19 non d ame      -9.238   8.994  68.286  0.00  0.00     0.163 HD
BRANCH   4   7
ATOM      7  C9  non d ame     -11.148   8.655  70.331  0.00  0.00     0.092 C 
ATOM      8  H11 non d ame     -12.016   8.256  69.806  0.00  0.00     0.088 H 
BRANCH   7   9
ATOM      9  N3  non d ame     -10.084   7.650  70.232  0.00  0.00    -0.346 N 
ATOM     10  C7  non d ame     -10.348   6.382  69.601  0.00  0.00     0.240 C 
ATOM     11  O3  non d ame     -11.410   6.150  69.167  0.00  0.00    -0.271 OA
ATOM     12  H10 non d ame      -9.163   7.835  70.602  0.00  0.00     0.163 HD
BRANCH  10  13
ATOM     13  C6  non d ame      -9.212   5.315  69.501  0.00  0.00     0.086 C 
ATOM     14  H6  non d ame      -9.545   4.317  69.785  0.00  0.00     0.086 H 
BRANCH  13  15
ATOM     15  N2  non d ame      -8.767   5.228  68.120  0.00  0.00    -0.343 N 
ATOM     16  C5  non d ame      -8.151   6.396  67.485  0.00  0.00     0.273 C 
ATOM     17  O2  non d ame      -8.021   7.400  68.093  0.00  0.00    -0.266 OA
ATOM     18  H5  non d ame      -8.885   4.366  67.607  0.00  0.00     0.163 HD
BRANCH  16  19
ATOM     19  C4  non d ame      -7.676   6.317  66.026  0.00  0.00     0.154 A 
ATOM     20  C1  non d ame      -6.327   6.374  65.552  0.00  0.00    -0.017 A 
ATOM     21  C2  non d ame      -6.430   6.259  64.148  0.00  0.00     0.077 A 
ATOM     22  H1  non d ame      -5.413   6.482  66.137  0.00  0.00     0.091 H 
ATOM     23  O1  non d ame      -7.693   6.146  63.860  0.00  0.00    -0.218 OA
ATOM     24  N1  non d ame      -8.441   6.178  64.940  0.00  0.00    -0.123 NA
BRANCH  21  25
ATOM     25  C3  non d ame      -5.274   6.262  63.156  0.00  0.00    -0.029 C 
ATOM     26  H2  non d ame      -5.019   7.290  62.899  0.00  0.00     0.036 H 
ATOM     27  H3  non d ame      -4.409   5.774  63.604  0.00  0.00     0.036 H 
ATOM     28  H4  non d ame      -5.568   5.725  62.253  0.00  0.00     0.036 H 
ENDBRANCH  21  25
ENDBRANCH  16  19
ENDBRANCH  13  15
BRANCH  13  29
ATOM     29  C8  non d ame      -8.063   5.717  70.390  0.00  0.00    -0.049 C 
ATOM     30  H7  non d ame      -7.216   6.021  69.773  0.00  0.00     0.030 H 
ATOM     31  H8  non d ame      -8.366   6.548  71.025  0.00  0.00     0.030 H 
ATOM     32  H9  non d ame      -7.772   4.871  71.012  0.00  0.00     0.030 H 
ENDBRANCH  13  29
ENDBRANCH  10  13
ENDBRANCH   7   9
BRANCH   7  33
ATOM     33  C11 non d ame     -11.450   8.941  71.831  0.00  0.00    -0.033 C 
ATOM     34  H12 non d ame     -11.148   9.967  72.037  0.00  0.00     0.042 H 
BRANCH  33  35
ATOM     35  C12 non d ame     -12.977   8.831  72.134  0.00  0.00    -0.071 C 
ATOM     36  H13 non d ame     -13.535   8.830  71.197  0.00  0.00     0.028 H 
ATOM     37  H14 non d ame     -13.174   7.906  72.675  0.00  0.00     0.028 H 
ATOM     38  H15 non d ame     -13.288   9.681  72.740  0.00  0.00     0.028 H 
ENDBRANCH  33  35
BRANCH  33  39
ATOM     39  C13 non d ame     -10.620   7.997  72.758  0.00  0.00    -0.071 C 
ATOM     40  H16 non d ame      -9.633   8.426  72.924  0.00  0.00     0.028 H 
ATOM     41  H17 non d ame     -11.133   7.884  73.715  0.00  0.00     0.028 H 
ATOM     42  H18 non d ame     -10.517   7.020  72.285  0.00  0.00     0.028 H 
ENDBRANCH  33  39
ENDBRANCH   7  33
ENDBRANCH   4   7
ENDBRANCH   1   3
BRANCH   1  43
ATOM     43  C15 non d ame      -9.917  11.174  66.523  0.00  0.00     0.240 C 
ATOM     44  O5  non d ame     -10.710  10.347  66.208  0.00  0.00    -0.271 OA
ATOM     45  N6  non d ame      -9.604  12.294  65.590  0.00  0.00    -0.355 N 
ATOM     46  H46 non d ame      -8.935  13.005  65.848  0.00  0.00     0.162 HD
BRANCH  45  47
ATOM     47  C20 non d ame     -10.278  12.363  64.276  0.00  0.00     0.013 C 
ATOM     48  H30 non d ame      -9.838  13.187  63.715  0.00  0.00     0.072 H 
BRANCH  47  49
ATOM     49  C21 non d ame     -11.755  12.611  64.483  0.00  0.00    -0.038 C 
ATOM     50  H31 non d ame     -12.161  12.818  63.493  0.00  0.00     0.036 H 
ATOM     51  H32 non d ame     -12.120  11.757  65.054  0.00  0.00     0.036 H 
BRANCH  49  52
ATOM     52  C22 non d ame     -12.037  13.864  65.341  0.00  0.00     0.018 C 
ATOM     53  H33 non d ame     -13.103  13.831  65.570  0.00  0.00     0.048 H 
ATOM     54  H34 non d ame     -11.306  13.839  66.148  0.00  0.00     0.048 H 
BRANCH  52  55
ATOM     55  C23 non d ame     -11.802  15.204  64.590  0.00  0.00     0.259 C 
ATOM     56  O7  non d ame     -12.620  15.624  63.837  0.00  0.00    -0.265 OA
BRANCH  55  57
ATOM     57  O8  non d ame     -10.590  15.917  64.800  0.00  0.00    -0.317 OA
BRANCH  57  58
ATOM     58  C29 non d ame     -10.098  15.845  66.142  0.00  0.00     0.052 C 
ATOM     59  H47 non d ame     -10.823  15.244  66.690  0.00  0.00     0.082 H 
ATOM     60  H48 non d ame      -9.064  15.509  66.059  0.00  0.00     0.082 H 
BRANCH  58  61
ATOM     61  C35 non d ame     -10.102  17.280  66.732  0.00  0.00    -0.034 A 
ATOM     62  C30 non d ame      -9.725  17.493  68.054  0.00  0.00    -0.075 A 
ATOM     63  C31 non d ame      -9.728  18.783  68.582  0.00  0.00    -0.082 A 
ATOM     64  H49 non d ame      -9.425  16.648  68.675  0.00  0.00     0.084 H 
ATOM     65  C32 non d ame     -10.116  19.862  67.785  0.00  0.00    -0.083 A 
ATOM     66  H50 non d ame      -9.429  18.946  69.618  0.00  0.00     0.083 H 
ATOM     67  C33 non d ame     -10.496  19.646  66.467  0.00  0.00    -0.082 A 
ATOM     68  H51 non d ame     -10.121  20.874  68.190  0.00  0.00     0.083 H 
ATOM     69  C34 non d ame     -10.490  18.358  65.934  0.00  0.00    -0.075 A 
ATOM     70  H52 non d ame     -10.799  20.491  65.848  0.00  0.00     0.083 H 
ATOM     71  H53 non d ame     -10.789  18.197  64.897  0.00  0.00     0.084 H 
ENDBRANCH  58  61
ENDBRANCH  57  58
ENDBRANCH  55  57
ENDBRANCH  52  55
ENDBRANCH  49  52
ENDBRANCH  47  49
BRANCH  47  72
ATOM     72  C24 non d ame     -10.082  11.046  63.526  0.00  0.00    -0.039 C 
ATOM     73  H35 non d ame     -10.416  10.269  64.214  0.00  0.00     0.036 H 
ATOM     74  H36 non d ame     -10.587  11.179  62.569  0.00  0.00     0.036 H 
BRANCH  72  75
ATOM     75  C25 non d ame      -8.537  10.767  63.211  0.00  0.00    -0.001 C 
ATOM     76  C26 non d ame      -8.238  11.017  61.613  0.00  0.00    -0.035 C 
ATOM     77  C27 non d ame      -7.599   9.931  61.115  0.00  0.00     0.085 C 
ATOM     78  H38 non d ame      -9.174  11.040  61.057  0.00  0.00     0.036 H 
ATOM     79  H39 non d ame      -7.510  11.819  61.490  0.00  0.00     0.036 H 
ATOM     80  N5  non d ame      -7.728   8.832  62.143  0.00  0.00    -0.049 N 
ATOM     81  H40 non d ame      -8.158   9.649  60.222  0.00  0.00     0.075 H 
ATOM     82  H41 non d ame      -6.552  10.220  61.034  0.00  0.00     0.075 H 
ATOM     83  C28 non d ame      -8.210   9.553  63.505  0.00  0.00     0.193 C 
ATOM     84  H42 non d ame      -8.467   8.224  61.821  0.00  0.00     0.280 HD
ATOM     85  H43 non d ame      -6.798   8.465  62.287  0.00  0.00     0.280 HD
ATOM     86  H44 non d ame      -7.508   9.727  64.319  0.00  0.00     0.129 H 
ATOM     87  H37 non d ame      -7.875  11.261  63.923  0.00  0.00     0.046 H 
BRANCH  83  88
ATOM     88  O6  non d ame      -9.297   8.830  64.087  0.00  0.00    -0.369 OA
ATOM     89  H45 non d ame     -10.101   9.011  63.595  0.00  0.00     0.212 HD
ENDBRANCH  83  88
ENDBRANCH  72  75
ENDBRANCH  47  72
ENDBRANCH  45  47
ENDBRANCH   1  43
BRANCH   1  90
ATOM     90  C16 non d ame      -7.710  11.035  67.719  0.00  0.00    -0.035 C 
ATOM     91  H21 non d ame      -7.374  10.184  68.314  0.00  0.00     0.037 H 
ATOM     92  H22 non d ame      -7.554  11.040  66.641  0.00  0.00     0.037 H 
BRANCH  90  93
ATOM     93  C17 non d ame      -6.963  12.287  68.279  0.00  0.00    -0.059 C 
ATOM     94  H23 non d ame      -6.216  12.582  67.543  0.00  0.00     0.038 H 
BRANCH  93  95
ATOM     95  C18 non d ame      -7.924  13.499  68.495  0.00  0.00    -0.073 C 
ATOM     96  H24 non d ame      -8.767  13.189  69.113  0.00  0.00     0.028 H 
ATOM     97  H25 non d ame      -7.386  14.305  68.994  0.00  0.00     0.028 H 
ATOM     98  H26 non d ame      -8.290  13.849  67.529  0.00  0.00     0.028 H 
ENDBRANCH  93  95
BRANCH  93  99
ATOM     99  C19 non d ame      -6.217  11.946  69.572  0.00  0.00    -0.073 C 
ATOM    100  H27 non d ame      -6.216  10.865  69.717  0.00  0.00     0.028 H 
ATOM    101  H28 non d ame      -5.190  12.305  69.503  0.00  0.00     0.028 H 
ATOM    102  H29 non d ame      -6.712  12.427  70.415  0.00  0.00     0.028 H 
ENDBRANCH  93  99
ENDBRANCH  90  93
ENDBRANCH   1  90
TORSDOF 26
ENDMDL
