MODEL 1
REMARK VINA RESULT:      -6.9      0.000      0.000
REMARK  26 active torsions:
REMARK  status: ('A' for Active; 'I' for Inactive)
REMARK    1  A    between atoms: C2_2  and  C3_3 
REMARK    2  A    between atoms: C4_6  and  C5_7 
REMARK       I    between atoms: C5_7  and  N2_9 
REMARK    3  A    between atoms: N2_9  and  C6_10 
REMARK    4  A    between atoms: C6_10  and  C7_11 
REMARK    5  A    between atoms: C6_10  and  C8_13 
REMARK       I    between atoms: C7_11  and  N3_14 
REMARK    6  A    between atoms: N3_14  and  C9_15 
REMARK    7  A    between atoms: C9_15  and  C10_16 
REMARK    8  A    between atoms: C9_15  and  C11_18 
REMARK       I    between atoms: C10_16  and  N4_21 
REMARK    9  A    between atoms: C11_18  and  C12_19 
REMARK   10  A    between atoms: C11_18  and  C13_20 
REMARK   11  A    between atoms: N4_21  and  C14_22 
REMARK   12  A    between atoms: C14_22  and  C15_23 
REMARK   13  A    between atoms: C14_22  and  C16_25 
REMARK       I    between atoms: C15_23  and  N6_40 
REMARK   14  A    between atoms: C16_25  and  C17_26 
REMARK   15  A    between atoms: C17_26  and  C18_27 
REMARK   16  A    between atoms: C17_26  and  C19_28 
REMARK   17  A    between atoms: C20_29  and  C21_30 
REMARK   18  A    between atoms: C20_29  and  C24_33 
REMARK   19  A    between atoms: C20_29  and  N6_40 
REMARK   20  A    between atoms: C21_30  and  C22_31 
REMARK   21  A    between atoms: C22_31  and  C23_32 
REMARK   22  A    between atoms: C23_32  and  O8_43 
REMARK   23  A    between atoms: C24_33  and  C25_34 
REMARK   24  A    between atoms: C28_38  and  O6_39 
REMARK   25  A    between atoms: C29_42  and  O8_43 
REMARK   26  A    between atoms: C29_42  and  C35_49 
ROOT
ATOM      1  C14 non d ame     -12.091  14.198  69.897  0.00  0.00     0.089 C 
ATOM      2  H20 non d ame     -13.162  13.993  69.923  0.00  0.00     0.087 H 
ENDROOT
BRANCH   1   3
ATOM      3  N4  non d ame     -11.409  12.933  69.668  0.00  0.00    -0.346 N 
ATOM      4  C10 non d ame     -11.928  11.663  70.297  0.00  0.00     0.241 C 
ATOM      5  O4  non d ame     -12.895  11.686  70.985  0.00  0.00    -0.271 OA
ATOM      6  H19 non d ame     -10.586  12.935  69.082  0.00  0.00     0.163 HD
BRANCH   4   7
ATOM      7  C9  non d ame     -11.212  10.362  70.046  0.00  0.00     0.092 C 
ATOM      8  H11 non d ame     -11.682   9.850  69.206  0.00  0.00     0.088 H 
BRANCH   7   9
ATOM      9  N3  non d ame      -9.823  10.633  69.664  0.00  0.00    -0.346 N 
ATOM     10  C7  non d ame      -9.343  10.239  68.363  0.00  0.00     0.240 C 
ATOM     11  O3  non d ame     -10.060   9.701  67.610  0.00  0.00    -0.271 OA
ATOM     12  H10 non d ame      -9.192  11.095  70.303  0.00  0.00     0.163 HD
BRANCH  10  13
ATOM     13  C6  non d ame      -7.862  10.528  67.964  0.00  0.00     0.086 C 
ATOM     14  H6  non d ame      -7.693  10.457  66.889  0.00  0.00     0.086 H 
BRANCH  13  15
ATOM     15  N2  non d ame      -7.527  11.889  68.348  0.00  0.00    -0.343 N 
ATOM     16  C5  non d ame      -6.503  12.620  67.599  0.00  0.00     0.273 C 
ATOM     17  O2  non d ame      -5.952  12.103  66.691  0.00  0.00    -0.266 OA
ATOM     18  H5  non d ame      -8.002  12.323  69.128  0.00  0.00     0.163 HD
BRANCH  16  19
ATOM     19  C4  non d ame      -6.141  14.060  67.994  0.00  0.00     0.154 A 
ATOM     20  C1  non d ame      -6.399  14.705  69.246  0.00  0.00    -0.017 A 
ATOM     21  C2  non d ame      -5.873  16.007  69.099  0.00  0.00     0.077 A 
ATOM     22  H1  non d ame      -6.891  14.290  70.126  0.00  0.00     0.091 H 
ATOM     23  O1  non d ame      -5.372  16.090  67.901  0.00  0.00    -0.218 OA
ATOM     24  N1  non d ame      -5.516  14.967  67.237  0.00  0.00    -0.123 NA
BRANCH  21  25
ATOM     25  C3  non d ame      -5.888  17.109  70.150  0.00  0.00    -0.029 C 
ATOM     26  H2  non d ame      -5.510  16.717  71.094  0.00  0.00     0.036 H 
ATOM     27  H3  non d ame      -5.258  17.934  69.821  0.00  0.00     0.036 H 
ATOM     28  H4  non d ame      -6.910  17.466  70.288  0.00  0.00     0.036 H 
ENDBRANCH  21  25
ENDBRANCH  16  19
ENDBRANCH  13  15
BRANCH  13  29
ATOM     29  C8  non d ame      -6.950   9.555  68.666  0.00  0.00    -0.049 C 
ATOM     30  H7  non d ame      -5.962  10.002  68.784  0.00  0.00     0.030 H 
ATOM     31  H8  non d ame      -7.359   9.314  69.647  0.00  0.00     0.030 H 
ATOM     32  H9  non d ame      -6.866   8.643  68.074  0.00  0.00     0.030 H 
ENDBRANCH  13  29
ENDBRANCH  10  13
ENDBRANCH   7   9
BRANCH   7  33
ATOM     33  C11 non d ame     -11.233   9.500  71.342  0.00  0.00    -0.033 C 
ATOM     34  H12 non d ame     -11.481  10.160  72.172  0.00  0.00     0.042 H 
BRANCH  33  35
ATOM     35  C12 non d ame     -12.334   8.396  71.273  0.00  0.00    -0.071 C 
ATOM     36  H13 non d ame     -12.087   7.592  71.966  0.00  0.00     0.028 H 
ATOM     37  H14 non d ame     -13.297   8.827  71.546  0.00  0.00     0.028 H 
ATOM     38  H15 non d ame     -12.386   7.999  70.261  0.00  0.00     0.028 H 
ENDBRANCH  33  35
BRANCH  33  39
ATOM     39  C13 non d ame      -9.827   8.879  71.623  0.00  0.00    -0.071 C 
ATOM     40  H16 non d ame      -9.867   7.802  71.464  0.00  0.00     0.028 H 
ATOM     41  H17 non d ame      -9.093   9.319  70.946  0.00  0.00     0.028 H 
ATOM     42  H18 non d ame      -9.538   9.084  72.653  0.00  0.00     0.028 H 
ENDBRANCH  33  39
ENDBRANCH   7  33
ENDBRANCH   4   7
ENDBRANCH   1   3
BRANCH   1  43
ATOM     43  C15 non d ame     -11.709  15.179  68.753  0.00  0.00     0.240 C 
ATOM     44  O5  non d ame     -12.039  16.319  68.816  0.00  0.00    -0.271 OA
ATOM     45  N6  non d ame     -10.921  14.699  67.581  0.00  0.00    -0.355 N 
ATOM     46  H46 non d ame     -10.631  13.735  67.519  0.00  0.00     0.162 HD
BRANCH  45  47
ATOM     47  C20 non d ame     -10.564  15.645  66.502  0.00  0.00     0.013 C 
ATOM     48  H30 non d ame     -11.237  16.500  66.568  0.00  0.00     0.072 H 
BRANCH  47  49
ATOM     49  C21 non d ame     -10.729  14.962  65.163  0.00  0.00    -0.038 C 
ATOM     50  H31 non d ame     -10.772  15.764  64.427  0.00  0.00     0.036 H 
ATOM     51  H32 non d ame      -9.933  14.218  65.113  0.00  0.00     0.036 H 
BRANCH  49  52
ATOM     52  C22 non d ame     -12.060  14.188  65.045  0.00  0.00     0.018 C 
ATOM     53  H33 non d ame     -12.701  14.580  65.835  0.00  0.00     0.048 H 
ATOM     54  H34 non d ame     -12.363  14.278  64.003  0.00  0.00     0.048 H 
BRANCH  52  55
ATOM     55  C23 non d ame     -11.925  12.664  65.322  0.00  0.00     0.259 C 
ATOM     56  O7  non d ame     -11.986  12.245  66.432  0.00  0.00    -0.265 OA
BRANCH  55  57
ATOM     57  O8  non d ame     -11.713  11.775  64.232  0.00  0.00    -0.317 OA
BRANCH  57  58
ATOM     58  C29 non d ame     -10.682  12.193  63.332  0.00  0.00     0.052 C 
ATOM     59  H47 non d ame     -11.159  12.276  62.356  0.00  0.00     0.082 H 
ATOM     60  H48 non d ame     -10.227  13.069  63.793  0.00  0.00     0.082 H 
BRANCH  58  61
ATOM     61  C35 non d ame      -9.619  11.064  63.265  0.00  0.00    -0.034 A 
ATOM     62  C30 non d ame      -9.608  10.058  64.226  0.00  0.00    -0.075 A 
ATOM     63  C31 non d ame      -8.652   9.045  64.165  0.00  0.00    -0.082 A 
ATOM     64  H49 non d ame     -10.349  10.064  65.026  0.00  0.00     0.084 H 
ATOM     65  C32 non d ame      -7.703   9.042  63.140  0.00  0.00    -0.083 A 
ATOM     66  H50 non d ame      -8.649   8.256  64.918  0.00  0.00     0.083 H 
ATOM     67  C33 non d ame      -7.715  10.051  62.185  0.00  0.00    -0.082 A 
ATOM     68  H51 non d ame      -6.953   8.253  63.085  0.00  0.00     0.083 H 
ATOM     69  C34 non d ame      -8.670  11.064  62.241  0.00  0.00    -0.075 A 
ATOM     70  H52 non d ame      -6.971  10.046  61.388  0.00  0.00     0.083 H 
ATOM     71  H53 non d ame      -8.674  11.851  61.486  0.00  0.00     0.084 H 
ENDBRANCH  58  61
ENDBRANCH  57  58
ENDBRANCH  55  57
ENDBRANCH  52  55
ENDBRANCH  49  52
ENDBRANCH  47  49
BRANCH  47  72
ATOM     72  C24 non d ame      -9.115  16.097  66.670  0.00  0.00    -0.039 C 
ATOM     73  H35 non d ame      -8.685  15.422  67.411  0.00  0.00     0.036 H 
ATOM     74  H36 non d ame      -8.703  16.131  65.661  0.00  0.00     0.036 H 
BRANCH  72  75
ATOM     75  C25 non d ame      -9.020  17.579  67.269  0.00  0.00    -0.001 C 
ATOM     76  C26 non d ame     -10.334  18.454  66.807  0.00  0.00    -0.035 C 
ATOM     77  C27 non d ame      -9.911  19.622  66.267  0.00  0.00     0.085 C 
ATOM     78  H38 non d ame     -10.841  17.959  65.980  0.00  0.00     0.036 H 
ATOM     79  H39 non d ame     -10.900  18.770  67.683  0.00  0.00     0.036 H 
ATOM     80  N5  non d ame      -8.428  19.482  66.019  0.00  0.00    -0.049 N 
ATOM     81  H40 non d ame     -10.425  19.703  65.308  0.00  0.00     0.075 H 
ATOM     82  H41 non d ame     -10.072  20.375  67.037  0.00  0.00     0.075 H 
ATOM     83  C28 non d ame      -7.958  18.185  66.856  0.00  0.00     0.193 C 
ATOM     84  H42 non d ame      -8.320  19.286  65.034  0.00  0.00     0.280 HD
ATOM     85  H43 non d ame      -7.992  20.299  66.422  0.00  0.00     0.280 HD
ATOM     86  H44 non d ame      -7.416  18.297  67.795  0.00  0.00     0.129 H 
ATOM     87  H37 non d ame      -8.773  17.579  68.331  0.00  0.00     0.046 H 
BRANCH  83  88
ATOM     88  O6  non d ame      -7.140  17.342  66.043  0.00  0.00    -0.369 OA
ATOM     89  H45 non d ame      -6.560  17.884  65.503  0.00  0.00     0.212 HD
ENDBRANCH  83  88
ENDBRANCH  72  75
ENDBRANCH  47  72
ENDBRANCH  45  47
ENDBRANCH   1  43
BRANCH   1  90
ATOM     90  C16 non d ame     -11.643  14.769  71.232  0.00  0.00    -0.035 C 
ATOM     91  H21 non d ame     -11.384  13.903  71.844  0.00  0.00     0.037 H 
ATOM     92  H22 non d ame     -10.882  15.510  70.989  0.00  0.00     0.037 H 
BRANCH  90  93
ATOM     93  C17 non d ame     -12.771  15.529  72.000  0.00  0.00    -0.059 C 
ATOM     94  H23 non d ame     -13.137  16.321  71.347  0.00  0.00     0.038 H 
BRANCH  93  95
ATOM     95  C18 non d ame     -13.978  14.600  72.346  0.00  0.00    -0.073 C 
ATOM     96  H24 non d ame     -13.622  13.738  72.910  0.00  0.00     0.028 H 
ATOM     97  H25 non d ame     -14.701  15.154  72.945  0.00  0.00     0.028 H 
ATOM     98  H26 non d ame     -14.452  14.263  71.424  0.00  0.00     0.028 H 
ENDBRANCH  93  95
BRANCH  93  99
ATOM     99  C19 non d ame     -12.219  16.199  73.261  0.00  0.00    -0.073 C 
ATOM    100  H27 non d ame     -13.005  16.256  74.015  0.00  0.00     0.028 H 
ATOM    101  H28 non d ame     -11.385  15.612  73.648  0.00  0.00     0.028 H 
ATOM    102  H29 non d ame     -11.873  17.203  73.018  0.00  0.00     0.028 H 
ENDBRANCH  93  99
ENDBRANCH  90  93
ENDBRANCH   1  90
TORSDOF 26
ENDMDL
MODEL 2
REMARK VINA RESULT:      -6.8      2.068      5.297
REMARK  26 active torsions:
REMARK  status: ('A' for Active; 'I' for Inactive)
REMARK    1  A    between atoms: C2_2  and  C3_3 
REMARK    2  A    between atoms: C4_6  and  C5_7 
REMARK       I    between atoms: C5_7  and  N2_9 
REMARK    3  A    between atoms: N2_9  and  C6_10 
REMARK    4  A    between atoms: C6_10  and  C7_11 
REMARK    5  A    between atoms: C6_10  and  C8_13 
REMARK       I    between atoms: C7_11  and  N3_14 
REMARK    6  A    between atoms: N3_14  and  C9_15 
REMARK    7  A    between atoms: C9_15  and  C10_16 
REMARK    8  A    between atoms: C9_15  and  C11_18 
REMARK       I    between atoms: C10_16  and  N4_21 
REMARK    9  A    between atoms: C11_18  and  C12_19 
REMARK   10  A    between atoms: C11_18  and  C13_20 
REMARK   11  A    between atoms: N4_21  and  C14_22 
REMARK   12  A    between atoms: C14_22  and  C15_23 
REMARK   13  A    between atoms: C14_22  and  C16_25 
REMARK       I    between atoms: C15_23  and  N6_40 
REMARK   14  A    between atoms: C16_25  and  C17_26 
REMARK   15  A    between atoms: C17_26  and  C18_27 
REMARK   16  A    between atoms: C17_26  and  C19_28 
REMARK   17  A    between atoms: C20_29  and  C21_30 
REMARK   18  A    between atoms: C20_29  and  C24_33 
REMARK   19  A    between atoms: C20_29  and  N6_40 
REMARK   20  A    between atoms: C21_30  and  C22_31 
REMARK   21  A    between atoms: C22_31  and  C23_32 
REMARK   22  A    between atoms: C23_32  and  O8_43 
REMARK   23  A    between atoms: C24_33  and  C25_34 
REMARK   24  A    between atoms: C28_38  and  O6_39 
REMARK   25  A    between atoms: C29_42  and  O8_43 
REMARK   26  A    between atoms: C29_42  and  C35_49 
ROOT
ATOM      1  C14 non d ame     -12.085  14.102  70.298  0.00  0.00     0.089 C 
ATOM      2  H20 non d ame     -13.117  14.160  69.950  0.00  0.00     0.087 H 
ENDROOT
BRANCH   1   3
ATOM      3  N4  non d ame     -11.647  12.724  70.142  0.00  0.00    -0.346 N 
ATOM      4  C10 non d ame     -12.384  11.606  70.837  0.00  0.00     0.241 C 
ATOM      5  O4  non d ame     -13.327  11.842  71.519  0.00  0.00    -0.271 OA
ATOM      6  H19 non d ame     -10.841  12.543  69.559  0.00  0.00     0.163 HD
BRANCH   4   7
ATOM      7  C9  non d ame     -11.920  10.184  70.659  0.00  0.00     0.092 C 
ATOM      8  H11 non d ame     -12.356   9.775  69.748  0.00  0.00     0.088 H 
BRANCH   7   9
ATOM      9  N3  non d ame     -10.464  10.163  70.490  0.00  0.00    -0.346 N 
ATOM     10  C7  non d ame      -9.890  10.282  69.173  0.00  0.00     0.240 C 
ATOM     11  O3  non d ame     -10.583  10.396  68.237  0.00  0.00    -0.271 OA
ATOM     12  H10 non d ame      -9.852  10.064  71.288  0.00  0.00     0.163 HD
BRANCH  10  13
ATOM     13  C6  non d ame      -8.339  10.255  69.000  0.00  0.00     0.086 C 
ATOM     14  H6  non d ame      -8.030   9.900  68.016  0.00  0.00     0.086 H 
BRANCH  13  15
ATOM     15  N2  non d ame      -7.826  11.609  69.132  0.00  0.00    -0.343 N 
ATOM     16  C5  non d ame      -7.768  12.478  67.955  0.00  0.00     0.273 C 
ATOM     17  O2  non d ame      -8.133  12.077  66.905  0.00  0.00    -0.266 OA
ATOM     18  H5  non d ame      -7.514  11.943  70.034  0.00  0.00     0.163 HD
BRANCH  16  19
ATOM     19  C4  non d ame      -7.230  13.911  68.081  0.00  0.00     0.154 A 
ATOM     20  C1  non d ame      -7.046  14.663  69.285  0.00  0.00    -0.017 A 
ATOM     21  C2  non d ame      -6.531  15.908  68.861  0.00  0.00     0.077 A 
ATOM     22  H1  non d ame      -7.254  14.353  70.309  0.00  0.00     0.091 H 
ATOM     23  O1  non d ame      -6.432  15.865  67.565  0.00  0.00    -0.218 OA
ATOM     24  N1  non d ame      -6.834  14.710  67.087  0.00  0.00    -0.123 NA
BRANCH  21  25
ATOM     25  C3  non d ame      -6.159  17.082  69.758  0.00  0.00    -0.029 C 
ATOM     26  H2  non d ame      -7.014  17.351  70.379  0.00  0.00     0.036 H 
ATOM     27  H3  non d ame      -5.321  16.802  70.395  0.00  0.00     0.036 H 
ATOM     28  H4  non d ame      -5.876  17.936  69.140  0.00  0.00     0.036 H 
ENDBRANCH  21  25
ENDBRANCH  16  19
ENDBRANCH  13  15
BRANCH  13  29
ATOM     29  C8  non d ame      -7.727   9.366  70.052  0.00  0.00    -0.049 C 
ATOM     30  H7  non d ame      -6.908   8.795  69.614  0.00  0.00     0.030 H 
ATOM     31  H8  non d ame      -7.348   9.978  70.870  0.00  0.00     0.030 H 
ATOM     32  H9  non d ame      -8.485   8.680  70.433  0.00  0.00     0.030 H 
ENDBRANCH  13  29
ENDBRANCH  10  13
ENDBRANCH   7   9
BRANCH   7  33
ATOM     33  C11 non d ame     -12.306   9.352  71.917  0.00  0.00    -0.033 C 
ATOM     34  H12 non d ame     -12.448  10.049  72.742  0.00  0.00     0.042 H 
BRANCH  33  35
ATOM     35  C12 non d ame     -13.654   8.594  71.706  0.00  0.00    -0.071 C 
ATOM     36  H13 non d ame     -13.451   7.583  71.354  0.00  0.00     0.028 H 
ATOM     37  H14 non d ame     -14.197   8.549  72.649  0.00  0.00     0.028 H 
ATOM     38  H15 non d ame     -14.254   9.122  70.965  0.00  0.00     0.028 H 
ENDBRANCH  33  35
BRANCH  33  39
ATOM     39  C13 non d ame     -11.159   8.367  72.309  0.00  0.00    -0.071 C 
ATOM     40  H16 non d ame     -10.203   8.772  71.979  0.00  0.00     0.028 H 
ATOM     41  H17 non d ame     -11.145   8.238  73.393  0.00  0.00     0.028 H 
ATOM     42  H18 non d ame     -11.330   7.402  71.832  0.00  0.00     0.028 H 
ENDBRANCH  33  39
ENDBRANCH   7  33
ENDBRANCH   4   7
ENDBRANCH   1   3
BRANCH   1  43
ATOM     43  C15 non d ame     -11.135  15.019  69.476  0.00  0.00     0.240 C 
ATOM     44  O5  non d ame     -10.341  15.703  70.037  0.00  0.00    -0.271 OA
ATOM     45  N6  non d ame     -11.210  15.038  67.987  0.00  0.00    -0.355 N 
ATOM     46  H46 non d ame     -11.877  14.459  67.500  0.00  0.00     0.162 HD
BRANCH  45  47
ATOM     47  C20 non d ame     -10.299  15.915  67.220  0.00  0.00     0.013 C 
ATOM     48  H30 non d ame      -9.295  15.796  67.627  0.00  0.00     0.072 H 
BRANCH  47  49
ATOM     49  C21 non d ame     -10.748  17.352  67.364  0.00  0.00    -0.038 C 
ATOM     50  H31 non d ame     -11.158  17.631  66.394  0.00  0.00     0.036 H 
ATOM     51  H32 non d ame     -11.381  17.375  68.252  0.00  0.00     0.036 H 
BRANCH  49  52
ATOM     52  C22 non d ame      -9.576  18.320  67.638  0.00  0.00     0.018 C 
ATOM     53  H33 non d ame      -9.967  19.069  68.327  0.00  0.00     0.048 H 
ATOM     54  H34 non d ame      -8.737  17.692  67.935  0.00  0.00     0.048 H 
BRANCH  52  55
ATOM     55  C23 non d ame      -9.103  19.101  66.380  0.00  0.00     0.259 C 
ATOM     56  O7  non d ame      -9.763  19.983  65.934  0.00  0.00    -0.265 OA
BRANCH  55  57
ATOM     57  O8  non d ame      -7.876  18.742  65.757  0.00  0.00    -0.317 OA
BRANCH  57  58
ATOM     58  C29 non d ame      -7.004  19.849  65.508  0.00  0.00     0.052 C 
ATOM     59  H47 non d ame      -6.450  19.590  64.606  0.00  0.00     0.082 H 
ATOM     60  H48 non d ame      -7.640  20.733  65.521  0.00  0.00     0.082 H 
BRANCH  58  61
ATOM     61  C35 non d ame      -6.003  19.945  66.690  0.00  0.00    -0.034 A 
ATOM     62  C30 non d ame      -6.249  20.822  67.742  0.00  0.00    -0.075 A 
ATOM     63  C31 non d ame      -5.350  20.909  68.803  0.00  0.00    -0.082 A 
ATOM     64  H49 non d ame      -7.147  21.441  67.734  0.00  0.00     0.084 H 
ATOM     65  C32 non d ame      -4.199  20.117  68.809  0.00  0.00    -0.083 A 
ATOM     66  H50 non d ame      -5.547  21.595  69.628  0.00  0.00     0.083 H 
ATOM     67  C33 non d ame      -3.955  19.246  67.756  0.00  0.00    -0.082 A 
ATOM     68  H51 non d ame      -3.491  20.178  69.636  0.00  0.00     0.083 H 
ATOM     69  C34 non d ame      -4.853  19.154  66.694  0.00  0.00    -0.075 A 
ATOM     70  H52 non d ame      -3.055  18.630  67.763  0.00  0.00     0.083 H 
ATOM     71  H53 non d ame      -4.655  18.466  65.871  0.00  0.00     0.084 H 
ENDBRANCH  58  61
ENDBRANCH  57  58
ENDBRANCH  55  57
ENDBRANCH  52  55
ENDBRANCH  49  52
ENDBRANCH  47  49
BRANCH  47  72
ATOM     72  C24 non d ame     -10.323  15.519  65.745  0.00  0.00    -0.039 C 
ATOM     73  H35 non d ame     -10.465  16.451  65.197  0.00  0.00     0.036 H 
ATOM     74  H36 non d ame      -9.421  14.927  65.588  0.00  0.00     0.036 H 
BRANCH  72  75
ATOM     75  C25 non d ame     -11.572  14.576  65.404  0.00  0.00    -0.001 C 
ATOM     76  C26 non d ame     -11.054  13.041  65.119  0.00  0.00    -0.035 C 
ATOM     77  C27 non d ame     -11.571  12.618  63.940  0.00  0.00     0.085 C 
ATOM     78  H38 non d ame      -9.979  13.037  64.942  0.00  0.00     0.036 H 
ATOM     79  H39 non d ame     -11.489  12.358  65.848  0.00  0.00     0.036 H 
ATOM     80  N5  non d ame     -12.125  13.835  63.239  0.00  0.00    -0.049 N 
ATOM     81  H40 non d ame     -10.723  12.236  63.371  0.00  0.00     0.075 H 
ATOM     82  H41 non d ame     -12.394  11.955  64.205  0.00  0.00     0.075 H 
ATOM     83  C28 non d ame     -12.205  14.995  64.359  0.00  0.00     0.193 C 
ATOM     84  H42 non d ame     -11.442  14.103  62.547  0.00  0.00     0.280 HD
ATOM     85  H43 non d ame     -13.065  13.598  62.956  0.00  0.00     0.280 HD
ATOM     86  H44 non d ame     -13.161  15.272  64.804  0.00  0.00     0.129 H 
ATOM     87  H37 non d ame     -12.389  14.699  66.116  0.00  0.00     0.046 H 
BRANCH  83  88
ATOM     88  O6  non d ame     -11.655  16.212  63.850  0.00  0.00    -0.369 OA
ATOM     89  H45 non d ame     -10.706  16.112  63.741  0.00  0.00     0.212 HD
ENDBRANCH  83  88
ENDBRANCH  72  75
ENDBRANCH  47  72
ENDBRANCH  45  47
ENDBRANCH   1  43
BRANCH   1  90
ATOM     90  C16 non d ame     -12.015  14.481  71.769  0.00  0.00    -0.035 C 
ATOM     91  H21 non d ame     -12.287  13.575  72.313  0.00  0.00     0.037 H 
ATOM     92  H22 non d ame     -11.029  14.924  71.907  0.00  0.00     0.037 H 
BRANCH  90  93
ATOM     93  C17 non d ame     -13.052  15.572  72.185  0.00  0.00    -0.059 C 
ATOM     94  H23 non d ame     -12.826  16.476  71.620  0.00  0.00     0.038 H 
BRANCH  93  95
ATOM     95  C18 non d ame     -14.518  15.153  71.847  0.00  0.00    -0.073 C 
ATOM     96  H24 non d ame     -14.529  14.119  71.500  0.00  0.00     0.028 H 
ATOM     97  H25 non d ame     -15.137  15.243  72.739  0.00  0.00     0.028 H 
ATOM     98  H26 non d ame     -14.911  15.803  71.065  0.00  0.00     0.028 H 
ENDBRANCH  93  95
BRANCH  93  99
ATOM     99  C19 non d ame     -12.914  15.920  73.670  0.00  0.00    -0.073 C 
ATOM    100  H27 non d ame     -13.906  16.041  74.108  0.00  0.00     0.028 H 
ATOM    101  H28 non d ame     -12.385  15.116  74.183  0.00  0.00     0.028 H 
ATOM    102  H29 non d ame     -12.353  16.848  73.776  0.00  0.00     0.028 H 
ENDBRANCH  93  99
ENDBRANCH  90  93
ENDBRANCH   1  90
TORSDOF 26
ENDMDL
MODEL 3
REMARK VINA RESULT:      -6.6      2.272      8.188
REMARK  26 active torsions:
REMARK  status: ('A' for Active; 'I' for Inactive)
REMARK    1  A    between atoms: C2_2  and  C3_3 
REMARK    2  A    between atoms: C4_6  and  C5_7 
REMARK       I    between atoms: C5_7  and  N2_9 
REMARK    3  A    between atoms: N2_9  and  C6_10 
REMARK    4  A    between atoms: C6_10  and  C7_11 
REMARK    5  A    between atoms: C6_10  and  C8_13 
REMARK       I    between atoms: C7_11  and  N3_14 
REMARK    6  A    between atoms: N3_14  and  C9_15 
REMARK    7  A    between atoms: C9_15  and  C10_16 
REMARK    8  A    between atoms: C9_15  and  C11_18 
REMARK       I    between atoms: C10_16  and  N4_21 
REMARK    9  A    between atoms: C11_18  and  C12_19 
REMARK   10  A    between atoms: C11_18  and  C13_20 
REMARK   11  A    between atoms: N4_21  and  C14_22 
REMARK   12  A    between atoms: C14_22  and  C15_23 
REMARK   13  A    between atoms: C14_22  and  C16_25 
REMARK       I    between atoms: C15_23  and  N6_40 
REMARK   14  A    between atoms: C16_25  and  C17_26 
REMARK   15  A    between atoms: C17_26  and  C18_27 
REMARK   16  A    between atoms: C17_26  and  C19_28 
REMARK   17  A    between atoms: C20_29  and  C21_30 
REMARK   18  A    between atoms: C20_29  and  C24_33 
REMARK   19  A    between atoms: C20_29  and  N6_40 
REMARK   20  A    between atoms: C21_30  and  C22_31 
REMARK   21  A    between atoms: C22_31  and  C23_32 
REMARK   22  A    between atoms: C23_32  and  O8_43 
REMARK   23  A    between atoms: C24_33  and  C25_34 
REMARK   24  A    between atoms: C28_38  and  O6_39 
REMARK   25  A    between atoms: C29_42  and  O8_43 
REMARK   26  A    between atoms: C29_42  and  C35_49 
ROOT
ATOM      1  C14 non d ame      -6.659  15.926  67.669  0.00  0.00     0.089 C 
ATOM      2  H20 non d ame      -6.055  16.410  66.900  0.00  0.00     0.087 H 
ENDROOT
BRANCH   1   3
ATOM      3  N4  non d ame      -8.057  16.120  67.315  0.00  0.00    -0.346 N 
ATOM      4  C10 non d ame      -8.461  17.244  66.392  0.00  0.00     0.241 C 
ATOM      5  O4  non d ame      -7.641  17.980  65.950  0.00  0.00    -0.271 OA
ATOM      6  H19 non d ame      -8.739  15.485  67.703  0.00  0.00     0.163 HD
BRANCH   4   7
ATOM      7  C9  non d ame      -9.911  17.427  66.031  0.00  0.00     0.092 C 
ATOM      8  H11 non d ame      -9.981  17.933  65.068  0.00  0.00     0.088 H 
BRANCH   7   9
ATOM      9  N3  non d ame     -10.546  16.114  65.876  0.00  0.00    -0.346 N 
ATOM     10  C7  non d ame     -11.346  15.834  64.711  0.00  0.00     0.240 C 
ATOM     11  O3  non d ame     -11.492  16.652  63.887  0.00  0.00    -0.271 OA
ATOM     12  H10 non d ame     -10.431  15.398  66.579  0.00  0.00     0.163 HD
BRANCH  10  13
ATOM     13  C6  non d ame     -12.022  14.436  64.553  0.00  0.00     0.086 C 
ATOM     14  H6  non d ame     -12.676  14.379  63.683  0.00  0.00     0.086 H 
BRANCH  13  15
ATOM     15  N2  non d ame     -10.988  13.432  64.362  0.00  0.00    -0.343 N 
ATOM     16  C5  non d ame     -11.316  12.180  63.677  0.00  0.00     0.273 C 
ATOM     17  O2  non d ame     -12.414  11.989  63.286  0.00  0.00    -0.266 OA
ATOM     18  H5  non d ame     -10.052  13.602  64.703  0.00  0.00     0.163 HD
BRANCH  16  19
ATOM     19  C4  non d ame     -10.232  11.110  63.468  0.00  0.00     0.154 A 
ATOM     20  C1  non d ame      -9.836  10.089  64.388  0.00  0.00    -0.017 A 
ATOM     21  C2  non d ame      -8.814   9.376  63.722  0.00  0.00     0.077 A 
ATOM     22  H1  non d ame     -10.230   9.894  65.386  0.00  0.00     0.091 H 
ATOM     23  O1  non d ame      -8.652   9.930  62.556  0.00  0.00    -0.218 OA
ATOM     24  N1  non d ame      -9.468  10.944  62.385  0.00  0.00    -0.123 NA
BRANCH  21  25
ATOM     25  C3  non d ame      -8.047   8.179  64.269  0.00  0.00    -0.029 C 
ATOM     26  H2  non d ame      -7.945   7.425  63.488  0.00  0.00     0.036 H 
ATOM     27  H3  non d ame      -7.059   8.499  64.596  0.00  0.00     0.036 H 
ATOM     28  H4  non d ame      -8.590   7.755  65.115  0.00  0.00     0.036 H 
ENDBRANCH  21  25
ENDBRANCH  16  19
ENDBRANCH  13  15
BRANCH  13  29
ATOM     29  C8  non d ame     -12.826  14.121  65.789  0.00  0.00    -0.049 C 
ATOM     30  H7  non d ame     -13.821  14.558  65.696  0.00  0.00     0.030 H 
ATOM     31  H8  non d ame     -12.912  13.041  65.902  0.00  0.00     0.030 H 
ATOM     32  H9  non d ame     -12.327  14.539  66.663  0.00  0.00     0.030 H 
ENDBRANCH  13  29
ENDBRANCH  10  13
ENDBRANCH   7   9
BRANCH   7  33
ATOM     33  C11 non d ame     -10.631  18.218  67.162  0.00  0.00    -0.033 C 
ATOM     34  H12 non d ame     -11.701  18.056  67.048  0.00  0.00     0.042 H 
BRANCH  33  35
ATOM     35  C12 non d ame     -10.223  17.690  68.573  0.00  0.00    -0.071 C 
ATOM     36  H13 non d ame      -9.295  18.168  68.887  0.00  0.00     0.028 H 
ATOM     37  H14 non d ame     -11.011  17.922  69.289  0.00  0.00     0.028 H 
ATOM     38  H15 non d ame     -10.078  16.611  68.528  0.00  0.00     0.028 H 
ENDBRANCH  33  35
BRANCH  33  39
ATOM     39  C13 non d ame     -10.358  19.752  67.032  0.00  0.00    -0.071 C 
ATOM     40  H16 non d ame     -10.696  20.258  67.935  0.00  0.00     0.028 H 
ATOM     41  H17 non d ame      -9.288  19.921  66.900  0.00  0.00     0.028 H 
ATOM     42  H18 non d ame     -10.896  20.145  66.171  0.00  0.00     0.028 H 
ENDBRANCH  33  39
ENDBRANCH   7  33
ENDBRANCH   4   7
ENDBRANCH   1   3
BRANCH   1  43
ATOM     43  C15 non d ame      -6.380  14.399  67.762  0.00  0.00     0.240 C 
ATOM     44  O5  non d ame      -5.311  13.974  67.467  0.00  0.00    -0.271 OA
ATOM     45  N6  non d ame      -7.446  13.466  68.229  0.00  0.00    -0.355 N 
ATOM     46  H46 non d ame      -8.357  13.816  68.486  0.00  0.00     0.162 HD
BRANCH  45  47
ATOM     47  C20 non d ame      -7.165  12.017  68.312  0.00  0.00     0.013 C 
ATOM     48  H30 non d ame      -6.441  11.769  67.536  0.00  0.00     0.072 H 
BRANCH  47  49
ATOM     49  C21 non d ame      -8.445  11.245  68.088  0.00  0.00    -0.038 C 
ATOM     50  H31 non d ame      -8.220  10.520  67.306  0.00  0.00     0.036 H 
ATOM     51  H32 non d ame      -8.760  10.903  69.075  0.00  0.00     0.036 H 
BRANCH  49  52
ATOM     52  C22 non d ame      -9.590  12.129  67.547  0.00  0.00     0.018 C 
ATOM     53  H33 non d ame      -9.431  13.117  67.980  0.00  0.00     0.048 H 
ATOM     54  H34 non d ame      -9.577  11.999  66.465  0.00  0.00     0.048 H 
BRANCH  52  55
ATOM     55  C23 non d ame     -11.003  11.680  68.015  0.00  0.00     0.259 C 
ATOM     56  O7  non d ame     -11.602  10.849  67.414  0.00  0.00    -0.265 OA
BRANCH  55  57
ATOM     57  O8  non d ame     -11.580  12.285  69.166  0.00  0.00    -0.317 OA
BRANCH  57  58
ATOM     58  C29 non d ame     -11.353  13.695  69.257  0.00  0.00     0.052 C 
ATOM     59  H47 non d ame     -10.271  13.817  69.297  0.00  0.00     0.082 H 
ATOM     60  H48 non d ame     -11.922  14.139  68.441  0.00  0.00     0.082 H 
BRANCH  58  61
ATOM     61  C35 non d ame     -11.954  14.191  70.600  0.00  0.00    -0.034 A 
ATOM     62  C30 non d ame     -12.869  13.401  71.288  0.00  0.00    -0.075 A 
ATOM     63  C31 non d ame     -13.408  13.846  72.494  0.00  0.00    -0.082 A 
ATOM     64  H49 non d ame     -13.162  12.432  70.883  0.00  0.00     0.084 H 
ATOM     65  C32 non d ame     -13.032  15.089  73.009  0.00  0.00    -0.083 A 
ATOM     66  H50 non d ame     -14.122  13.223  73.032  0.00  0.00     0.083 H 
ATOM     67  C33 non d ame     -12.121  15.877  72.317  0.00  0.00    -0.082 A 
ATOM     68  H51 non d ame     -13.448  15.445  73.952  0.00  0.00     0.083 H 
ATOM     69  C34 non d ame     -11.578  15.433  71.113  0.00  0.00    -0.075 A 
ATOM     70  H52 non d ame     -11.831  16.847  72.722  0.00  0.00     0.083 H 
ATOM     71  H53 non d ame     -10.862  16.057  70.576  0.00  0.00     0.084 H 
ENDBRANCH  58  61
ENDBRANCH  57  58
ENDBRANCH  55  57
ENDBRANCH  52  55
ENDBRANCH  49  52
ENDBRANCH  47  49
BRANCH  47  72
ATOM     72  C24 non d ame      -6.600  11.680  69.691  0.00  0.00    -0.039 C 
ATOM     73  H35 non d ame      -6.460  12.639  70.189  0.00  0.00     0.036 H 
ATOM     74  H36 non d ame      -7.285  10.943  70.113  0.00  0.00     0.036 H 
BRANCH  72  75
ATOM     75  C25 non d ame      -5.161  10.984  69.589  0.00  0.00    -0.001 C 
ATOM     76  C26 non d ame      -5.324   9.437  69.057  0.00  0.00    -0.035 C 
ATOM     77  C27 non d ame      -4.657   8.613  69.901  0.00  0.00     0.085 C 
ATOM     78  H38 non d ame      -6.360   9.115  69.153  0.00  0.00     0.036 H 
ATOM     79  H39 non d ame      -4.799   9.310  68.110  0.00  0.00     0.036 H 
ATOM     80  N5  non d ame      -4.331   9.418  71.137  0.00  0.00    -0.049 N 
ATOM     81  H40 non d ame      -5.367   7.829  70.165  0.00  0.00     0.075 H 
ATOM     82  H41 non d ame      -3.730   8.359  69.388  0.00  0.00     0.075 H 
ATOM     83  C28 non d ame      -4.569  10.963  70.736  0.00  0.00     0.193 C 
ATOM     84  H42 non d ame      -5.012   9.158  71.835  0.00  0.00     0.280 HD
ATOM     85  H43 non d ame      -3.347   9.280  71.316  0.00  0.00     0.280 HD
ATOM     86  H44 non d ame      -3.723  11.620  70.535  0.00  0.00     0.129 H 
ATOM     87  H37 non d ame      -4.435  11.613  69.073  0.00  0.00     0.046 H 
BRANCH  83  88
ATOM     88  O6  non d ame      -5.332  11.623  71.748  0.00  0.00    -0.369 OA
ATOM     89  H45 non d ame      -5.850  10.975  72.232  0.00  0.00     0.212 HD
ENDBRANCH  83  88
ENDBRANCH  72  75
ENDBRANCH  47  72
ENDBRANCH  45  47
ENDBRANCH   1  43
BRANCH   1  90
ATOM     90  C16 non d ame      -6.394  16.578  69.016  0.00  0.00    -0.035 C 
ATOM     91  H21 non d ame      -7.380  16.755  69.450  0.00  0.00     0.037 H 
ATOM     92  H22 non d ame      -5.688  15.920  69.522  0.00  0.00     0.037 H 
BRANCH  90  93
ATOM     93  C17 non d ame      -5.701  17.973  68.913  0.00  0.00    -0.059 C 
ATOM     94  H23 non d ame      -5.300  18.069  67.904  0.00  0.00     0.038 H 
BRANCH  93  95
ATOM     95  C18 non d ame      -6.704  19.149  69.140  0.00  0.00    -0.073 C 
ATOM     96  H24 non d ame      -6.411  20.000  68.525  0.00  0.00     0.028 H 
ATOM     97  H25 non d ame      -7.708  18.828  68.862  0.00  0.00     0.028 H 
ATOM     98  H26 non d ame      -6.693  19.438  70.191  0.00  0.00     0.028 H 
ENDBRANCH  93  95
BRANCH  93  99
ATOM     99  C19 non d ame      -4.519  18.071  69.882  0.00  0.00    -0.073 C 
ATOM    100  H27 non d ame      -3.750  18.714  69.453  0.00  0.00     0.028 H 
ATOM    101  H28 non d ame      -4.861  18.492  70.828  0.00  0.00     0.028 H 
ATOM    102  H29 non d ame      -4.108  17.077  70.055  0.00  0.00     0.028 H 
ENDBRANCH  93  99
ENDBRANCH  90  93
ENDBRANCH   1  90
TORSDOF 26
ENDMDL
MODEL 4
REMARK VINA RESULT:      -6.6      3.250      6.695
REMARK  26 active torsions:
REMARK  status: ('A' for Active; 'I' for Inactive)
REMARK    1  A    between atoms: C2_2  and  C3_3 
REMARK    2  A    between atoms: C4_6  and  C5_7 
REMARK       I    between atoms: C5_7  and  N2_9 
REMARK    3  A    between atoms: N2_9  and  C6_10 
REMARK    4  A    between atoms: C6_10  and  C7_11 
REMARK    5  A    between atoms: C6_10  and  C8_13 
REMARK       I    between atoms: C7_11  and  N3_14 
REMARK    6  A    between atoms: N3_14  and  C9_15 
REMARK    7  A    between atoms: C9_15  and  C10_16 
REMARK    8  A    between atoms: C9_15  and  C11_18 
REMARK       I    between atoms: C10_16  and  N4_21 
REMARK    9  A    between atoms: C11_18  and  C12_19 
REMARK   10  A    between atoms: C11_18  and  C13_20 
REMARK   11  A    between atoms: N4_21  and  C14_22 
REMARK   12  A    between atoms: C14_22  and  C15_23 
REMARK   13  A    between atoms: C14_22  and  C16_25 
REMARK       I    between atoms: C15_23  and  N6_40 
REMARK   14  A    between atoms: C16_25  and  C17_26 
REMARK   15  A    between atoms: C17_26  and  C18_27 
REMARK   16  A    between atoms: C17_26  and  C19_28 
REMARK   17  A    between atoms: C20_29  and  C21_30 
REMARK   18  A    between atoms: C20_29  and  C24_33 
REMARK   19  A    between atoms: C20_29  and  N6_40 
REMARK   20  A    between atoms: C21_30  and  C22_31 
REMARK   21  A    between atoms: C22_31  and  C23_32 
REMARK   22  A    between atoms: C23_32  and  O8_43 
REMARK   23  A    between atoms: C24_33  and  C25_34 
REMARK   24  A    between atoms: C28_38  and  O6_39 
REMARK   25  A    between atoms: C29_42  and  O8_43 
REMARK   26  A    between atoms: C29_42  and  C35_49 
ROOT
ATOM      1  C14 non d ame     -10.051  10.494  68.542  0.00  0.00     0.089 C 
ATOM      2  H20 non d ame      -9.232  10.495  69.262  0.00  0.00     0.087 H 
ENDROOT
BRANCH   1   3
ATOM      3  N4  non d ame     -10.687   9.187  68.604  0.00  0.00    -0.346 N 
ATOM      4  C10 non d ame     -10.029   8.053  69.351  0.00  0.00     0.241 C 
ATOM      5  O4  non d ame      -8.985   8.218  69.893  0.00  0.00    -0.271 OA
ATOM      6  H19 non d ame     -11.573   9.066  68.134  0.00  0.00     0.163 HD
BRANCH   4   7
ATOM      7  C9  non d ame     -10.703   6.708  69.409  0.00  0.00     0.092 C 
ATOM      8  H11 non d ame     -11.742   6.814  69.097  0.00  0.00     0.088 H 
BRANCH   7   9
ATOM      9  N3  non d ame     -10.057   5.796  68.459  0.00  0.00    -0.346 N 
ATOM     10  C7  non d ame     -10.367   5.881  67.054  0.00  0.00     0.240 C 
ATOM     11  O3  non d ame     -11.135   6.676  66.668  0.00  0.00    -0.271 OA
ATOM     12  H10 non d ame      -9.393   5.104  68.777  0.00  0.00     0.163 HD
BRANCH  10  13
ATOM     13  C6  non d ame      -9.679   4.905  66.049  0.00  0.00     0.086 C 
ATOM     14  H6  non d ame     -10.288   4.710  65.167  0.00  0.00     0.086 H 
BRANCH  13  15
ATOM     15  N2  non d ame      -8.444   5.509  65.577  0.00  0.00    -0.343 N 
ATOM     16  C5  non d ame      -8.140   5.506  64.145  0.00  0.00     0.273 C 
ATOM     17  O2  non d ame      -8.894   5.012  63.381  0.00  0.00    -0.266 OA
ATOM     18  H5  non d ame      -7.803   5.926  66.238  0.00  0.00     0.163 HD
BRANCH  16  19
ATOM     19  C4  non d ame      -6.838   6.142  63.632  0.00  0.00     0.154 A 
ATOM     20  C1  non d ame      -6.551   7.538  63.501  0.00  0.00    -0.017 A 
ATOM     21  C2  non d ame      -5.234   7.591  62.992  0.00  0.00     0.077 A 
ATOM     22  H1  non d ame      -7.198   8.382  63.740  0.00  0.00     0.091 H 
ATOM     23  O1  non d ame      -4.822   6.365  62.853  0.00  0.00    -0.218 OA
ATOM     24  N1  non d ame      -5.741   5.501  63.220  0.00  0.00    -0.123 NA
BRANCH  21  25
ATOM     25  C3  non d ame      -4.444   8.852  62.669  0.00  0.00    -0.029 C 
ATOM     26  H2  non d ame      -4.316   9.444  63.575  0.00  0.00     0.036 H 
ATOM     27  H3  non d ame      -3.466   8.577  62.274  0.00  0.00     0.036 H 
ATOM     28  H4  non d ame      -4.984   9.439  61.925  0.00  0.00     0.036 H 
ENDBRANCH  21  25
ENDBRANCH  16  19
ENDBRANCH  13  15
BRANCH  13  29
ATOM     29  C8  non d ame      -9.384   3.596  66.737  0.00  0.00    -0.049 C 
ATOM     30  H7  non d ame      -9.841   3.595  67.727  0.00  0.00     0.030 H 
ATOM     31  H8  non d ame      -9.791   2.775  66.148  0.00  0.00     0.030 H 
ATOM     32  H9  non d ame      -8.305   3.473  66.836  0.00  0.00     0.030 H 
ENDBRANCH  13  29
ENDBRANCH  10  13
ENDBRANCH   7   9
BRANCH   7  33
ATOM     33  C11 non d ame     -10.579   6.128  70.848  0.00  0.00    -0.033 C 
ATOM     34  H12 non d ame      -9.808   6.696  71.367  0.00  0.00     0.042 H 
BRANCH  33  35
ATOM     35  C12 non d ame     -11.909   6.302  71.647  0.00  0.00    -0.071 C 
ATOM     36  H13 non d ame     -12.019   5.479  72.353  0.00  0.00     0.028 H 
ATOM     37  H14 non d ame     -11.885   7.246  72.190  0.00  0.00     0.028 H 
ATOM     38  H15 non d ame     -12.750   6.301  70.955  0.00  0.00     0.028 H 
ENDBRANCH  33  35
BRANCH  33  39
ATOM     39  C13 non d ame     -10.134   4.630  70.811  0.00  0.00    -0.071 C 
ATOM     40  H16 non d ame     -10.881   4.017  71.312  0.00  0.00     0.028 H 
ATOM     41  H17 non d ame     -10.034   4.307  69.774  0.00  0.00     0.028 H 
ATOM     42  H18 non d ame      -9.175   4.523  71.318  0.00  0.00     0.028 H 
ENDBRANCH  33  39
ENDBRANCH   7  33
ENDBRANCH   4   7
ENDBRANCH   1   3
BRANCH   1  43
ATOM     43  C15 non d ame     -11.118  11.578  68.865  0.00  0.00     0.240 C 
ATOM     44  O5  non d ame     -12.271  11.337  68.712  0.00  0.00    -0.271 OA
ATOM     45  N6  non d ame     -10.702  12.917  69.375  0.00  0.00    -0.355 N 
ATOM     46  H46 non d ame      -9.725  13.131  69.513  0.00  0.00     0.162 HD
BRANCH  45  47
ATOM     47  C20 non d ame     -11.728  13.937  69.678  0.00  0.00     0.013 C 
ATOM     48  H30 non d ame     -12.693  13.433  69.742  0.00  0.00     0.072 H 
BRANCH  47  49
ATOM     49  C21 non d ame     -11.756  14.964  68.569  0.00  0.00    -0.038 C 
ATOM     50  H31 non d ame     -11.834  14.396  67.643  0.00  0.00     0.036 H 
ATOM     51  H32 non d ame     -12.539  15.672  68.842  0.00  0.00     0.036 H 
BRANCH  49  52
ATOM     52  C22 non d ame     -10.446  15.777  68.473  0.00  0.00     0.018 C 
ATOM     53  H33 non d ame     -10.291  16.206  69.463  0.00  0.00     0.048 H 
ATOM     54  H34 non d ame      -9.706  15.096  68.053  0.00  0.00     0.048 H 
BRANCH  52  55
ATOM     55  C23 non d ame     -10.526  16.981  67.493  0.00  0.00     0.259 C 
ATOM     56  O7  non d ame     -10.945  18.030  67.861  0.00  0.00    -0.265 OA
BRANCH  55  57
ATOM     57  O8  non d ame     -10.106  16.811  66.145  0.00  0.00    -0.317 OA
BRANCH  57  58
ATOM     58  C29 non d ame      -9.393  15.593  65.907  0.00  0.00     0.052 C 
ATOM     59  H47 non d ame      -8.559  15.861  65.260  0.00  0.00     0.082 H 
ATOM     60  H48 non d ame      -9.204  15.165  66.891  0.00  0.00     0.082 H 
BRANCH  58  61
ATOM     61  C35 non d ame     -10.332  14.634  65.128  0.00  0.00    -0.034 A 
ATOM     62  C30 non d ame      -9.880  13.376  64.741  0.00  0.00    -0.075 A 
ATOM     63  C31 non d ame     -10.723  12.515  64.041  0.00  0.00    -0.082 A 
ATOM     64  H49 non d ame      -8.864  13.065  64.988  0.00  0.00     0.084 H 
ATOM     65  C32 non d ame     -12.023  12.917  63.724  0.00  0.00    -0.083 A 
ATOM     66  H50 non d ame     -10.366  11.529  63.743  0.00  0.00     0.083 H 
ATOM     67  C33 non d ame     -12.470  14.175  64.108  0.00  0.00    -0.082 A 
ATOM     68  H51 non d ame     -12.690  12.249  63.178  0.00  0.00     0.083 H 
ATOM     69  C34 non d ame     -11.630  15.037  64.810  0.00  0.00    -0.075 A 
ATOM     70  H52 non d ame     -13.484  14.485  63.857  0.00  0.00     0.083 H 
ATOM     71  H53 non d ame     -11.989  16.023  65.110  0.00  0.00     0.084 H 
ENDBRANCH  58  61
ENDBRANCH  57  58
ENDBRANCH  55  57
ENDBRANCH  52  55
ENDBRANCH  49  52
ENDBRANCH  47  49
BRANCH  47  72
ATOM     72  C24 non d ame     -11.398  14.623  71.001  0.00  0.00    -0.039 C 
ATOM     73  H35 non d ame     -10.522  14.101  71.388  0.00  0.00     0.036 H 
ATOM     74  H36 non d ame     -11.340  15.687  70.770  0.00  0.00     0.036 H 
BRANCH  72  75
ATOM     75  C25 non d ame     -12.572  14.437  72.076  0.00  0.00    -0.001 C 
ATOM     76  C26 non d ame     -13.962  14.000  71.315  0.00  0.00    -0.035 C 
ATOM     77  C27 non d ame     -14.958  14.826  71.718  0.00  0.00     0.085 C 
ATOM     78  H38 non d ame     -13.883  14.198  70.247  0.00  0.00     0.036 H 
ATOM     79  H39 non d ame     -14.288  13.020  71.664  0.00  0.00     0.036 H 
ATOM     80  N5  non d ame     -14.306  15.987  72.430  0.00  0.00    -0.049 N 
ATOM     81  H40 non d ame     -15.425  15.188  70.801  0.00  0.00     0.075 H 
ATOM     82  H41 non d ame     -15.540  14.251  72.436  0.00  0.00     0.075 H 
ATOM     83  C28 non d ame     -12.787  15.530  72.729  0.00  0.00     0.193 C 
ATOM     84  H42 non d ame     -14.289  16.752  71.772  0.00  0.00     0.280 HD
ATOM     85  H43 non d ame     -14.790  16.090  73.311  0.00  0.00     0.280 HD
ATOM     86  H44 non d ame     -12.487  15.225  73.731  0.00  0.00     0.129 H 
ATOM     87  H37 non d ame     -12.260  13.830  72.926  0.00  0.00     0.046 H 
BRANCH  83  88
ATOM     88  O6  non d ame     -11.878  16.567  72.357  0.00  0.00    -0.369 OA
ATOM     89  H45 non d ame     -12.213  17.412  72.665  0.00  0.00     0.212 HD
ENDBRANCH  83  88
ENDBRANCH  72  75
ENDBRANCH  47  72
ENDBRANCH  45  47
ENDBRANCH   1  43
BRANCH   1  90
ATOM     90  C16 non d ame      -9.505  10.714  67.141  0.00  0.00    -0.035 C 
ATOM     91  H21 non d ame     -10.361  11.034  66.545  0.00  0.00     0.037 H 
ATOM     92  H22 non d ame      -8.650  11.378  67.265  0.00  0.00     0.037 H 
BRANCH  90  93
ATOM     93  C17 non d ame      -8.961   9.414  66.468  0.00  0.00    -0.059 C 
ATOM     94  H23 non d ame      -9.385   8.564  67.001  0.00  0.00     0.038 H 
BRANCH  93  95
ATOM     95  C18 non d ame      -9.392   9.300  64.971  0.00  0.00    -0.073 C 
ATOM     96  H24 non d ame     -10.476   9.380  64.898  0.00  0.00     0.028 H 
ATOM     97  H25 non d ame      -8.929  10.104  64.398  0.00  0.00     0.028 H 
ATOM     98  H26 non d ame      -9.070   8.338  64.573  0.00  0.00     0.028 H 
ENDBRANCH  93  95
BRANCH  93  99
ATOM     99  C19 non d ame      -7.439   9.323  66.605  0.00  0.00    -0.073 C 
ATOM    100  H27 non d ame      -7.152   8.285  66.781  0.00  0.00     0.028 H 
ATOM    101  H28 non d ame      -6.970   9.680  65.688  0.00  0.00     0.028 H 
ATOM    102  H29 non d ame      -7.111   9.938  67.443  0.00  0.00     0.028 H 
ENDBRANCH  93  99
ENDBRANCH  90  93
ENDBRANCH   1  90
TORSDOF 26
ENDMDL
MODEL 5
REMARK VINA RESULT:      -6.5      3.395      9.160
REMARK  26 active torsions:
REMARK  status: ('A' for Active; 'I' for Inactive)
REMARK    1  A    between atoms: C2_2  and  C3_3 
REMARK    2  A    between atoms: C4_6  and  C5_7 
REMARK       I    between atoms: C5_7  and  N2_9 
REMARK    3  A    between atoms: N2_9  and  C6_10 
REMARK    4  A    between atoms: C6_10  and  C7_11 
REMARK    5  A    between atoms: C6_10  and  C8_13 
REMARK       I    between atoms: C7_11  and  N3_14 
REMARK    6  A    between atoms: N3_14  and  C9_15 
REMARK    7  A    between atoms: C9_15  and  C10_16 
REMARK    8  A    between atoms: C9_15  and  C11_18 
REMARK       I    between atoms: C10_16  and  N4_21 
REMARK    9  A    between atoms: C11_18  and  C12_19 
REMARK   10  A    between atoms: C11_18  and  C13_20 
REMARK   11  A    between atoms: N4_21  and  C14_22 
REMARK   12  A    between atoms: C14_22  and  C15_23 
REMARK   13  A    between atoms: C14_22  and  C16_25 
REMARK       I    between atoms: C15_23  and  N6_40 
REMARK   14  A    between atoms: C16_25  and  C17_26 
REMARK   15  A    between atoms: C17_26  and  C18_27 
REMARK   16  A    between atoms: C17_26  and  C19_28 
REMARK   17  A    between atoms: C20_29  and  C21_30 
REMARK   18  A    between atoms: C20_29  and  C24_33 
REMARK   19  A    between atoms: C20_29  and  N6_40 
REMARK   20  A    between atoms: C21_30  and  C22_31 
REMARK   21  A    between atoms: C22_31  and  C23_32 
REMARK   22  A    between atoms: C23_32  and  O8_43 
REMARK   23  A    between atoms: C24_33  and  C25_34 
REMARK   24  A    between atoms: C28_38  and  O6_39 
REMARK   25  A    between atoms: C29_42  and  O8_43 
REMARK   26  A    between atoms: C29_42  and  C35_49 
ROOT
ATOM      1  C14 non d ame      -8.017   8.260  63.524  0.00  0.00     0.089 C 
ATOM      2  H20 non d ame      -8.178   8.519  62.476  0.00  0.00     0.087 H 
ENDROOT
BRANCH   1   3
ATOM      3  N4  non d ame      -8.882   9.113  64.324  0.00  0.00    -0.346 N 
ATOM      4  C10 non d ame      -9.433  10.394  63.748  0.00  0.00     0.241 C 
ATOM      5  O4  non d ame      -9.162  10.719  62.639  0.00  0.00    -0.271 OA
ATOM      6  H19 non d ame      -9.099   8.821  65.267  0.00  0.00     0.163 HD
BRANCH   4   7
ATOM      7  C9  non d ame     -10.332  11.263  64.588  0.00  0.00     0.092 C 
ATOM      8  H11 non d ame     -10.996  10.629  65.176  0.00  0.00     0.088 H 
BRANCH   7   9
ATOM      9  N3  non d ame      -9.520  12.034  65.536  0.00  0.00    -0.346 N 
ATOM     10  C7  non d ame      -9.266  11.514  66.856  0.00  0.00     0.240 C 
ATOM     11  O3  non d ame      -9.707  10.477  67.175  0.00  0.00    -0.271 OA
ATOM     12  H10 non d ame      -9.134  12.930  65.276  0.00  0.00     0.163 HD
BRANCH  10  13
ATOM     13  C6  non d ame      -8.404  12.341  67.861  0.00  0.00     0.086 C 
ATOM     14  H6  non d ame      -7.870  13.162  67.383  0.00  0.00     0.086 H 
BRANCH  13  15
ATOM     15  N2  non d ame      -9.282  12.938  68.854  0.00  0.00    -0.343 N 
ATOM     16  C5  non d ame     -10.124  14.077  68.482  0.00  0.00     0.273 C 
ATOM     17  O2  non d ame     -10.085  14.507  67.383  0.00  0.00    -0.266 OA
ATOM     18  H5  non d ame      -9.307  12.565  69.793  0.00  0.00     0.163 HD
BRANCH  16  19
ATOM     19  C4  non d ame     -11.057  14.717  69.522  0.00  0.00     0.154 A 
ATOM     20  C1  non d ame     -12.376  14.291  69.879  0.00  0.00    -0.017 A 
ATOM     21  C2  non d ame     -12.796  15.204  70.871  0.00  0.00     0.077 A 
ATOM     22  H1  non d ame     -12.941  13.448  69.480  0.00  0.00     0.091 H 
ATOM     23  O1  non d ame     -11.825  16.049  71.057  0.00  0.00    -0.218 OA
ATOM     24  N1  non d ame     -10.799  15.786  70.281  0.00  0.00    -0.123 NA
BRANCH  21  25
ATOM     25  C3  non d ame     -14.138  15.197  71.591  0.00  0.00    -0.029 C 
ATOM     26  H2  non d ame     -14.662  16.133  71.394  0.00  0.00     0.036 H 
ATOM     27  H3  non d ame     -14.739  14.362  71.233  0.00  0.00     0.036 H 
ATOM     28  H4  non d ame     -13.974  15.092  72.665  0.00  0.00     0.036 H 
ENDBRANCH  21  25
ENDBRANCH  16  19
ENDBRANCH  13  15
BRANCH  13  29
ATOM     29  C8  non d ame      -7.404  11.435  68.534  0.00  0.00    -0.049 C 
ATOM     30  H7  non d ame      -7.905  10.525  68.867  0.00  0.00     0.030 H 
ATOM     31  H8  non d ame      -6.614  11.178  67.830  0.00  0.00     0.030 H 
ATOM     32  H9  non d ame      -6.973  11.947  69.395  0.00  0.00     0.030 H 
ENDBRANCH  13  29
ENDBRANCH  10  13
ENDBRANCH   7   9
BRANCH   7  33
ATOM     33  C11 non d ame     -11.117  12.241  63.667  0.00  0.00    -0.033 C 
ATOM     34  H12 non d ame     -10.577  12.310  62.724  0.00  0.00     0.042 H 
BRANCH  33  35
ATOM     35  C12 non d ame     -12.546  11.699  63.350  0.00  0.00    -0.071 C 
ATOM     36  H13 non d ame     -13.291  12.426  63.676  0.00  0.00     0.028 H 
ATOM     37  H14 non d ame     -12.644  11.535  62.278  0.00  0.00     0.028 H 
ATOM     38  H15 non d ame     -12.702  10.759  63.878  0.00  0.00     0.028 H 
ENDBRANCH  33  35
BRANCH  33  39
ATOM     39  C13 non d ame     -11.180  13.671  64.293  0.00  0.00    -0.071 C 
ATOM     40  H16 non d ame     -11.918  13.684  65.095  0.00  0.00     0.028 H 
ATOM     41  H17 non d ame     -10.201  13.935  64.695  0.00  0.00     0.028 H 
ATOM     42  H18 non d ame     -11.464  14.392  63.527  0.00  0.00     0.028 H 
ENDBRANCH  33  39
ENDBRANCH   7  33
ENDBRANCH   4   7
ENDBRANCH   1   3
BRANCH   1  43
ATOM     43  C15 non d ame      -8.372   6.776  63.823  0.00  0.00     0.240 C 
ATOM     44  O5  non d ame      -8.269   5.959  62.967  0.00  0.00    -0.271 OA
ATOM     45  N6  non d ame      -8.831   6.371  65.183  0.00  0.00    -0.355 N 
ATOM     46  H46 non d ame      -8.918   7.056  65.919  0.00  0.00     0.162 HD
BRANCH  45  47
ATOM     47  C20 non d ame      -9.164   4.956  65.452  0.00  0.00     0.013 C 
ATOM     48  H30 non d ame      -9.321   4.459  64.494  0.00  0.00     0.072 H 
BRANCH  47  49
ATOM     49  C21 non d ame     -10.427   4.888  66.281  0.00  0.00    -0.038 C 
ATOM     50  H31 non d ame     -11.239   4.745  65.568  0.00  0.00     0.036 H 
ATOM     51  H32 non d ame     -10.236   4.137  67.048  0.00  0.00     0.036 H 
BRANCH  49  52
ATOM     52  C22 non d ame     -10.726   6.207  67.026  0.00  0.00     0.018 C 
ATOM     53  H33 non d ame      -9.982   6.921  66.673  0.00  0.00     0.048 H 
ATOM     54  H34 non d ame     -11.786   6.402  66.866  0.00  0.00     0.048 H 
BRANCH  52  55
ATOM     55  C23 non d ame     -10.534   6.114  68.565  0.00  0.00     0.259 C 
ATOM     56  O7  non d ame      -9.469   5.858  69.026  0.00  0.00    -0.265 OA
BRANCH  55  57
ATOM     57  O8  non d ame     -11.651   6.325  69.421  0.00  0.00    -0.317 OA
BRANCH  57  58
ATOM     58  C29 non d ame     -11.300   6.757  70.739  0.00  0.00     0.052 C 
ATOM     59  H47 non d ame     -11.871   6.124  71.418  0.00  0.00     0.082 H 
ATOM     60  H48 non d ame     -10.211   6.748  70.772  0.00  0.00     0.082 H 
BRANCH  58  61
ATOM     61  C35 non d ame     -11.784   8.221  70.908  0.00  0.00    -0.034 A 
ATOM     62  C30 non d ame     -11.153   9.249  70.214  0.00  0.00    -0.075 A 
ATOM     63  C31 non d ame     -11.588  10.564  70.365  0.00  0.00    -0.082 A 
ATOM     64  H49 non d ame     -10.318   9.023  69.550  0.00  0.00     0.084 H 
ATOM     65  C32 non d ame     -12.657  10.852  71.218  0.00  0.00    -0.083 A 
ATOM     66  H50 non d ame     -11.094  11.366  69.817  0.00  0.00     0.083 H 
ATOM     67  C33 non d ame     -13.282   9.824  71.912  0.00  0.00    -0.082 A 
ATOM     68  H51 non d ame     -13.004  11.878  71.342  0.00  0.00     0.083 H 
ATOM     69  C34 non d ame     -12.851   8.507  71.761  0.00  0.00    -0.075 A 
ATOM     70  H52 non d ame     -14.114  10.052  72.578  0.00  0.00     0.083 H 
ATOM     71  H53 non d ame     -13.348   7.705  72.309  0.00  0.00     0.084 H 
ENDBRANCH  58  61
ENDBRANCH  57  58
ENDBRANCH  55  57
ENDBRANCH  52  55
ENDBRANCH  49  52
ENDBRANCH  47  49
BRANCH  47  72
ATOM     72  C24 non d ame      -8.018   4.292  66.213  0.00  0.00    -0.039 C 
ATOM     73  H35 non d ame      -8.431   4.029  67.187  0.00  0.00     0.036 H 
ATOM     74  H36 non d ame      -7.645   3.510  65.551  0.00  0.00     0.036 H 
BRANCH  72  75
ATOM     75  C25 non d ame      -6.809   5.310  66.471  0.00  0.00    -0.001 C 
ATOM     76  C26 non d ame      -5.599   5.026  65.394  0.00  0.00    -0.035 C 
ATOM     77  C27 non d ame      -4.434   4.891  66.073  0.00  0.00     0.085 C 
ATOM     78  H38 non d ame      -5.735   4.052  64.927  0.00  0.00     0.036 H 
ATOM     79  H39 non d ame      -5.433   5.908  64.777  0.00  0.00     0.036 H 
ATOM     80  N5  non d ame      -4.790   4.731  67.532  0.00  0.00    -0.049 N 
ATOM     81  H40 non d ame      -3.992   3.962  65.711  0.00  0.00     0.075 H 
ATOM     82  H41 non d ame      -3.907   5.835  65.938  0.00  0.00     0.075 H 
ATOM     83  C28 non d ame      -6.334   5.181  67.665  0.00  0.00     0.193 C 
ATOM     84  H42 non d ame      -4.723   3.745  67.736  0.00  0.00     0.280 HD
ATOM     85  H43 non d ame      -4.219   5.392  68.040  0.00  0.00     0.280 HD
ATOM     86  H44 non d ame      -6.595   6.150  68.088  0.00  0.00     0.129 H 
ATOM     87  H37 non d ame      -7.151   6.340  66.572  0.00  0.00     0.046 H 
BRANCH  83  88
ATOM     88  O6  non d ame      -7.063   4.221  68.432  0.00  0.00    -0.369 OA
ATOM     89  H45 non d ame      -6.521   3.920  69.166  0.00  0.00     0.212 HD
ENDBRANCH  83  88
ENDBRANCH  72  75
ENDBRANCH  47  72
ENDBRANCH  45  47
ENDBRANCH   1  43
BRANCH   1  90
ATOM     90  C16 non d ame      -6.569   8.527  63.904  0.00  0.00    -0.035 C 
ATOM     91  H21 non d ame      -6.176   7.565  64.236  0.00  0.00     0.037 H 
ATOM     92  H22 non d ame      -6.131   9.024  63.039  0.00  0.00     0.037 H 
BRANCH  90  93
ATOM     93  C17 non d ame      -6.408   9.508  65.107  0.00  0.00    -0.059 C 
ATOM     94  H23 non d ame      -7.370   9.994  65.269  0.00  0.00     0.038 H 
BRANCH  93  95
ATOM     95  C18 non d ame      -6.022   8.766  66.426  0.00  0.00    -0.073 C 
ATOM     96  H24 non d ame      -5.785   9.497  67.199  0.00  0.00     0.028 H 
ATOM     97  H25 non d ame      -6.859   8.150  66.754  0.00  0.00     0.028 H 
ATOM     98  H26 non d ame      -5.153   8.132  66.246  0.00  0.00     0.028 H 
ENDBRANCH  93  95
BRANCH  93  99
ATOM     99  C19 non d ame      -5.392  10.608  64.784  0.00  0.00    -0.073 C 
ATOM    100  H27 non d ame      -4.511  10.163  64.320  0.00  0.00     0.028 H 
ATOM    101  H28 non d ame      -5.842  11.326  64.098  0.00  0.00     0.028 H 
ATOM    102  H29 non d ame      -5.103  11.117  65.703  0.00  0.00     0.028 H 
ENDBRANCH  93  99
ENDBRANCH  90  93
ENDBRANCH   1  90
TORSDOF 26
ENDMDL
MODEL 6
REMARK VINA RESULT:      -6.4      1.968      4.146
REMARK  26 active torsions:
REMARK  status: ('A' for Active; 'I' for Inactive)
REMARK    1  A    between atoms: C2_2  and  C3_3 
REMARK    2  A    between atoms: C4_6  and  C5_7 
REMARK       I    between atoms: C5_7  and  N2_9 
REMARK    3  A    between atoms: N2_9  and  C6_10 
REMARK    4  A    between atoms: C6_10  and  C7_11 
REMARK    5  A    between atoms: C6_10  and  C8_13 
REMARK       I    between atoms: C7_11  and  N3_14 
REMARK    6  A    between atoms: N3_14  and  C9_15 
REMARK    7  A    between atoms: C9_15  and  C10_16 
REMARK    8  A    between atoms: C9_15  and  C11_18 
REMARK       I    between atoms: C10_16  and  N4_21 
REMARK    9  A    between atoms: C11_18  and  C12_19 
REMARK   10  A    between atoms: C11_18  and  C13_20 
REMARK   11  A    between atoms: N4_21  and  C14_22 
REMARK   12  A    between atoms: C14_22  and  C15_23 
REMARK   13  A    between atoms: C14_22  and  C16_25 
REMARK       I    between atoms: C15_23  and  N6_40 
REMARK   14  A    between atoms: C16_25  and  C17_26 
REMARK   15  A    between atoms: C17_26  and  C18_27 
REMARK   16  A    between atoms: C17_26  and  C19_28 
REMARK   17  A    between atoms: C20_29  and  C21_30 
REMARK   18  A    between atoms: C20_29  and  C24_33 
REMARK   19  A    between atoms: C20_29  and  N6_40 
REMARK   20  A    between atoms: C21_30  and  C22_31 
REMARK   21  A    between atoms: C22_31  and  C23_32 
REMARK   22  A    between atoms: C23_32  and  O8_43 
REMARK   23  A    between atoms: C24_33  and  C25_34 
REMARK   24  A    between atoms: C28_38  and  O6_39 
REMARK   25  A    between atoms: C29_42  and  O8_43 
REMARK   26  A    between atoms: C29_42  and  C35_49 
ROOT
ATOM      1  C14 non d ame     -12.279  14.245  70.260  0.00  0.00     0.089 C 
ATOM      2  H20 non d ame     -13.362  14.235  70.389  0.00  0.00     0.087 H 
ENDROOT
BRANCH   1   3
ATOM      3  N4  non d ame     -11.853  12.873  70.032  0.00  0.00    -0.346 N 
ATOM      4  C10 non d ame     -12.435  11.748  70.852  0.00  0.00     0.241 C 
ATOM      5  O4  non d ame     -13.245  11.974  71.691  0.00  0.00    -0.271 OA
ATOM      6  H19 non d ame     -11.161  12.702  69.316  0.00  0.00     0.163 HD
BRANCH   4   7
ATOM      7  C9  non d ame     -11.986  10.333  70.600  0.00  0.00     0.092 C 
ATOM      8  H11 non d ame     -12.474   9.956  69.701  0.00  0.00     0.088 H 
BRANCH   7   9
ATOM      9  N3  non d ame     -10.542  10.316  70.347  0.00  0.00    -0.346 N 
ATOM     10  C7  non d ame     -10.048  10.277  68.993  0.00  0.00     0.240 C 
ATOM     11  O3  non d ame     -10.797  10.259  68.094  0.00  0.00    -0.271 OA
ATOM     12  H10 non d ame      -9.883  10.330  71.112  0.00  0.00     0.163 HD
BRANCH  10  13
ATOM     13  C6  non d ame      -8.509  10.256  68.731  0.00  0.00     0.086 C 
ATOM     14  H6  non d ame      -7.948   9.800  69.547  0.00  0.00     0.086 H 
BRANCH  13  15
ATOM     15  N2  non d ame      -8.245   9.456  67.547  0.00  0.00    -0.343 N 
ATOM     16  C5  non d ame      -7.812   8.065  67.697  0.00  0.00     0.273 C 
ATOM     17  O2  non d ame      -7.677   7.600  68.775  0.00  0.00    -0.266 OA
ATOM     18  H5  non d ame      -8.360   9.862  66.629  0.00  0.00     0.163 HD
BRANCH  16  19
ATOM     19  C4  non d ame      -7.530   7.208  66.454  0.00  0.00     0.154 A 
ATOM     20  C1  non d ame      -8.389   7.009  65.326  0.00  0.00    -0.017 A 
ATOM     21  C2  non d ame      -7.670   6.147  64.469  0.00  0.00     0.077 A 
ATOM     22  H1  non d ame      -9.381   7.427  65.157  0.00  0.00     0.091 H 
ATOM     23  O1  non d ame      -6.532   5.889  65.044  0.00  0.00    -0.218 OA
ATOM     24  N1  non d ame      -6.427   6.496  66.204  0.00  0.00    -0.123 NA
BRANCH  21  25
ATOM     25  C3  non d ame      -8.140   5.621  63.119  0.00  0.00    -0.029 C 
ATOM     26  H2  non d ame      -7.534   4.761  62.833  0.00  0.00     0.036 H 
ATOM     27  H3  non d ame      -9.185   5.321  63.190  0.00  0.00     0.036 H 
ATOM     28  H4  non d ame      -8.038   6.404  62.367  0.00  0.00     0.036 H 
ENDBRANCH  21  25
ENDBRANCH  16  19
ENDBRANCH  13  15
BRANCH  13  29
ATOM     29  C8  non d ame      -8.012  11.664  68.524  0.00  0.00    -0.049 C 
ATOM     30  H7  non d ame      -6.953  11.716  68.777  0.00  0.00     0.030 H 
ATOM     31  H8  non d ame      -8.152  11.951  67.483  0.00  0.00     0.030 H 
ATOM     32  H9  non d ame      -8.572  12.344  69.167  0.00  0.00     0.030 H 
ENDBRANCH  13  29
ENDBRANCH  10  13
ENDBRANCH   7   9
BRANCH   7  33
ATOM     33  C11 non d ame     -12.302   9.459  71.849  0.00  0.00    -0.033 C 
ATOM     34  H12 non d ame     -12.393  10.127  72.704  0.00  0.00     0.042 H 
BRANCH  33  35
ATOM     35  C12 non d ame     -13.663   8.711  71.690  0.00  0.00    -0.071 C 
ATOM     36  H13 non d ame     -14.357   9.336  71.127  0.00  0.00     0.028 H 
ATOM     37  H14 non d ame     -13.503   7.775  71.156  0.00  0.00     0.028 H 
ATOM     38  H15 non d ame     -14.079   8.503  72.675  0.00  0.00     0.028 H 
ENDBRANCH  33  35
BRANCH  33  39
ATOM     39  C13 non d ame     -11.138   8.457  72.139  0.00  0.00    -0.071 C 
ATOM     40  H16 non d ame     -11.217   7.604  71.467  0.00  0.00     0.028 H 
ATOM     41  H17 non d ame     -10.181   8.957  71.982  0.00  0.00     0.028 H 
ATOM     42  H18 non d ame     -11.203   8.115  73.172  0.00  0.00     0.028 H 
ENDBRANCH  33  39
ENDBRANCH   7  33
ENDBRANCH   4   7
ENDBRANCH   1   3
BRANCH   1  43
ATOM     43  C15 non d ame     -11.840  15.107  69.042  0.00  0.00     0.240 C 
ATOM     44  O5  non d ame     -12.082  16.271  69.023  0.00  0.00    -0.271 OA
ATOM     45  N6  non d ame     -11.108  14.484  67.902  0.00  0.00    -0.355 N 
ATOM     46  H46 non d ame     -10.893  13.497  67.910  0.00  0.00     0.162 HD
BRANCH  45  47
ATOM     47  C20 non d ame     -10.697  15.317  66.752  0.00  0.00     0.013 C 
ATOM     48  H30 non d ame     -11.572  15.867  66.406  0.00  0.00     0.072 H 
BRANCH  47  49
ATOM     49  C21 non d ame     -10.179  14.424  65.648  0.00  0.00    -0.038 C 
ATOM     50  H31 non d ame     -10.795  14.645  64.777  0.00  0.00     0.036 H 
ATOM     51  H32 non d ame      -9.102  14.595  65.611  0.00  0.00     0.036 H 
BRANCH  49  52
ATOM     52  C22 non d ame     -10.372  12.922  65.951  0.00  0.00     0.018 C 
ATOM     53  H33 non d ame      -9.413  12.571  66.332  0.00  0.00     0.048 H 
ATOM     54  H34 non d ame     -11.263  12.859  66.576  0.00  0.00     0.048 H 
BRANCH  52  55
ATOM     55  C23 non d ame     -10.671  12.062  64.691  0.00  0.00     0.259 C 
ATOM     56  O7  non d ame     -11.488  12.413  63.902  0.00  0.00    -0.265 OA
BRANCH  55  57
ATOM     57  O8  non d ame      -9.967  10.842  64.497  0.00  0.00    -0.317 OA
BRANCH  57  58
ATOM     58  C29 non d ame      -9.446  10.675  63.175  0.00  0.00     0.052 C 
ATOM     59  H47 non d ame     -10.073   9.919  62.704  0.00  0.00     0.082 H 
ATOM     60  H48 non d ame      -9.389  11.677  62.752  0.00  0.00     0.082 H 
BRANCH  58  61
ATOM     61  C35 non d ame      -8.005  10.111  63.297  0.00  0.00    -0.034 A 
ATOM     62  C30 non d ame      -7.475   9.325  62.280  0.00  0.00    -0.075 A 
ATOM     63  C31 non d ame      -6.180   8.819  62.390  0.00  0.00    -0.082 A 
ATOM     64  H49 non d ame      -8.073   9.106  61.395  0.00  0.00     0.084 H 
ATOM     65  C32 non d ame      -5.416   9.100  63.526  0.00  0.00    -0.083 A 
ATOM     66  H50 non d ame      -5.767   8.206  61.589  0.00  0.00     0.083 H 
ATOM     67  C33 non d ame      -5.950   9.882  64.541  0.00  0.00    -0.082 A 
ATOM     68  H51 non d ame      -4.403   8.709  63.619  0.00  0.00     0.083 H 
ATOM     69  C34 non d ame      -7.243  10.391  64.433  0.00  0.00    -0.075 A 
ATOM     70  H52 non d ame      -5.352  10.097  65.427  0.00  0.00     0.083 H 
ATOM     71  H53 non d ame      -7.655  11.006  65.235  0.00  0.00     0.084 H 
ENDBRANCH  58  61
ENDBRANCH  57  58
ENDBRANCH  55  57
ENDBRANCH  52  55
ENDBRANCH  49  52
ENDBRANCH  47  49
BRANCH  47  72
ATOM     72  C24 non d ame      -9.597  16.285  67.184  0.00  0.00    -0.039 C 
ATOM     73  H35 non d ame      -9.874  17.248  66.754  0.00  0.00     0.036 H 
ATOM     74  H36 non d ame      -9.521  16.174  68.266  0.00  0.00     0.036 H 
BRANCH  72  75
ATOM     75  C25 non d ame      -8.175  15.882  66.567  0.00  0.00    -0.001 C 
ATOM     76  C26 non d ame      -7.216  15.244  67.740  0.00  0.00    -0.035 C 
ATOM     77  C27 non d ame      -6.023  15.886  67.725  0.00  0.00     0.085 C 
ATOM     78  H38 non d ame      -7.621  15.481  68.724  0.00  0.00     0.036 H 
ATOM     79  H39 non d ame      -6.955  14.216  67.492  0.00  0.00     0.036 H 
ATOM     80  N5  non d ame      -6.197  17.120  66.871  0.00  0.00    -0.049 N 
ATOM     81  H40 non d ame      -5.843  16.191  68.757  0.00  0.00     0.075 H 
ATOM     82  H41 non d ame      -5.333  15.206  67.229  0.00  0.00     0.075 H 
ATOM     83  C28 non d ame      -7.577  16.908  66.060  0.00  0.00     0.193 C 
ATOM     84  H42 non d ame      -6.313  17.894  67.507  0.00  0.00     0.280 HD
ATOM     85  H43 non d ame      -5.433  17.119  66.210  0.00  0.00     0.280 HD
ATOM     86  H44 non d ame      -7.564  16.630  65.007  0.00  0.00     0.129 H 
ATOM     87  H37 non d ame      -8.274  15.312  65.642  0.00  0.00     0.046 H 
BRANCH  83  88
ATOM     88  O6  non d ame      -8.378  18.089  66.133  0.00  0.00    -0.369 OA
ATOM     89  H45 non d ame      -7.807  18.859  66.186  0.00  0.00     0.212 HD
ENDBRANCH  83  88
ENDBRANCH  72  75
ENDBRANCH  47  72
ENDBRANCH  45  47
ENDBRANCH   1  43
BRANCH   1  90
ATOM     90  C16 non d ame     -11.615  14.768  71.523  0.00  0.00    -0.035 C 
ATOM     91  H21 non d ame     -11.290  13.880  72.067  0.00  0.00     0.037 H 
ATOM     92  H22 non d ame     -10.881  15.497  71.182  0.00  0.00     0.037 H 
BRANCH  90  93
ATOM     93  C17 non d ame     -12.590  15.534  72.473  0.00  0.00    -0.059 C 
ATOM     94  H23 non d ame     -12.376  16.599  72.377  0.00  0.00     0.038 H 
BRANCH  93  95
ATOM     95  C18 non d ame     -14.087  15.313  72.085  0.00  0.00    -0.073 C 
ATOM     96  H24 non d ame     -14.143  14.674  71.203  0.00  0.00     0.028 H 
ATOM     97  H25 non d ame     -14.610  14.835  72.913  0.00  0.00     0.028 H 
ATOM     98  H26 non d ame     -14.552  16.275  71.868  0.00  0.00     0.028 H 
ENDBRANCH  93  95
BRANCH  93  99
ATOM     99  C19 non d ame     -12.344  15.151  73.935  0.00  0.00    -0.073 C 
ATOM    100  H27 non d ame     -11.392  15.570  74.264  0.00  0.00     0.028 H 
ATOM    101  H28 non d ame     -13.150  15.547  74.553  0.00  0.00     0.028 H 
ATOM    102  H29 non d ame     -12.316  14.066  74.026  0.00  0.00     0.028 H 
ENDBRANCH  93  99
ENDBRANCH  90  93
ENDBRANCH   1  90
TORSDOF 26
ENDMDL
MODEL 7
REMARK VINA RESULT:      -6.4      3.114      8.230
REMARK  26 active torsions:
REMARK  status: ('A' for Active; 'I' for Inactive)
REMARK    1  A    between atoms: C2_2  and  C3_3 
REMARK    2  A    between atoms: C4_6  and  C5_7 
REMARK       I    between atoms: C5_7  and  N2_9 
REMARK    3  A    between atoms: N2_9  and  C6_10 
REMARK    4  A    between atoms: C6_10  and  C7_11 
REMARK    5  A    between atoms: C6_10  and  C8_13 
REMARK       I    between atoms: C7_11  and  N3_14 
REMARK    6  A    between atoms: N3_14  and  C9_15 
REMARK    7  A    between atoms: C9_15  and  C10_16 
REMARK    8  A    between atoms: C9_15  and  C11_18 
REMARK       I    between atoms: C10_16  and  N4_21 
REMARK    9  A    between atoms: C11_18  and  C12_19 
REMARK   10  A    between atoms: C11_18  and  C13_20 
REMARK   11  A    between atoms: N4_21  and  C14_22 
REMARK   12  A    between atoms: C14_22  and  C15_23 
REMARK   13  A    between atoms: C14_22  and  C16_25 
REMARK       I    between atoms: C15_23  and  N6_40 
REMARK   14  A    between atoms: C16_25  and  C17_26 
REMARK   15  A    between atoms: C17_26  and  C18_27 
REMARK   16  A    between atoms: C17_26  and  C19_28 
REMARK   17  A    between atoms: C20_29  and  C21_30 
REMARK   18  A    between atoms: C20_29  and  C24_33 
REMARK   19  A    between atoms: C20_29  and  N6_40 
REMARK   20  A    between atoms: C21_30  and  C22_31 
REMARK   21  A    between atoms: C22_31  and  C23_32 
REMARK   22  A    between atoms: C23_32  and  O8_43 
REMARK   23  A    between atoms: C24_33  and  C25_34 
REMARK   24  A    between atoms: C28_38  and  O6_39 
REMARK   25  A    between atoms: C29_42  and  O8_43 
REMARK   26  A    between atoms: C29_42  and  C35_49 
ROOT
ATOM      1  C14 non d ame      -8.167   8.945  64.401  0.00  0.00     0.089 C 
ATOM      2  H20 non d ame      -7.294   9.594  64.479  0.00  0.00     0.087 H 
ENDROOT
BRANCH   1   3
ATOM      3  N4  non d ame      -7.811   7.662  64.988  0.00  0.00    -0.346 N 
ATOM      4  C10 non d ame      -6.467   7.471  65.648  0.00  0.00     0.241 C 
ATOM      5  O4  non d ame      -5.688   8.366  65.690  0.00  0.00    -0.271 OA
ATOM      6  H19 non d ame      -8.487   6.912  64.939  0.00  0.00     0.163 HD
BRANCH   4   7
ATOM      7  C9  non d ame      -6.117   6.139  66.255  0.00  0.00     0.092 C 
ATOM      8  H11 non d ame      -5.344   6.280  67.010  0.00  0.00     0.088 H 
BRANCH   7   9
ATOM      9  N3  non d ame      -7.293   5.589  66.939  0.00  0.00    -0.346 N 
ATOM     10  C7  non d ame      -7.293   5.451  68.373  0.00  0.00     0.240 C 
ATOM     11  O3  non d ame      -6.356   5.776  68.995  0.00  0.00    -0.271 OA
ATOM     12  H10 non d ame      -8.109   5.304  66.415  0.00  0.00     0.163 HD
BRANCH  10  13
ATOM     13  C6  non d ame      -8.546   4.863  69.094  0.00  0.00     0.086 C 
ATOM     14  H6  non d ame      -8.297   4.354  70.026  0.00  0.00     0.086 H 
BRANCH  13  15
ATOM     15  N2  non d ame      -9.444   5.952  69.443  0.00  0.00    -0.343 N 
ATOM     16  C5  non d ame      -9.609   6.329  70.849  0.00  0.00     0.273 C 
ATOM     17  O2  non d ame      -9.018   5.748  71.691  0.00  0.00    -0.266 OA
ATOM     18  H5  non d ame      -9.947   6.441  68.717  0.00  0.00     0.163 HD
BRANCH  16  19
ATOM     19  C4  non d ame     -10.554   7.479  71.231  0.00  0.00     0.154 A 
ATOM     20  C1  non d ame     -11.931   7.378  71.608  0.00  0.00    -0.017 A 
ATOM     21  C2  non d ame     -12.337   8.707  71.858  0.00  0.00     0.077 A 
ATOM     22  H1  non d ame     -12.541   6.478  71.688  0.00  0.00     0.091 H 
ATOM     23  O1  non d ame     -11.307   9.473  71.649  0.00  0.00    -0.218 OA
ATOM     24  N1  non d ame     -10.254   8.780  71.282  0.00  0.00    -0.123 NA
BRANCH  21  25
ATOM     25  C3  non d ame     -13.725   9.158  72.294  0.00  0.00    -0.029 C 
ATOM     26  H2  non d ame     -13.644  10.082  72.867  0.00  0.00     0.036 H 
ATOM     27  H3  non d ame     -14.345   9.329  71.415  0.00  0.00     0.036 H 
ATOM     28  H4  non d ame     -14.180   8.385  72.915  0.00  0.00     0.036 H 
ENDBRANCH  21  25
ENDBRANCH  16  19
ENDBRANCH  13  15
BRANCH  13  29
ATOM     29  C8  non d ame      -9.245   3.890  68.180  0.00  0.00    -0.049 C 
ATOM     30  H7  non d ame     -10.214   3.624  68.604  0.00  0.00     0.030 H 
ATOM     31  H8  non d ame      -9.391   4.349  67.202  0.00  0.00     0.030 H 
ATOM     32  H9  non d ame      -8.638   2.991  68.073  0.00  0.00     0.030 H 
ENDBRANCH  13  29
ENDBRANCH  10  13
ENDBRANCH   7   9
BRANCH   7  33
ATOM     33  C11 non d ame      -5.668   5.159  65.132  0.00  0.00    -0.033 C 
ATOM     34  H12 non d ame      -6.457   4.418  65.007  0.00  0.00     0.042 H 
BRANCH  33  35
ATOM     35  C12 non d ame      -5.496   5.898  63.768  0.00  0.00    -0.071 C 
ATOM     36  H13 non d ame      -6.446   6.345  63.475  0.00  0.00     0.028 H 
ATOM     37  H14 non d ame      -4.743   6.679  63.870  0.00  0.00     0.028 H 
ATOM     38  H15 non d ame      -5.181   5.185  63.008  0.00  0.00     0.028 H 
ENDBRANCH  33  35
BRANCH  33  39
ATOM     39  C13 non d ame      -4.359   4.407  65.536  0.00  0.00    -0.071 C 
ATOM     40  H16 non d ame      -4.049   4.727  66.531  0.00  0.00     0.028 H 
ATOM     41  H17 non d ame      -4.544   3.332  65.541  0.00  0.00     0.028 H 
ATOM     42  H18 non d ame      -3.572   4.637  64.819  0.00  0.00     0.028 H 
ENDBRANCH  33  39
ENDBRANCH   7  33
ENDBRANCH   4   7
ENDBRANCH   1   3
BRANCH   1  43
ATOM     43  C15 non d ame      -9.394   9.515  65.166  0.00  0.00     0.240 C 
ATOM     44  O5  non d ame     -10.031   8.806  65.876  0.00  0.00    -0.271 OA
ATOM     45  N6  non d ame      -9.771  10.951  65.021  0.00  0.00    -0.355 N 
ATOM     46  H46 non d ame      -9.236  11.563  64.425  0.00  0.00     0.162 HD
BRANCH  45  47
ATOM     47  C20 non d ame     -10.941  11.478  65.756  0.00  0.00     0.013 C 
ATOM     48  H30 non d ame     -11.623  10.649  65.943  0.00  0.00     0.072 H 
BRANCH  47  49
ATOM     49  C21 non d ame     -11.627  12.531  64.915  0.00  0.00    -0.038 C 
ATOM     50  H31 non d ame     -11.821  12.058  63.953  0.00  0.00     0.036 H 
ATOM     51  H32 non d ame     -12.458  12.896  65.521  0.00  0.00     0.036 H 
BRANCH  49  52
ATOM     52  C22 non d ame     -10.725  13.751  64.630  0.00  0.00     0.018 C 
ATOM     53  H33 non d ame     -10.124  13.891  65.528  0.00  0.00     0.048 H 
ATOM     54  H34 non d ame     -10.240  13.543  63.677  0.00  0.00     0.048 H 
BRANCH  52  55
ATOM     55  C23 non d ame     -11.510  15.078  64.430  0.00  0.00     0.259 C 
ATOM     56  O7  non d ame     -12.599  15.068  63.953  0.00  0.00    -0.265 OA
BRANCH  55  57
ATOM     57  O8  non d ame     -10.907  16.308  64.810  0.00  0.00    -0.317 OA
BRANCH  57  58
ATOM     58  C29 non d ame      -9.982  16.191  65.895  0.00  0.00     0.052 C 
ATOM     59  H47 non d ame     -10.376  15.402  66.535  0.00  0.00     0.082 H 
ATOM     60  H48 non d ame      -9.001  16.080  65.435  0.00  0.00     0.082 H 
BRANCH  58  61
ATOM     61  C35 non d ame     -10.004  17.525  66.689  0.00  0.00    -0.034 A 
ATOM     62  C30 non d ame      -9.639  17.544  68.031  0.00  0.00    -0.075 A 
ATOM     63  C31 non d ame      -9.659  18.743  68.743  0.00  0.00    -0.082 A 
ATOM     64  H49 non d ame      -9.337  16.620  68.525  0.00  0.00     0.084 H 
ATOM     65  C32 non d ame     -10.049  19.925  68.108  0.00  0.00    -0.083 A 
ATOM     66  H50 non d ame      -9.369  18.755  69.794  0.00  0.00     0.083 H 
ATOM     67  C33 non d ame     -10.416  19.901  66.769  0.00  0.00    -0.082 A 
ATOM     68  H51 non d ame     -10.067  20.866  68.658  0.00  0.00     0.083 H 
ATOM     69  C34 non d ame     -10.395  18.705  66.054  0.00  0.00    -0.075 A 
ATOM     70  H52 non d ame     -10.722  20.825  66.278  0.00  0.00     0.083 H 
ATOM     71  H53 non d ame     -10.684  18.695  65.002  0.00  0.00     0.084 H 
ENDBRANCH  58  61
ENDBRANCH  57  58
ENDBRANCH  55  57
ENDBRANCH  52  55
ENDBRANCH  49  52
ENDBRANCH  47  49
BRANCH  47  72
ATOM     72  C24 non d ame     -10.484  12.097  67.076  0.00  0.00    -0.039 C 
ATOM     73  H35 non d ame      -9.904  11.321  67.575  0.00  0.00     0.036 H 
ATOM     74  H36 non d ame     -10.011  13.041  66.805  0.00  0.00     0.036 H 
BRANCH  72  75
ATOM     75  C25 non d ame     -11.724  12.446  68.029  0.00  0.00    -0.001 C 
ATOM     76  C26 non d ame     -11.872  14.077  68.180  0.00  0.00    -0.035 C 
ATOM     77  C27 non d ame     -11.940  14.387  69.497  0.00  0.00     0.085 C 
ATOM     78  H38 non d ame     -10.957  14.567  67.850  0.00  0.00     0.036 H 
ATOM     79  H39 non d ame     -12.836  14.403  67.792  0.00  0.00     0.036 H 
ATOM     80  N5  non d ame     -11.523  13.154  70.264  0.00  0.00    -0.049 N 
ATOM     81  H40 non d ame     -11.195  15.169  69.651  0.00  0.00     0.075 H 
ATOM     82  H41 non d ame     -12.991  14.589  69.695  0.00  0.00     0.075 H 
ATOM     83  C28 non d ame     -11.569  11.937  69.205  0.00  0.00     0.193 C 
ATOM     84  H42 non d ame     -10.564  13.302  70.543  0.00  0.00     0.280 HD
ATOM     85  H43 non d ame     -12.235  12.998  70.963  0.00  0.00     0.280 HD
ATOM     86  H44 non d ame     -12.388  11.219  69.220  0.00  0.00     0.129 H 
ATOM     87  H37 non d ame     -12.622  11.890  67.757  0.00  0.00     0.046 H 
BRANCH  83  88
ATOM     88  O6  non d ame     -10.376  11.155  69.300  0.00  0.00    -0.369 OA
ATOM     89  H45 non d ame      -9.655  11.709  69.610  0.00  0.00     0.212 HD
ENDBRANCH  83  88
ENDBRANCH  72  75
ENDBRANCH  47  72
ENDBRANCH  45  47
ENDBRANCH   1  43
BRANCH   1  90
ATOM     90  C16 non d ame      -8.526   8.738  62.939  0.00  0.00    -0.035 C 
ATOM     91  H21 non d ame      -8.421   7.666  62.764  0.00  0.00     0.037 H 
ATOM     92  H22 non d ame      -9.496   9.218  62.809  0.00  0.00     0.037 H 
BRANCH  90  93
ATOM     93  C17 non d ame      -7.548   9.444  61.947  0.00  0.00    -0.059 C 
ATOM     94  H23 non d ame      -7.599   8.910  60.997  0.00  0.00     0.038 H 
BRANCH  93  95
ATOM     95  C18 non d ame      -7.949  10.930  61.680  0.00  0.00    -0.073 C 
ATOM     96  H24 non d ame      -8.825  11.182  62.278  0.00  0.00     0.028 H 
ATOM     97  H25 non d ame      -7.121  11.584  61.954  0.00  0.00     0.028 H 
ATOM     98  H26 non d ame      -8.180  11.059  60.623  0.00  0.00     0.028 H 
ENDBRANCH  93  95
BRANCH  93  99
ATOM     99  C19 non d ame      -6.103   9.350  62.443  0.00  0.00    -0.073 C 
ATOM    100  H27 non d ame      -6.096   9.007  63.478  0.00  0.00     0.028 H 
ATOM    101  H28 non d ame      -5.551   8.644  61.821  0.00  0.00     0.028 H 
ATOM    102  H29 non d ame      -5.632  10.331  62.381  0.00  0.00     0.028 H 
ENDBRANCH  93  99
ENDBRANCH  90  93
ENDBRANCH   1  90
TORSDOF 26
ENDMDL
MODEL 8
REMARK VINA RESULT:      -6.3      2.546      7.543
REMARK  26 active torsions:
REMARK  status: ('A' for Active; 'I' for Inactive)
REMARK    1  A    between atoms: C2_2  and  C3_3 
REMARK    2  A    between atoms: C4_6  and  C5_7 
REMARK       I    between atoms: C5_7  and  N2_9 
REMARK    3  A    between atoms: N2_9  and  C6_10 
REMARK    4  A    between atoms: C6_10  and  C7_11 
REMARK    5  A    between atoms: C6_10  and  C8_13 
REMARK       I    between atoms: C7_11  and  N3_14 
REMARK    6  A    between atoms: N3_14  and  C9_15 
REMARK    7  A    between atoms: C9_15  and  C10_16 
REMARK    8  A    between atoms: C9_15  and  C11_18 
REMARK       I    between atoms: C10_16  and  N4_21 
REMARK    9  A    between atoms: C11_18  and  C12_19 
REMARK   10  A    between atoms: C11_18  and  C13_20 
REMARK   11  A    between atoms: N4_21  and  C14_22 
REMARK   12  A    between atoms: C14_22  and  C15_23 
REMARK   13  A    between atoms: C14_22  and  C16_25 
REMARK       I    between atoms: C15_23  and  N6_40 
REMARK   14  A    between atoms: C16_25  and  C17_26 
REMARK   15  A    between atoms: C17_26  and  C18_27 
REMARK   16  A    between atoms: C17_26  and  C19_28 
REMARK   17  A    between atoms: C20_29  and  C21_30 
REMARK   18  A    between atoms: C20_29  and  C24_33 
REMARK   19  A    between atoms: C20_29  and  N6_40 
REMARK   20  A    between atoms: C21_30  and  C22_31 
REMARK   21  A    between atoms: C22_31  and  C23_32 
REMARK   22  A    between atoms: C23_32  and  O8_43 
REMARK   23  A    between atoms: C24_33  and  C25_34 
REMARK   24  A    between atoms: C28_38  and  O6_39 
REMARK   25  A    between atoms: C29_42  and  O8_43 
REMARK   26  A    between atoms: C29_42  and  C35_49 
ROOT
ATOM      1  C14 non d ame      -6.568  14.048  67.663  0.00  0.00     0.089 C 
ATOM      2  H20 non d ame      -5.791  14.459  67.017  0.00  0.00     0.087 H 
ENDROOT
BRANCH   1   3
ATOM      3  N4  non d ame      -7.824  14.685  67.296  0.00  0.00    -0.346 N 
ATOM      4  C10 non d ame      -7.829  16.067  66.689  0.00  0.00     0.241 C 
ATOM      5  O4  non d ame      -6.809  16.646  66.508  0.00  0.00    -0.271 OA
ATOM      6  H19 non d ame      -8.682  14.177  67.460  0.00  0.00     0.163 HD
BRANCH   4   7
ATOM      7  C9  non d ame      -9.138  16.709  66.310  0.00  0.00     0.092 C 
ATOM      8  H11 non d ame      -9.210  16.763  65.224  0.00  0.00     0.088 H 
BRANCH   7   9
ATOM      9  N3  non d ame     -10.247  15.871  66.776  0.00  0.00    -0.346 N 
ATOM     10  C7  non d ame     -10.661  14.727  66.001  0.00  0.00     0.240 C 
ATOM     11  O3  non d ame     -10.113  14.466  65.000  0.00  0.00    -0.271 OA
ATOM     12  H10 non d ame     -10.730  16.084  67.638  0.00  0.00     0.163 HD
BRANCH  10  13
ATOM     13  C6  non d ame     -11.844  13.841  66.501  0.00  0.00     0.086 C 
ATOM     14  H6  non d ame     -11.576  12.788  66.586  0.00  0.00     0.086 H 
BRANCH  13  15
ATOM     15  N2  non d ame     -12.232  14.280  67.832  0.00  0.00    -0.343 N 
ATOM     16  C5  non d ame     -11.755  13.543  69.003  0.00  0.00     0.273 C 
ATOM     17  O2  non d ame     -11.061  12.596  68.864  0.00  0.00    -0.266 OA
ATOM     18  H5  non d ame     -12.828  15.089  67.941  0.00  0.00     0.163 HD
BRANCH  16  19
ATOM     19  C4  non d ame     -12.157  13.996  70.415  0.00  0.00     0.154 A 
ATOM     20  C1  non d ame     -11.817  15.230  71.057  0.00  0.00    -0.017 A 
ATOM     21  C2  non d ame     -12.425  15.157  72.329  0.00  0.00     0.077 A 
ATOM     22  H1  non d ame     -11.222  16.052  70.659  0.00  0.00     0.091 H 
ATOM     23  O1  non d ame     -13.041  14.013  72.400  0.00  0.00    -0.218 OA
ATOM     24  N1  non d ame     -12.899  13.318  71.294  0.00  0.00    -0.123 NA
BRANCH  21  25
ATOM     25  C3  non d ame     -12.372  16.222  73.416  0.00  0.00    -0.029 C 
ATOM     26  H2  non d ame     -12.415  15.745  74.396  0.00  0.00     0.036 H 
ATOM     27  H3  non d ame     -11.443  16.785  73.328  0.00  0.00     0.036 H 
ATOM     28  H4  non d ame     -13.219  16.900  73.304  0.00  0.00     0.036 H 
ENDBRANCH  21  25
ENDBRANCH  16  19
ENDBRANCH  13  15
BRANCH  13  29
ATOM     29  C8  non d ame     -13.009  13.972  65.554  0.00  0.00    -0.049 C 
ATOM     30  H7  non d ame     -13.651  14.791  65.879  0.00  0.00     0.030 H 
ATOM     31  H8  non d ame     -12.641  14.176  64.549  0.00  0.00     0.030 H 
ATOM     32  H9  non d ame     -13.581  13.044  65.550  0.00  0.00     0.030 H 
ENDBRANCH  13  29
ENDBRANCH  10  13
ENDBRANCH   7   9
BRANCH   7  33
ATOM     33  C11 non d ame      -9.237  18.113  66.974  0.00  0.00    -0.033 C 
ATOM     34  H12 non d ame      -8.301  18.636  66.781  0.00  0.00     0.042 H 
BRANCH  33  35
ATOM     35  C12 non d ame     -10.387  18.960  66.344  0.00  0.00    -0.071 C 
ATOM     36  H13 non d ame      -9.976  19.884  65.937  0.00  0.00     0.028 H 
ATOM     37  H14 non d ame     -10.862  18.390  65.546  0.00  0.00     0.028 H 
ATOM     38  H15 non d ame     -11.123  19.197  67.111  0.00  0.00     0.028 H 
ENDBRANCH  33  35
BRANCH  33  39
ATOM     39  C13 non d ame      -9.410  17.988  68.522  0.00  0.00    -0.071 C 
ATOM     40  H16 non d ame     -10.440  17.715  68.752  0.00  0.00     0.028 H 
ATOM     41  H17 non d ame      -8.737  17.219  68.903  0.00  0.00     0.028 H 
ATOM     42  H18 non d ame      -9.174  18.942  68.993  0.00  0.00     0.028 H 
ENDBRANCH  33  39
ENDBRANCH   7  33
ENDBRANCH   4   7
ENDBRANCH   1   3
BRANCH   1  43
ATOM     43  C15 non d ame      -6.725  12.511  67.490  0.00  0.00     0.240 C 
ATOM     44  O5  non d ame      -6.020  11.772  68.097  0.00  0.00    -0.271 OA
ATOM     45  N6  non d ame      -7.763  11.958  66.573  0.00  0.00    -0.355 N 
ATOM     46  H46 non d ame      -8.371  12.576  66.055  0.00  0.00     0.162 HD
BRANCH  45  47
ATOM     47  C20 non d ame      -7.900  10.494  66.419  0.00  0.00     0.013 C 
ATOM     48  H30 non d ame      -7.192  10.017  67.097  0.00  0.00     0.072 H 
BRANCH  47  49
ATOM     49  C21 non d ame      -7.587  10.109  64.991  0.00  0.00    -0.038 C 
ATOM     50  H31 non d ame      -7.889  10.961  64.383  0.00  0.00     0.036 H 
ATOM     51  H32 non d ame      -6.546   9.783  64.996  0.00  0.00     0.036 H 
BRANCH  49  52
ATOM     52  C22 non d ame      -8.419   8.905  64.499  0.00  0.00     0.018 C 
ATOM     53  H33 non d ame      -8.103   8.058  65.110  0.00  0.00     0.048 H 
ATOM     54  H34 non d ame      -9.457   9.234  64.522  0.00  0.00     0.048 H 
BRANCH  52  55
ATOM     55  C23 non d ame      -8.129   8.502  63.027  0.00  0.00     0.259 C 
ATOM     56  O7  non d ame      -8.473   9.203  62.131  0.00  0.00    -0.265 OA
BRANCH  55  57
ATOM     57  O8  non d ame      -7.458   7.277  62.759  0.00  0.00    -0.317 OA
BRANCH  57  58
ATOM     58  C29 non d ame      -7.311   6.432  63.904  0.00  0.00     0.052 C 
ATOM     59  H47 non d ame      -6.376   5.892  63.755  0.00  0.00     0.082 H 
ATOM     60  H48 non d ame      -7.431   7.084  64.769  0.00  0.00     0.082 H 
BRANCH  58  61
ATOM     61  C35 non d ame      -8.477   5.408  63.897  0.00  0.00    -0.034 A 
ATOM     62  C30 non d ame      -8.923   4.868  62.695  0.00  0.00    -0.075 A 
ATOM     63  C31 non d ame      -9.971   3.948  62.688  0.00  0.00    -0.082 A 
ATOM     64  H49 non d ame      -8.452   5.165  61.758  0.00  0.00     0.084 H 
ATOM     65  C32 non d ame     -10.575   3.571  63.890  0.00  0.00    -0.083 A 
ATOM     66  H50 non d ame     -10.316   3.525  61.745  0.00  0.00     0.083 H 
ATOM     67  C33 non d ame     -10.129   4.115  65.088  0.00  0.00    -0.082 A 
ATOM     68  H51 non d ame     -11.394   2.852  63.894  0.00  0.00     0.083 H 
ATOM     69  C34 non d ame      -9.081   5.033  65.098  0.00  0.00    -0.075 A 
ATOM     70  H52 non d ame     -10.605   3.820  66.023  0.00  0.00     0.083 H 
ATOM     71  H53 non d ame      -8.735   5.454  66.043  0.00  0.00     0.084 H 
ENDBRANCH  58  61
ENDBRANCH  57  58
ENDBRANCH  55  57
ENDBRANCH  52  55
ENDBRANCH  49  52
ENDBRANCH  47  49
BRANCH  47  72
ATOM     72  C24 non d ame      -9.328  10.071  66.761  0.00  0.00    -0.039 C 
ATOM     73  H35 non d ame      -9.877  11.001  66.909  0.00  0.00     0.036 H 
ATOM     74  H36 non d ame      -9.624   9.384  65.967  0.00  0.00     0.036 H 
BRANCH  72  75
ATOM     75  C25 non d ame      -9.392   9.258  68.139  0.00  0.00    -0.001 C 
ATOM     76  C26 non d ame      -8.852   7.722  67.908  0.00  0.00    -0.035 C 
ATOM     77  C27 non d ame      -9.769   6.858  68.405  0.00  0.00     0.085 C 
ATOM     78  H38 non d ame      -8.831   7.488  66.845  0.00  0.00     0.036 H 
ATOM     79  H39 non d ame      -7.971   7.539  68.524  0.00  0.00     0.036 H 
ATOM     80  N5  non d ame     -11.031   7.649  68.656  0.00  0.00    -0.049 N 
ATOM     81  H40 non d ame      -9.954   6.138  67.606  0.00  0.00     0.075 H 
ATOM     82  H41 non d ame      -9.366   6.521  69.359  0.00  0.00     0.075 H 
ATOM     83  C28 non d ame     -10.599   9.204  68.595  0.00  0.00     0.193 C 
ATOM     84  H42 non d ame     -11.648   7.456  67.881  0.00  0.00     0.280 HD
ATOM     85  H43 non d ame     -11.321   7.434  69.599  0.00  0.00     0.280 HD
ATOM     86  H44 non d ame     -10.492   9.786  69.510  0.00  0.00     0.129 H 
ATOM     87  H37 non d ame      -8.959   9.817  68.968  0.00  0.00     0.046 H 
BRANCH  83  88
ATOM     88  O6  non d ame     -11.515   9.938  67.781  0.00  0.00    -0.369 OA
ATOM     89  H45 non d ame     -12.415   9.719  68.035  0.00  0.00     0.212 HD
ENDBRANCH  83  88
ENDBRANCH  72  75
ENDBRANCH  47  72
ENDBRANCH  45  47
ENDBRANCH   1  43
BRANCH   1  90
ATOM     90  C16 non d ame      -6.255  14.370  69.115  0.00  0.00    -0.035 C 
ATOM     91  H21 non d ame      -7.112  14.941  69.476  0.00  0.00     0.037 H 
ATOM     92  H22 non d ame      -6.004  13.415  69.575  0.00  0.00     0.037 H 
BRANCH  90  93
ATOM     93  C17 non d ame      -5.005  15.290  69.298  0.00  0.00    -0.059 C 
ATOM     94  H23 non d ame      -4.878  15.860  68.378  0.00  0.00     0.038 H 
BRANCH  93  95
ATOM     95  C18 non d ame      -5.189  16.308  70.468  0.00  0.00    -0.073 C 
ATOM     96  H24 non d ame      -6.252  16.456  70.657  0.00  0.00     0.028 H 
ATOM     97  H25 non d ame      -4.711  15.918  71.367  0.00  0.00     0.028 H 
ATOM     98  H26 non d ame      -4.731  17.259  70.197  0.00  0.00     0.028 H 
ENDBRANCH  93  95
BRANCH  93  99
ATOM     99  C19 non d ame      -3.736  14.456  69.495  0.00  0.00    -0.073 C 
ATOM    100  H27 non d ame      -3.434  14.023  68.540  0.00  0.00     0.028 H 
ATOM    101  H28 non d ame      -2.938  15.095  69.874  0.00  0.00     0.028 H 
ATOM    102  H29 non d ame      -3.933  13.658  70.211  0.00  0.00     0.028 H 
ENDBRANCH  93  99
ENDBRANCH  90  93
ENDBRANCH   1  90
TORSDOF 26
ENDMDL
MODEL 9
REMARK VINA RESULT:      -6.2      1.895      5.227
REMARK  26 active torsions:
REMARK  status: ('A' for Active; 'I' for Inactive)
REMARK    1  A    between atoms: C2_2  and  C3_3 
REMARK    2  A    between atoms: C4_6  and  C5_7 
REMARK       I    between atoms: C5_7  and  N2_9 
REMARK    3  A    between atoms: N2_9  and  C6_10 
REMARK    4  A    between atoms: C6_10  and  C7_11 
REMARK    5  A    between atoms: C6_10  and  C8_13 
REMARK       I    between atoms: C7_11  and  N3_14 
REMARK    6  A    between atoms: N3_14  and  C9_15 
REMARK    7  A    between atoms: C9_15  and  C10_16 
REMARK    8  A    between atoms: C9_15  and  C11_18 
REMARK       I    between atoms: C10_16  and  N4_21 
REMARK    9  A    between atoms: C11_18  and  C12_19 
REMARK   10  A    between atoms: C11_18  and  C13_20 
REMARK   11  A    between atoms: N4_21  and  C14_22 
REMARK   12  A    between atoms: C14_22  and  C15_23 
REMARK   13  A    between atoms: C14_22  and  C16_25 
REMARK       I    between atoms: C15_23  and  N6_40 
REMARK   14  A    between atoms: C16_25  and  C17_26 
REMARK   15  A    between atoms: C17_26  and  C18_27 
REMARK   16  A    between atoms: C17_26  and  C19_28 
REMARK   17  A    between atoms: C20_29  and  C21_30 
REMARK   18  A    between atoms: C20_29  and  C24_33 
REMARK   19  A    between atoms: C20_29  and  N6_40 
REMARK   20  A    between atoms: C21_30  and  C22_31 
REMARK   21  A    between atoms: C22_31  and  C23_32 
REMARK   22  A    between atoms: C23_32  and  O8_43 
REMARK   23  A    between atoms: C24_33  and  C25_34 
REMARK   24  A    between atoms: C28_38  and  O6_39 
REMARK   25  A    between atoms: C29_42  and  O8_43 
REMARK   26  A    between atoms: C29_42  and  C35_49 
ROOT
ATOM      1  C14 non d ame     -12.160  13.604  69.997  0.00  0.00     0.089 C 
ATOM      2  H20 non d ame     -13.249  13.535  70.022  0.00  0.00     0.087 H 
ENDROOT
BRANCH   1   3
ATOM      3  N4  non d ame     -11.630  12.357  70.527  0.00  0.00    -0.346 N 
ATOM      4  C10 non d ame     -12.000  11.040  69.891  0.00  0.00     0.241 C 
ATOM      5  O4  non d ame     -12.730  11.010  68.955  0.00  0.00    -0.271 OA
ATOM      6  H19 non d ame     -11.013  12.404  71.326  0.00  0.00     0.163 HD
BRANCH   4   7
ATOM      7  C9  non d ame     -11.439   9.759  70.449  0.00  0.00     0.092 C 
ATOM      8  H11 non d ame     -11.600   8.954  69.733  0.00  0.00     0.088 H 
BRANCH   7   9
ATOM      9  N3  non d ame      -9.989   9.897  70.625  0.00  0.00    -0.346 N 
ATOM     10  C7  non d ame      -9.096   9.536  69.553  0.00  0.00     0.240 C 
ATOM     11  O3  non d ame      -9.525   9.132  68.541  0.00  0.00    -0.271 OA
ATOM     12  H10 non d ame      -9.604  10.243  71.493  0.00  0.00     0.163 HD
BRANCH  10  13
ATOM     13  C6  non d ame      -7.554   9.681  69.747  0.00  0.00     0.086 C 
ATOM     14  H6  non d ame      -6.981   9.179  68.968  0.00  0.00     0.086 H 
BRANCH  13  15
ATOM     15  N2  non d ame      -7.202  11.090  69.680  0.00  0.00    -0.343 N 
ATOM     16  C5  non d ame      -6.782  11.670  68.402  0.00  0.00     0.273 C 
ATOM     17  O2  non d ame      -6.728  10.993  67.435  0.00  0.00    -0.266 OA
ATOM     18  H5  non d ame      -7.248  11.660  70.513  0.00  0.00     0.163 HD
BRANCH  16  19
ATOM     19  C4  non d ame      -6.408  13.157  68.318  0.00  0.00     0.154 A 
ATOM     20  C1  non d ame      -6.698  14.178  69.278  0.00  0.00    -0.017 A 
ATOM     21  C2  non d ame      -6.144  15.358  68.733  0.00  0.00     0.077 A 
ATOM     22  H1  non d ame      -7.228  14.078  70.225  0.00  0.00     0.091 H 
ATOM     23  O1  non d ame      -5.600  15.040  67.594  0.00  0.00    -0.218 OA
ATOM     24  N1  non d ame      -5.742  13.761  67.330  0.00  0.00    -0.123 NA
BRANCH  21  25
ATOM     25  C3  non d ame      -6.176  16.744  69.363  0.00  0.00    -0.029 C 
ATOM     26  H2  non d ame      -7.111  16.873  69.909  0.00  0.00     0.036 H 
ATOM     27  H3  non d ame      -5.337  16.850  70.050  0.00  0.00     0.036 H 
ATOM     28  H4  non d ame      -6.104  17.501  68.581  0.00  0.00     0.036 H 
ENDBRANCH  21  25
ENDBRANCH  16  19
ENDBRANCH  13  15
BRANCH  13  29
ATOM     29  C8  non d ame      -7.157   9.113  71.086  0.00  0.00    -0.049 C 
ATOM     30  H7  non d ame      -6.104   9.324  71.272  0.00  0.00     0.030 H 
ATOM     31  H8  non d ame      -7.763   9.568  71.869  0.00  0.00     0.030 H 
ATOM     32  H9  non d ame      -7.316   8.035  71.084  0.00  0.00     0.030 H 
ENDBRANCH  13  29
ENDBRANCH  10  13
ENDBRANCH   7   9
BRANCH   7  33
ATOM     33  C11 non d ame     -12.100   9.460  71.827  0.00  0.00    -0.033 C 
ATOM     34  H12 non d ame     -11.942  10.329  72.463  0.00  0.00     0.042 H 
BRANCH  33  35
ATOM     35  C12 non d ame     -13.640   9.254  71.685  0.00  0.00    -0.071 C 
ATOM     36  H13 non d ame     -14.155   9.819  72.462  0.00  0.00     0.028 H 
ATOM     37  H14 non d ame     -13.965   9.604  70.706  0.00  0.00     0.028 H 
ATOM     38  H15 non d ame     -13.875   8.196  71.790  0.00  0.00     0.028 H 
ENDBRANCH  33  35
BRANCH  33  39
ATOM     39  C13 non d ame     -11.426   8.229  72.514  0.00  0.00    -0.071 C 
ATOM     40  H16 non d ame     -10.412   8.491  72.816  0.00  0.00     0.028 H 
ATOM     41  H17 non d ame     -12.004   7.943  73.394  0.00  0.00     0.028 H 
ATOM     42  H18 non d ame     -11.393   7.394  71.814  0.00  0.00     0.028 H 
ENDBRANCH  33  39
ENDBRANCH   7  33
ENDBRANCH   4   7
ENDBRANCH   1   3
BRANCH   1  43
ATOM     43  C15 non d ame     -11.616  13.799  68.553  0.00  0.00     0.240 C 
ATOM     44  O5  non d ame     -12.358  14.105  67.678  0.00  0.00    -0.271 OA
ATOM     45  N6  non d ame     -10.165  13.612  68.264  0.00  0.00    -0.355 N 
ATOM     46  H46 non d ame      -9.525  13.356  69.001  0.00  0.00     0.162 HD
BRANCH  45  47
ATOM     47  C20 non d ame      -9.663  13.801  66.886  0.00  0.00     0.013 C 
ATOM     48  H30 non d ame      -8.585  13.953  66.939  0.00  0.00     0.072 H 
BRANCH  47  49
ATOM     49  C21 non d ame     -10.326  15.014  66.274  0.00  0.00    -0.038 C 
ATOM     50  H31 non d ame     -10.345  14.828  65.200  0.00  0.00     0.036 H 
ATOM     51  H32 non d ame     -11.259  15.147  66.821  0.00  0.00     0.036 H 
BRANCH  49  52
ATOM     52  C22 non d ame      -9.510  16.309  66.478  0.00  0.00     0.018 C 
ATOM     53  H33 non d ame      -8.515  15.987  66.787  0.00  0.00     0.048 H 
ATOM     54  H34 non d ame      -9.636  16.885  65.562  0.00  0.00     0.048 H 
BRANCH  52  55
ATOM     55  C23 non d ame     -10.043  17.210  67.628  0.00  0.00     0.259 C 
ATOM     56  O7  non d ame     -11.185  17.160  67.953  0.00  0.00    -0.265 OA
BRANCH  55  57
ATOM     57  O8  non d ame      -9.152  18.107  68.280  0.00  0.00    -0.317 OA
BRANCH  57  58
ATOM     58  C29 non d ame      -9.331  19.477  67.907  0.00  0.00     0.052 C 
ATOM     59  H47 non d ame     -10.159  19.484  67.200  0.00  0.00     0.082 H 
ATOM     60  H48 non d ame      -9.408  20.029  68.844  0.00  0.00     0.082 H 
BRANCH  58  61
ATOM     61  C35 non d ame      -8.048  19.943  67.168  0.00  0.00    -0.034 A 
ATOM     62  C30 non d ame      -7.098  20.708  67.835  0.00  0.00    -0.075 A 
ATOM     63  C31 non d ame      -5.946  21.126  67.171  0.00  0.00    -0.082 A 
ATOM     64  H49 non d ame      -7.255  20.979  68.880  0.00  0.00     0.084 H 
ATOM     65  C32 non d ame      -5.748  20.779  65.832  0.00  0.00    -0.083 A 
ATOM     66  H50 non d ame      -5.201  21.723  67.698  0.00  0.00     0.083 H 
ATOM     67  C33 non d ame      -6.701  20.018  65.168  0.00  0.00    -0.082 A 
ATOM     68  H51 non d ame      -4.850  21.101  65.305  0.00  0.00     0.083 H 
ATOM     69  C34 non d ame      -7.853  19.596  65.830  0.00  0.00    -0.075 A 
ATOM     70  H52 non d ame      -6.544  19.751  64.123  0.00  0.00     0.083 H 
ATOM     71  H53 non d ame      -8.596  18.998  65.302  0.00  0.00     0.084 H 
ENDBRANCH  58  61
ENDBRANCH  57  58
ENDBRANCH  55  57
ENDBRANCH  52  55
ENDBRANCH  49  52
ENDBRANCH  47  49
BRANCH  47  72
ATOM     72  C24 non d ame      -9.983  12.566  66.046  0.00  0.00    -0.039 C 
ATOM     73  H35 non d ame      -9.020  12.100  65.837  0.00  0.00     0.036 H 
ATOM     74  H36 non d ame     -10.741  12.020  66.610  0.00  0.00     0.036 H 
BRANCH  72  75
ATOM     75  C25 non d ame     -10.635  12.959  64.637  0.00  0.00    -0.001 C 
ATOM     76  C26 non d ame     -12.253  12.666  64.667  0.00  0.00    -0.035 C 
ATOM     77  C27 non d ame     -12.581  11.921  63.584  0.00  0.00     0.085 C 
ATOM     78  H38 non d ame     -12.500  12.018  65.507  0.00  0.00     0.036 H 
ATOM     79  H39 non d ame     -12.804  13.593  64.514  0.00  0.00     0.036 H 
ATOM     80  N5  non d ame     -11.290  11.403  62.997  0.00  0.00    -0.049 N 
ATOM     81  H40 non d ame     -13.156  11.079  63.973  0.00  0.00     0.075 H 
ATOM     82  H41 non d ame     -13.038  12.615  62.881  0.00  0.00     0.075 H 
ATOM     83  C28 non d ame     -10.113  12.277  63.673  0.00  0.00     0.193 C 
ATOM     84  H42 non d ame     -11.198  10.447  63.305  0.00  0.00     0.280 HD
ATOM     85  H43 non d ame     -11.320  11.615  62.009  0.00  0.00     0.280 HD
ATOM     86  H44 non d ame      -9.619  13.071  63.112  0.00  0.00     0.129 H 
ATOM     87  H37 non d ame     -10.316  13.944  64.295  0.00  0.00     0.046 H 
BRANCH  83  88
ATOM     88  O6  non d ame      -9.062  11.422  64.126  0.00  0.00    -0.369 OA
ATOM     89  H45 non d ame      -9.425  10.751  64.710  0.00  0.00     0.212 HD
ENDBRANCH  83  88
ENDBRANCH  72  75
ENDBRANCH  47  72
ENDBRANCH  45  47
ENDBRANCH   1  43
BRANCH   1  90
ATOM     90  C16 non d ame     -11.698  14.754  70.877  0.00  0.00    -0.035 C 
ATOM     91  H21 non d ame     -11.140  14.288  71.691  0.00  0.00     0.037 H 
ATOM     92  H22 non d ame     -11.198  15.450  70.204  0.00  0.00     0.037 H 
BRANCH  90  93
ATOM     93  C17 non d ame     -12.868  15.545  71.542  0.00  0.00    -0.059 C 
ATOM     94  H23 non d ame     -12.983  16.483  70.999  0.00  0.00     0.038 H 
BRANCH  93  95
ATOM     95  C18 non d ame     -14.225  14.776  71.455  0.00  0.00    -0.073 C 
ATOM     96  H24 non d ame     -14.895  15.298  70.772  0.00  0.00     0.028 H 
ATOM     97  H25 non d ame     -14.046  13.766  71.087  0.00  0.00     0.028 H 
ATOM     98  H26 non d ame     -14.679  14.727  72.445  0.00  0.00     0.028 H 
ENDBRANCH  93  95
BRANCH  93  99
ATOM     99  C19 non d ame     -12.535  15.899  72.994  0.00  0.00    -0.073 C 
ATOM    100  H27 non d ame     -11.459  16.047  73.094  0.00  0.00     0.028 H 
ATOM    101  H28 non d ame     -13.057  16.815  73.272  0.00  0.00     0.028 H 
ATOM    102  H29 non d ame     -12.854  15.088  73.648  0.00  0.00     0.028 H 
ENDBRANCH  93  99
ENDBRANCH  90  93
ENDBRANCH   1  90
TORSDOF 26
ENDMDL
MODEL 10
REMARK VINA RESULT:      -6.2      2.695      6.828
REMARK  26 active torsions:
REMARK  status: ('A' for Active; 'I' for Inactive)
REMARK    1  A    between atoms: C2_2  and  C3_3 
REMARK    2  A    between atoms: C4_6  and  C5_7 
REMARK       I    between atoms: C5_7  and  N2_9 
REMARK    3  A    between atoms: N2_9  and  C6_10 
REMARK    4  A    between atoms: C6_10  and  C7_11 
REMARK    5  A    between atoms: C6_10  and  C8_13 
REMARK       I    between atoms: C7_11  and  N3_14 
REMARK    6  A    between atoms: N3_14  and  C9_15 
REMARK    7  A    between atoms: C9_15  and  C10_16 
REMARK    8  A    between atoms: C9_15  and  C11_18 
REMARK       I    between atoms: C10_16  and  N4_21 
REMARK    9  A    between atoms: C11_18  and  C12_19 
REMARK   10  A    between atoms: C11_18  and  C13_20 
REMARK   11  A    between atoms: N4_21  and  C14_22 
REMARK   12  A    between atoms: C14_22  and  C15_23 
REMARK   13  A    between atoms: C14_22  and  C16_25 
REMARK       I    between atoms: C15_23  and  N6_40 
REMARK   14  A    between atoms: C16_25  and  C17_26 
REMARK   15  A    between atoms: C17_26  and  C18_27 
REMARK   16  A    between atoms: C17_26  and  C19_28 
REMARK   17  A    between atoms: C20_29  and  C21_30 
REMARK   18  A    between atoms: C20_29  and  C24_33 
REMARK   19  A    between atoms: C20_29  and  N6_40 
REMARK   20  A    between atoms: C21_30  and  C22_31 
REMARK   21  A    between atoms: C22_31  and  C23_32 
REMARK   22  A    between atoms: C23_32  and  O8_43 
REMARK   23  A    between atoms: C24_33  and  C25_34 
REMARK   24  A    between atoms: C28_38  and  O6_39 
REMARK   25  A    between atoms: C29_42  and  O8_43 
REMARK   26  A    between atoms: C29_42  and  C35_49 
ROOT
ATOM      1  C14 non d ame     -11.114   8.948  69.940  0.00  0.00     0.089 C 
ATOM      2  H20 non d ame     -11.850   8.152  69.814  0.00  0.00     0.087 H 
ENDROOT
BRANCH   1   3
ATOM      3  N4  non d ame     -10.024   8.687  69.012  0.00  0.00    -0.346 N 
ATOM      4  C10 non d ame     -10.033   7.445  68.155  0.00  0.00     0.241 C 
ATOM      5  O4  non d ame     -10.929   6.670  68.232  0.00  0.00    -0.271 OA
ATOM      6  H19 non d ame      -9.269   9.357  68.964  0.00  0.00     0.163 HD
BRANCH   4   7
ATOM      7  C9  non d ame      -8.899   7.193  67.197  0.00  0.00     0.092 C 
ATOM      8  H11 non d ame      -9.260   6.588  66.365  0.00  0.00     0.088 H 
BRANCH   7   9
ATOM      9  N3  non d ame      -8.439   8.468  66.637  0.00  0.00    -0.346 N 
ATOM     10  C7  non d ame      -7.832   8.503  65.330  0.00  0.00     0.240 C 
ATOM     11  O3  non d ame      -7.705   7.517  64.714  0.00  0.00    -0.271 OA
ATOM     12  H10 non d ame      -8.541   9.328  67.157  0.00  0.00     0.163 HD
BRANCH  10  13
ATOM     13  C6  non d ame      -7.342   9.863  64.741  0.00  0.00     0.086 C 
ATOM     14  H6  non d ame      -7.071   9.794  63.687  0.00  0.00     0.086 H 
BRANCH  13  15
ATOM     15  N2  non d ame      -8.421  10.832  64.831  0.00  0.00    -0.343 N 
ATOM     16  C5  non d ame      -9.426  10.894  63.767  0.00  0.00     0.273 C 
ATOM     17  O2  non d ame      -9.355  10.162  62.842  0.00  0.00    -0.266 OA
ATOM     18  H5  non d ame      -8.473  11.456  65.623  0.00  0.00     0.163 HD
BRANCH  16  19
ATOM     19  C4  non d ame     -10.573  11.913  63.849  0.00  0.00     0.154 A 
ATOM     20  C1  non d ame     -10.548  13.194  64.488  0.00  0.00    -0.017 A 
ATOM     21  C2  non d ame     -11.839  13.728  64.279  0.00  0.00     0.077 A 
ATOM     22  H1  non d ame      -9.721  13.663  65.019  0.00  0.00     0.091 H 
ATOM     23  O1  non d ame     -12.517  12.851  63.598  0.00  0.00    -0.218 OA
ATOM     24  N1  non d ame     -11.799  11.783  63.336  0.00  0.00    -0.123 NA
BRANCH  21  25
ATOM     25  C3  non d ame     -12.342  15.083  64.761  0.00  0.00    -0.029 C 
ATOM     26  H2  non d ame     -11.531  15.616  65.257  0.00  0.00     0.036 H 
ATOM     27  H3  non d ame     -12.691  15.665  63.909  0.00  0.00     0.036 H 
ATOM     28  H4  non d ame     -13.164  14.937  65.463  0.00  0.00     0.036 H 
ENDBRANCH  21  25
ENDBRANCH  16  19
ENDBRANCH  13  15
BRANCH  13  29
ATOM     29  C8  non d ame      -6.146  10.349  65.520  0.00  0.00    -0.049 C 
ATOM     30  H7  non d ame      -5.636   9.498  65.972  0.00  0.00     0.030 H 
ATOM     31  H8  non d ame      -5.462  10.869  64.850  0.00  0.00     0.030 H 
ATOM     32  H9  non d ame      -6.476  11.031  66.304  0.00  0.00     0.030 H 
ENDBRANCH  13  29
ENDBRANCH  10  13
ENDBRANCH   7   9
BRANCH   7  33
ATOM     33  C11 non d ame      -7.725   6.507  67.953  0.00  0.00    -0.033 C 
ATOM     34  H12 non d ame      -7.152   5.936  67.224  0.00  0.00     0.042 H 
BRANCH  33  35
ATOM     35  C12 non d ame      -6.762   7.561  68.585  0.00  0.00    -0.071 C 
ATOM     36  H13 non d ame      -7.326   8.215  69.250  0.00  0.00     0.028 H 
ATOM     37  H14 non d ame      -5.984   7.050  69.150  0.00  0.00     0.028 H 
ATOM     38  H15 non d ame      -6.307   8.154  67.793  0.00  0.00     0.028 H 
ENDBRANCH  33  35
BRANCH  33  39
ATOM     39  C13 non d ame      -8.260   5.512  69.033  0.00  0.00    -0.071 C 
ATOM     40  H16 non d ame      -9.145   5.004  68.652  0.00  0.00     0.028 H 
ATOM     41  H17 non d ame      -7.489   4.775  69.263  0.00  0.00     0.028 H 
ATOM     42  H18 non d ame      -8.517   6.062  69.938  0.00  0.00     0.028 H 
ENDBRANCH  33  39
ENDBRANCH   7  33
ENDBRANCH   4   7
ENDBRANCH   1   3
BRANCH   1  43
ATOM     43  C15 non d ame     -11.706  10.351  69.624  0.00  0.00     0.240 C 
ATOM     44  O5  non d ame     -11.958  10.647  68.501  0.00  0.00    -0.271 OA
ATOM     45  N6  non d ame     -11.967  11.323  70.724  0.00  0.00    -0.355 N 
ATOM     46  H46 non d ame     -11.760  11.081  71.682  0.00  0.00     0.162 HD
BRANCH  45  47
ATOM     47  C20 non d ame     -12.530  12.653  70.407  0.00  0.00     0.013 C 
ATOM     48  H30 non d ame     -13.281  12.523  69.627  0.00  0.00     0.072 H 
BRANCH  47  49
ATOM     49  C21 non d ame     -11.426  13.561  69.915  0.00  0.00    -0.038 C 
ATOM     50  H31 non d ame     -11.375  14.379  70.632  0.00  0.00     0.036 H 
ATOM     51  H32 non d ame     -10.561  12.915  69.762  0.00  0.00     0.036 H 
BRANCH  49  52
ATOM     52  C22 non d ame     -11.742  14.199  68.545  0.00  0.00     0.018 C 
ATOM     53  H33 non d ame     -11.300  13.537  67.800  0.00  0.00     0.048 H 
ATOM     54  H34 non d ame     -12.817  14.379  68.544  0.00  0.00     0.048 H 
BRANCH  52  55
ATOM     55  C23 non d ame     -11.075  15.587  68.332  0.00  0.00     0.259 C 
ATOM     56  O7  non d ame     -11.605  16.577  68.721  0.00  0.00    -0.265 OA
BRANCH  55  57
ATOM     57  O8  non d ame      -9.828  15.663  67.652  0.00  0.00    -0.317 OA
BRANCH  57  58
ATOM     58  C29 non d ame      -8.802  16.332  68.393  0.00  0.00     0.052 C 
ATOM     59  H47 non d ame      -9.263  16.629  69.334  0.00  0.00     0.082 H 
ATOM     60  H48 non d ame      -7.950  15.653  68.394  0.00  0.00     0.082 H 
BRANCH  58  61
ATOM     61  C35 non d ame      -8.406  17.614  67.612  0.00  0.00    -0.034 A 
ATOM     62  C30 non d ame      -8.950  18.843  67.969  0.00  0.00    -0.075 A 
ATOM     63  C31 non d ame      -8.595  19.994  67.268  0.00  0.00    -0.082 A 
ATOM     64  H49 non d ame      -9.655  18.905  68.799  0.00  0.00     0.084 H 
ATOM     65  C32 non d ame      -7.694  19.912  66.203  0.00  0.00    -0.083 A 
ATOM     66  H50 non d ame      -9.021  20.957  67.553  0.00  0.00     0.083 H 
ATOM     67  C33 non d ame      -7.156  18.682  65.847  0.00  0.00    -0.082 A 
ATOM     68  H51 non d ame      -7.410  20.807  65.650  0.00  0.00     0.083 H 
ATOM     69  C34 non d ame      -7.507  17.530  66.548  0.00  0.00    -0.075 A 
ATOM     70  H52 non d ame      -6.455  18.622  65.014  0.00  0.00     0.083 H 
ATOM     71  H53 non d ame      -7.079  16.567  66.263  0.00  0.00     0.084 H 
ENDBRANCH  58  61
ENDBRANCH  57  58
ENDBRANCH  55  57
ENDBRANCH  52  55
ENDBRANCH  49  52
ENDBRANCH  47  49
BRANCH  47  72
ATOM     72  C24 non d ame     -13.166  13.255  71.659  0.00  0.00    -0.039 C 
ATOM     73  H35 non d ame     -14.242  13.156  71.514  0.00  0.00     0.036 H 
ATOM     74  H36 non d ame     -12.681  12.757  72.499  0.00  0.00     0.036 H 
BRANCH  72  75
ATOM     75  C25 non d ame     -12.849  14.820  71.792  0.00  0.00    -0.001 C 
ATOM     76  C26 non d ame     -11.988  15.102  73.164  0.00  0.00    -0.035 C 
ATOM     77  C27 non d ame     -12.596  16.091  73.864  0.00  0.00     0.085 C 
ATOM     78  H38 non d ame     -12.053  14.243  73.830  0.00  0.00     0.036 H 
ATOM     79  H39 non d ame     -11.016  15.527  72.915  0.00  0.00     0.036 H 
ATOM     80  N5  non d ame     -13.966  16.281  73.259  0.00  0.00    -0.049 N 
ATOM     81  H40 non d ame     -12.705  15.705  74.878  0.00  0.00     0.075 H 
ATOM     82  H41 non d ame     -12.000  16.985  73.681  0.00  0.00     0.075 H 
ATOM     83  C28 non d ame     -13.935  15.516  71.838  0.00  0.00     0.193 C 
ATOM     84  H42 non d ame     -14.616  15.805  73.867  0.00  0.00     0.280 HD
ATOM     85  H43 non d ame     -14.068  17.272  73.087  0.00  0.00     0.280 HD
ATOM     86  H44 non d ame     -13.852  16.077  70.908  0.00  0.00     0.129 H 
ATOM     87  H37 non d ame     -12.457  15.241  70.865  0.00  0.00     0.046 H 
BRANCH  83  88
ATOM     88  O6  non d ame     -15.102  14.703  71.690  0.00  0.00    -0.369 OA
ATOM     89  H45 non d ame     -15.624  14.744  72.495  0.00  0.00     0.212 HD
ENDBRANCH  83  88
ENDBRANCH  72  75
ENDBRANCH  47  72
ENDBRANCH  45  47
ENDBRANCH   1  43
BRANCH   1  90
ATOM     90  C16 non d ame     -10.573   8.929  71.360  0.00  0.00    -0.035 C 
ATOM     91  H21 non d ame      -9.589   8.462  71.288  0.00  0.00     0.037 H 
ATOM     92  H22 non d ame     -10.664   9.954  71.717  0.00  0.00     0.037 H 
BRANCH  90  93
ATOM     93  C17 non d ame     -11.409   8.044  72.338  0.00  0.00    -0.059 C 
ATOM     94  H23 non d ame     -12.066   8.706  72.902  0.00  0.00     0.038 H 
BRANCH  93  95
ATOM     95  C18 non d ame     -12.307   7.014  71.580  0.00  0.00    -0.073 C 
ATOM     96  H24 non d ame     -11.785   6.059  71.511  0.00  0.00     0.028 H 
ATOM     97  H25 non d ame     -13.242   6.879  72.124  0.00  0.00     0.028 H 
ATOM     98  H26 non d ame     -12.520   7.386  70.578  0.00  0.00     0.028 H 
ENDBRANCH  93  95
BRANCH  93  99
ATOM     99  C19 non d ame     -10.502   7.336  73.348  0.00  0.00    -0.073 C 
ATOM    100  H27 non d ame      -9.558   7.877  73.430  0.00  0.00     0.028 H 
ATOM    101  H28 non d ame     -10.993   7.311  74.321  0.00  0.00     0.028 H 
ATOM    102  H29 non d ame     -10.310   6.317  73.012  0.00  0.00     0.028 H 
ENDBRANCH  93  99
ENDBRANCH  90  93
ENDBRANCH   1  90
TORSDOF 26
ENDMDL
MODEL 11
REMARK VINA RESULT:      -6.1      3.182      5.749
REMARK  26 active torsions:
REMARK  status: ('A' for Active; 'I' for Inactive)
REMARK    1  A    between atoms: C2_2  and  C3_3 
REMARK    2  A    between atoms: C4_6  and  C5_7 
REMARK       I    between atoms: C5_7  and  N2_9 
REMARK    3  A    between atoms: N2_9  and  C6_10 
REMARK    4  A    between atoms: C6_10  and  C7_11 
REMARK    5  A    between atoms: C6_10  and  C8_13 
REMARK       I    between atoms: C7_11  and  N3_14 
REMARK    6  A    between atoms: N3_14  and  C9_15 
REMARK    7  A    between atoms: C9_15  and  C10_16 
REMARK    8  A    between atoms: C9_15  and  C11_18 
REMARK       I    between atoms: C10_16  and  N4_21 
REMARK    9  A    between atoms: C11_18  and  C12_19 
REMARK   10  A    between atoms: C11_18  and  C13_20 
REMARK   11  A    between atoms: N4_21  and  C14_22 
REMARK   12  A    between atoms: C14_22  and  C15_23 
REMARK   13  A    between atoms: C14_22  and  C16_25 
REMARK       I    between atoms: C15_23  and  N6_40 
REMARK   14  A    between atoms: C16_25  and  C17_26 
REMARK   15  A    between atoms: C17_26  and  C18_27 
REMARK   16  A    between atoms: C17_26  and  C19_28 
REMARK   17  A    between atoms: C20_29  and  C21_30 
REMARK   18  A    between atoms: C20_29  and  C24_33 
REMARK   19  A    between atoms: C20_29  and  N6_40 
REMARK   20  A    between atoms: C21_30  and  C22_31 
REMARK   21  A    between atoms: C22_31  and  C23_32 
REMARK   22  A    between atoms: C23_32  and  O8_43 
REMARK   23  A    between atoms: C24_33  and  C25_34 
REMARK   24  A    between atoms: C28_38  and  O6_39 
REMARK   25  A    between atoms: C29_42  and  O8_43 
REMARK   26  A    between atoms: C29_42  and  C35_49 
ROOT
ATOM      1  C14 non d ame      -9.490  11.063  68.418  0.00  0.00     0.089 C 
ATOM      2  H20 non d ame      -8.707  11.211  69.162  0.00  0.00     0.087 H 
ENDROOT
BRANCH   1   3
ATOM      3  N4  non d ame     -10.372  10.015  68.911  0.00  0.00    -0.346 N 
ATOM      4  C10 non d ame     -10.038   9.275  70.183  0.00  0.00     0.241 C 
ATOM      5  O4  non d ame      -9.052   9.540  70.790  0.00  0.00    -0.271 OA
ATOM      6  H19 non d ame     -11.204   9.803  68.379  0.00  0.00     0.163 HD
BRANCH   4   7
ATOM      7  C9  non d ame     -10.963   8.197  70.682  0.00  0.00     0.092 C 
ATOM      8  H11 non d ame     -11.847   8.159  70.045  0.00  0.00     0.088 H 
BRANCH   7   9
ATOM      9  N3  non d ame     -10.298   6.894  70.577  0.00  0.00    -0.346 N 
ATOM     10  C7  non d ame     -10.716   5.951  69.571  0.00  0.00     0.240 C 
ATOM     11  O3  non d ame     -11.587   6.221  68.837  0.00  0.00    -0.271 OA
ATOM     12  H10 non d ame      -9.545   6.646  71.204  0.00  0.00     0.163 HD
BRANCH  10  13
ATOM     13  C6  non d ame     -10.006   4.565  69.467  0.00  0.00     0.086 C 
ATOM     14  H6  non d ame     -10.594   3.830  68.916  0.00  0.00     0.086 H 
BRANCH  13  15
ATOM     15  N2  non d ame      -8.758   4.729  68.740  0.00  0.00    -0.343 N 
ATOM     16  C5  non d ame      -8.711   4.422  67.308  0.00  0.00     0.273 C 
ATOM     17  O2  non d ame      -9.681   4.041  66.752  0.00  0.00    -0.266 OA
ATOM     18  H5  non d ame      -7.932   5.052  69.224  0.00  0.00     0.163 HD
BRANCH  16  19
ATOM     19  C4  non d ame      -7.398   4.592  66.528  0.00  0.00     0.154 A 
ATOM     20  C1  non d ame      -7.104   5.578  65.533  0.00  0.00    -0.017 A 
ATOM     21  C2  non d ame      -5.778   5.304  65.131  0.00  0.00     0.077 A 
ATOM     22  H1  non d ame      -7.753   6.371  65.161  0.00  0.00     0.091 H 
ATOM     23  O1  non d ame      -5.367   4.281  65.821  0.00  0.00    -0.218 OA
ATOM     24  N1  non d ame      -6.295   3.847  66.643  0.00  0.00    -0.123 NA
BRANCH  21  25
ATOM     25  C3  non d ame      -4.978   6.069  64.084  0.00  0.00    -0.029 C 
ATOM     26  H2  non d ame      -3.976   5.646  64.012  0.00  0.00     0.036 H 
ATOM     27  H3  non d ame      -5.476   5.991  63.118  0.00  0.00     0.036 H 
ATOM     28  H4  non d ame      -4.910   7.118  64.374  0.00  0.00     0.036 H 
ENDBRANCH  21  25
ENDBRANCH  16  19
ENDBRANCH  13  15
BRANCH  13  29
ATOM     29  C8  non d ame      -9.732   4.032  70.850  0.00  0.00    -0.049 C 
ATOM     30  H7  non d ame      -9.051   4.706  71.370  0.00  0.00     0.030 H 
ATOM     31  H8  non d ame     -10.667   3.960  71.404  0.00  0.00     0.030 H 
ATOM     32  H9  non d ame      -9.277   3.044  70.774  0.00  0.00     0.030 H 
ENDBRANCH  13  29
ENDBRANCH  10  13
ENDBRANCH   7   9
BRANCH   7  33
ATOM     33  C11 non d ame     -11.325   8.474  72.171  0.00  0.00    -0.033 C 
ATOM     34  H12 non d ame     -10.792   9.372  72.478  0.00  0.00     0.042 H 
BRANCH  33  35
ATOM     35  C12 non d ame     -12.852   8.751  72.342  0.00  0.00    -0.071 C 
ATOM     36  H13 non d ame     -13.168   9.501  71.617  0.00  0.00     0.028 H 
ATOM     37  H14 non d ame     -13.409   7.830  72.178  0.00  0.00     0.028 H 
ATOM     38  H15 non d ame     -13.042   9.118  73.350  0.00  0.00     0.028 H 
ENDBRANCH  33  35
BRANCH  33  39
ATOM     39  C13 non d ame     -10.858   7.297  73.087  0.00  0.00    -0.071 C 
ATOM     40  H16 non d ame     -10.172   6.657  72.535  0.00  0.00     0.028 H 
ATOM     41  H17 non d ame     -10.352   7.700  73.966  0.00  0.00     0.028 H 
ATOM     42  H18 non d ame     -11.725   6.716  73.403  0.00  0.00     0.028 H 
ENDBRANCH  33  39
ENDBRANCH   7  33
ENDBRANCH   4   7
ENDBRANCH   1   3
BRANCH   1  43
ATOM     43  C15 non d ame     -10.333  12.350  68.188  0.00  0.00     0.240 C 
ATOM     44  O5  non d ame     -11.044  12.753  69.050  0.00  0.00    -0.271 OA
ATOM     45  N6  non d ame     -10.247  13.086  66.894  0.00  0.00    -0.355 N 
ATOM     46  H46 non d ame      -9.643  12.755  66.156  0.00  0.00     0.162 HD
BRANCH  45  47
ATOM     47  C20 non d ame     -11.054  14.308  66.691  0.00  0.00     0.013 C 
ATOM     48  H30 non d ame     -11.227  14.762  67.666  0.00  0.00     0.072 H 
BRANCH  47  49
ATOM     49  C21 non d ame     -12.374  13.936  66.054  0.00  0.00    -0.038 C 
ATOM     50  H31 non d ame     -13.047  13.713  66.881  0.00  0.00     0.036 H 
ATOM     51  H32 non d ame     -12.607  14.748  65.364  0.00  0.00     0.036 H 
BRANCH  49  52
ATOM     52  C22 non d ame     -12.287  12.651  65.202  0.00  0.00     0.018 C 
ATOM     53  H33 non d ame     -11.517  12.037  65.671  0.00  0.00     0.048 H 
ATOM     54  H34 non d ame     -13.308  12.279  65.124  0.00  0.00     0.048 H 
BRANCH  52  55
ATOM     55  C23 non d ame     -11.808  12.897  63.744  0.00  0.00     0.259 C 
ATOM     56  O7  non d ame     -12.391  13.653  63.037  0.00  0.00    -0.265 OA
BRANCH  55  57
ATOM     57  O8  non d ame     -10.670  12.196  63.257  0.00  0.00    -0.317 OA
BRANCH  57  58
ATOM     58  C29 non d ame     -10.456  10.928  63.884  0.00  0.00     0.052 C 
ATOM     59  H47 non d ame     -10.235  11.148  64.927  0.00  0.00     0.082 H 
ATOM     60  H48 non d ame     -11.324  10.322  63.626  0.00  0.00     0.082 H 
BRANCH  58  61
ATOM     61  C35 non d ame      -9.199  10.282  63.241  0.00  0.00    -0.034 A 
ATOM     62  C30 non d ame      -8.598  10.877  62.136  0.00  0.00    -0.075 A 
ATOM     63  C31 non d ame      -7.469  10.296  61.559  0.00  0.00    -0.082 A 
ATOM     64  H49 non d ame      -9.010  11.798  61.724  0.00  0.00     0.084 H 
ATOM     65  C32 non d ame      -6.944   9.114  62.088  0.00  0.00    -0.083 A 
ATOM     66  H50 non d ame      -6.998  10.767  60.696  0.00  0.00     0.083 H 
ATOM     67  C33 non d ame      -7.550   8.522  63.189  0.00  0.00    -0.082 A 
ATOM     68  H51 non d ame      -6.062   8.655  61.644  0.00  0.00     0.083 H 
ATOM     69  C34 non d ame      -8.677   9.101  63.770  0.00  0.00    -0.075 A 
ATOM     70  H52 non d ame      -7.139   7.599  63.598  0.00  0.00     0.083 H 
ATOM     71  H53 non d ame      -9.146   8.630  64.635  0.00  0.00     0.084 H 
ENDBRANCH  58  61
ENDBRANCH  57  58
ENDBRANCH  55  57
ENDBRANCH  52  55
ENDBRANCH  49  52
ENDBRANCH  47  49
BRANCH  47  72
ATOM     72  C24 non d ame     -10.302  15.277  65.780  0.00  0.00    -0.039 C 
ATOM     73  H35 non d ame      -9.511  14.686  65.318  0.00  0.00     0.036 H 
ATOM     74  H36 non d ame     -11.067  15.743  65.158  0.00  0.00     0.036 H 
BRANCH  72  75
ATOM     75  C25 non d ame      -9.593  16.446  66.614  0.00  0.00    -0.001 C 
ATOM     76  C26 non d ame      -9.975  16.309  68.207  0.00  0.00    -0.035 C 
ATOM     77  C27 non d ame     -10.430  17.505  68.651  0.00  0.00     0.085 C 
ATOM     78  H38 non d ame     -10.833  15.649  68.330  0.00  0.00     0.036 H 
ATOM     79  H39 non d ame      -9.073  16.145  68.795  0.00  0.00     0.036 H 
ATOM     80  N5  non d ame     -10.702  18.354  67.432  0.00  0.00    -0.049 N 
ATOM     81  H40 non d ame     -11.375  17.290  69.152  0.00  0.00     0.075 H 
ATOM     82  H41 non d ame      -9.603  17.941  69.210  0.00  0.00     0.075 H 
ATOM     83  C28 non d ame      -9.969  17.611  66.201  0.00  0.00     0.193 C 
ATOM     84  H42 non d ame     -11.699  18.324  67.279  0.00  0.00     0.280 HD
ATOM     85  H43 non d ame     -10.242  19.239  67.591  0.00  0.00     0.280 HD
ATOM     86  H44 non d ame      -9.030  17.993  65.802  0.00  0.00     0.129 H 
ATOM     87  H37 non d ame      -8.537  16.548  66.364  0.00  0.00     0.046 H 
BRANCH  83  88
ATOM     88  O6  non d ame     -10.852  17.525  65.080  0.00  0.00    -0.369 OA
ATOM     89  H45 non d ame     -11.761  17.522  65.389  0.00  0.00     0.212 HD
ENDBRANCH  83  88
ENDBRANCH  72  75
ENDBRANCH  47  72
ENDBRANCH  45  47
ENDBRANCH   1  43
BRANCH   1  90
ATOM     90  C16 non d ame      -8.874  10.614  67.103  0.00  0.00    -0.035 C 
ATOM     91  H21 non d ame      -9.336   9.651  66.881  0.00  0.00     0.037 H 
ATOM     92  H22 non d ame      -9.007  11.453  66.420  0.00  0.00     0.037 H 
BRANCH  90  93
ATOM     93  C17 non d ame      -7.336  10.355  67.188  0.00  0.00    -0.059 C 
ATOM     94  H23 non d ame      -6.871  10.841  66.331  0.00  0.00     0.038 H 
BRANCH  93  95
ATOM     95  C18 non d ame      -6.706  10.965  68.481  0.00  0.00    -0.073 C 
ATOM     96  H24 non d ame      -7.122  10.468  69.357  0.00  0.00     0.028 H 
ATOM     97  H25 non d ame      -5.625  10.821  68.461  0.00  0.00     0.028 H 
ATOM     98  H26 non d ame      -6.930  12.031  68.526  0.00  0.00     0.028 H 
ENDBRANCH  93  95
BRANCH  93  99
ATOM     99  C19 non d ame      -7.026   8.859  67.085  0.00  0.00    -0.073 C 
ATOM    100  H27 non d ame      -5.957   8.719  66.925  0.00  0.00     0.028 H 
ATOM    101  H28 non d ame      -7.324   8.363  68.009  0.00  0.00     0.028 H 
ATOM    102  H29 non d ame      -7.579   8.430  66.249  0.00  0.00     0.028 H 
ENDBRANCH  93  99
ENDBRANCH  90  93
ENDBRANCH   1  90
TORSDOF 26
ENDMDL
MODEL 12
REMARK VINA RESULT:      -6.1      2.552      7.485
REMARK  26 active torsions:
REMARK  status: ('A' for Active; 'I' for Inactive)
REMARK    1  A    between atoms: C2_2  and  C3_3 
REMARK    2  A    between atoms: C4_6  and  C5_7 
REMARK       I    between atoms: C5_7  and  N2_9 
REMARK    3  A    between atoms: N2_9  and  C6_10 
REMARK    4  A    between atoms: C6_10  and  C7_11 
REMARK    5  A    between atoms: C6_10  and  C8_13 
REMARK       I    between atoms: C7_11  and  N3_14 
REMARK    6  A    between atoms: N3_14  and  C9_15 
REMARK    7  A    between atoms: C9_15  and  C10_16 
REMARK    8  A    between atoms: C9_15  and  C11_18 
REMARK       I    between atoms: C10_16  and  N4_21 
REMARK    9  A    between atoms: C11_18  and  C12_19 
REMARK   10  A    between atoms: C11_18  and  C13_20 
REMARK   11  A    between atoms: N4_21  and  C14_22 
REMARK   12  A    between atoms: C14_22  and  C15_23 
REMARK   13  A    between atoms: C14_22  and  C16_25 
REMARK       I    between atoms: C15_23  and  N6_40 
REMARK   14  A    between atoms: C16_25  and  C17_26 
REMARK   15  A    between atoms: C17_26  and  C18_27 
REMARK   16  A    between atoms: C17_26  and  C19_28 
REMARK   17  A    between atoms: C20_29  and  C21_30 
REMARK   18  A    between atoms: C20_29  and  C24_33 
REMARK   19  A    between atoms: C20_29  and  N6_40 
REMARK   20  A    between atoms: C21_30  and  C22_31 
REMARK   21  A    between atoms: C22_31  and  C23_32 
REMARK   22  A    between atoms: C23_32  and  O8_43 
REMARK   23  A    between atoms: C24_33  and  C25_34 
REMARK   24  A    between atoms: C28_38  and  O6_39 
REMARK   25  A    between atoms: C29_42  and  O8_43 
REMARK   26  A    between atoms: C29_42  and  C35_49 
ROOT
ATOM      1  C14 non d ame      -9.272  10.233  66.895  0.00  0.00     0.089 C 
ATOM      2  H20 non d ame     -10.022   9.530  66.530  0.00  0.00     0.087 H 
ENDROOT
BRANCH   1   3
ATOM      3  N4  non d ame      -9.906  11.539  66.990  0.00  0.00    -0.346 N 
ATOM      4  C10 non d ame     -11.351  11.656  67.409  0.00  0.00     0.241 C 
ATOM      5  O4  non d ame     -11.983  10.683  67.662  0.00  0.00    -0.271 OA
ATOM      6  H19 non d ame      -9.353  12.354  66.769  0.00  0.00     0.163 HD
BRANCH   4   7
ATOM      7  C9  non d ame     -11.991  13.015  67.508  0.00  0.00     0.092 C 
ATOM      8  H11 non d ame     -12.959  12.922  67.999  0.00  0.00     0.088 H 
BRANCH   7   9
ATOM      9  N3  non d ame     -11.162  13.886  68.349  0.00  0.00    -0.346 N 
ATOM     10  C7  non d ame     -11.737  14.536  69.500  0.00  0.00     0.240 C 
ATOM     11  O3  non d ame     -12.866  14.371  69.765  0.00  0.00    -0.271 OA
ATOM     12  H10 non d ame     -10.187  14.038  68.132  0.00  0.00     0.163 HD
BRANCH  10  13
ATOM     13  C6  non d ame     -10.851  15.463  70.389  0.00  0.00     0.086 C 
ATOM     14  H6  non d ame      -9.909  14.997  70.677  0.00  0.00     0.086 H 
BRANCH  13  15
ATOM     15  N2  non d ame     -10.509  16.656  69.631  0.00  0.00    -0.343 N 
ATOM     16  C5  non d ame      -9.283  16.677  68.831  0.00  0.00     0.273 C 
ATOM     17  O2  non d ame      -8.576  15.730  68.807  0.00  0.00    -0.266 OA
ATOM     18  H5  non d ame     -11.118  17.462  69.660  0.00  0.00     0.163 HD
BRANCH  16  19
ATOM     19  C4  non d ame      -8.910  17.930  68.025  0.00  0.00     0.154 A 
ATOM     20  C1  non d ame      -7.914  18.038  67.003  0.00  0.00    -0.017 A 
ATOM     21  C2  non d ame      -7.967  19.385  66.584  0.00  0.00     0.077 A 
ATOM     22  H1  non d ame      -7.254  17.257  66.625  0.00  0.00     0.091 H 
ATOM     23  O1  non d ame      -8.891  19.973  67.286  0.00  0.00    -0.218 OA
ATOM     24  N1  non d ame      -9.456  19.145  68.134  0.00  0.00    -0.123 NA
BRANCH  21  25
ATOM     25  C3  non d ame      -7.104  20.028  65.506  0.00  0.00    -0.029 C 
ATOM     26  H2  non d ame      -6.730  20.987  65.864  0.00  0.00     0.036 H 
ATOM     27  H3  non d ame      -6.264  19.374  65.275  0.00  0.00     0.036 H 
ATOM     28  H4  non d ame      -7.702  20.184  64.607  0.00  0.00     0.036 H 
ENDBRANCH  21  25
ENDBRANCH  16  19
ENDBRANCH  13  15
BRANCH  13  29
ATOM     29  C8  non d ame     -11.608  15.843  71.635  0.00  0.00    -0.049 C 
ATOM     30  H7  non d ame     -12.202  16.737  71.441  0.00  0.00     0.030 H 
ATOM     31  H8  non d ame     -12.267  15.025  71.925  0.00  0.00     0.030 H 
ATOM     32  H9  non d ame     -10.903  16.045  72.442  0.00  0.00     0.030 H 
ENDBRANCH  13  29
ENDBRANCH  10  13
ENDBRANCH   7   9
BRANCH   7  33
ATOM     33  C11 non d ame     -12.112  13.636  66.085  0.00  0.00    -0.033 C 
ATOM     34  H12 non d ame     -12.978  14.297  66.088  0.00  0.00     0.042 H 
BRANCH  33  35
ATOM     35  C12 non d ame     -10.862  14.500  65.733  0.00  0.00    -0.071 C 
ATOM     36  H13 non d ame     -10.044  14.248  66.408  0.00  0.00     0.028 H 
ATOM     37  H14 non d ame     -10.560  14.301  64.706  0.00  0.00     0.028 H 
ATOM     38  H15 non d ame     -11.109  15.555  65.842  0.00  0.00     0.028 H 
ENDBRANCH  33  35
BRANCH  33  39
ATOM     39  C13 non d ame     -12.354  12.527  65.011  0.00  0.00    -0.071 C 
ATOM     40  H16 non d ame     -13.132  12.852  64.322  0.00  0.00     0.028 H 
ATOM     41  H17 non d ame     -11.430  12.350  64.458  0.00  0.00     0.028 H 
ATOM     42  H18 non d ame     -12.665  11.605  65.503  0.00  0.00     0.028 H 
ENDBRANCH  33  39
ENDBRANCH   7  33
ENDBRANCH   4   7
ENDBRANCH   1   3
BRANCH   1  43
ATOM     43  C15 non d ame      -8.734   9.841  68.300  0.00  0.00     0.240 C 
ATOM     44  O5  non d ame      -7.642  10.173  68.629  0.00  0.00    -0.271 OA
ATOM     45  N6  non d ame      -9.586   9.059  69.242  0.00  0.00    -0.355 N 
ATOM     46  H46 non d ame     -10.517   8.775  68.975  0.00  0.00     0.162 HD
BRANCH  45  47
ATOM     47  C20 non d ame      -9.060   8.694  70.575  0.00  0.00     0.013 C 
ATOM     48  H30 non d ame      -8.204   9.336  70.785  0.00  0.00     0.072 H 
BRANCH  47  49
ATOM     49  C21 non d ame      -8.629   7.245  70.564  0.00  0.00    -0.038 C 
ATOM     50  H31 non d ame      -7.710   7.216  69.980  0.00  0.00     0.036 H 
ATOM     51  H32 non d ame      -8.621   6.932  71.609  0.00  0.00     0.036 H 
BRANCH  49  52
ATOM     52  C22 non d ame      -9.636   6.326  69.840  0.00  0.00     0.018 C 
ATOM     53  H33 non d ame      -9.844   5.510  70.533  0.00  0.00     0.048 H 
ATOM     54  H34 non d ame     -10.445   6.977  69.508  0.00  0.00     0.048 H 
BRANCH  52  55
ATOM     55  C23 non d ame      -9.067   5.661  68.556  0.00  0.00     0.259 C 
ATOM     56  O7  non d ame      -9.152   4.486  68.397  0.00  0.00    -0.265 OA
BRANCH  55  57
ATOM     57  O8  non d ame      -8.428   6.471  67.576  0.00  0.00    -0.317 OA
BRANCH  57  58
ATOM     58  C29 non d ame      -7.129   6.007  67.195  0.00  0.00     0.052 C 
ATOM     59  H47 non d ame      -6.434   6.780  67.519  0.00  0.00     0.082 H 
ATOM     60  H48 non d ame      -7.047   4.998  67.597  0.00  0.00     0.082 H 
BRANCH  58  61
ATOM     61  C35 non d ame      -7.087   5.924  65.646  0.00  0.00    -0.034 A 
ATOM     62  C30 non d ame      -5.872   6.022  64.975  0.00  0.00    -0.075 A 
ATOM     63  C31 non d ame      -5.834   5.947  63.584  0.00  0.00    -0.082 A 
ATOM     64  H49 non d ame      -4.949   6.158  65.540  0.00  0.00     0.084 H 
ATOM     65  C32 non d ame      -7.018   5.777  62.862  0.00  0.00    -0.083 A 
ATOM     66  H50 non d ame      -4.880   6.022  63.062  0.00  0.00     0.083 H 
ATOM     67  C33 non d ame      -8.229   5.682  63.535  0.00  0.00    -0.082 A 
ATOM     68  H51 non d ame      -6.998   5.716  61.774  0.00  0.00     0.083 H 
ATOM     69  C34 non d ame      -8.271   5.754  64.926  0.00  0.00    -0.075 A 
ATOM     70  H52 non d ame      -9.152   5.551  62.968  0.00  0.00     0.083 H 
ATOM     71  H53 non d ame      -9.226   5.678  65.447  0.00  0.00     0.084 H 
ENDBRANCH  58  61
ENDBRANCH  57  58
ENDBRANCH  55  57
ENDBRANCH  52  55
ENDBRANCH  49  52
ENDBRANCH  47  49
BRANCH  47  72
ATOM     72  C24 non d ame     -10.146   8.896  71.630  0.00  0.00    -0.039 C 
ATOM     73  H35 non d ame     -10.207   7.949  72.167  0.00  0.00     0.036 H 
ATOM     74  H36 non d ame      -9.869   9.806  72.162  0.00  0.00     0.036 H 
BRANCH  72  75
ATOM     75  C25 non d ame     -11.580   9.155  70.964  0.00  0.00    -0.001 C 
ATOM     76  C26 non d ame     -11.953  10.755  71.045  0.00  0.00    -0.035 C 
ATOM     77  C27 non d ame     -13.189  10.888  71.585  0.00  0.00     0.085 C 
ATOM     78  H38 non d ame     -11.306  11.254  71.765  0.00  0.00     0.036 H 
ATOM     79  H39 non d ame     -12.068  11.163  70.041  0.00  0.00     0.036 H 
ATOM     80  N5  non d ame     -13.556   9.549  72.180  0.00  0.00    -0.049 N 
ATOM     81  H40 non d ame     -13.079  11.616  72.389  0.00  0.00     0.075 H 
ATOM     82  H41 non d ame     -13.851  11.097  70.746  0.00  0.00     0.075 H 
ATOM     83  C28 non d ame     -12.505   8.487  71.569  0.00  0.00     0.193 C 
ATOM     84  H42 non d ame     -13.397   9.624  73.173  0.00  0.00     0.280 HD
ATOM     85  H43 non d ame     -14.478   9.325  71.831  0.00  0.00     0.280 HD
ATOM     86  H44 non d ame     -12.806   7.803  70.776  0.00  0.00     0.129 H 
ATOM     87  H37 non d ame     -11.677   8.672  69.992  0.00  0.00     0.046 H 
BRANCH  83  88
ATOM     88  O6  non d ame     -11.979   7.660  72.608  0.00  0.00    -0.369 OA
ATOM     89  H45 non d ame     -11.460   6.951  72.221  0.00  0.00     0.212 HD
ENDBRANCH  83  88
ENDBRANCH  72  75
ENDBRANCH  47  72
ENDBRANCH  45  47
ENDBRANCH   1  43
BRANCH   1  90
ATOM     90  C16 non d ame      -8.118  10.313  65.909  0.00  0.00    -0.035 C 
ATOM     91  H21 non d ame      -8.035  11.369  65.647  0.00  0.00     0.037 H 
ATOM     92  H22 non d ame      -7.286   9.806  66.397  0.00  0.00     0.037 H 
BRANCH  90  93
ATOM     93  C17 non d ame      -8.379   9.547  64.574  0.00  0.00    -0.059 C 
ATOM     94  H23 non d ame      -8.669   8.528  64.829  0.00  0.00     0.038 H 
BRANCH  93  95
ATOM     95  C18 non d ame      -9.544  10.181  63.748  0.00  0.00    -0.073 C 
ATOM     96  H24 non d ame      -9.141  10.930  63.067  0.00  0.00     0.028 H 
ATOM     97  H25 non d ame     -10.049   9.403  63.176  0.00  0.00     0.028 H 
ATOM     98  H26 non d ame     -10.256  10.652  64.427  0.00  0.00     0.028 H 
ENDBRANCH  93  95
BRANCH  93  99
ATOM     99  C19 non d ame      -7.102   9.459  63.734  0.00  0.00    -0.073 C 
ATOM    100  H27 non d ame      -7.363   9.459  62.675  0.00  0.00     0.028 H 
ATOM    101  H28 non d ame      -6.465  10.316  63.952  0.00  0.00     0.028 H 
ATOM    102  H29 non d ame      -6.569   8.540  63.978  0.00  0.00     0.028 H 
ENDBRANCH  93  99
ENDBRANCH  90  93
ENDBRANCH   1  90
TORSDOF 26
ENDMDL
MODEL 13
REMARK VINA RESULT:      -6.1      3.384      6.948
REMARK  26 active torsions:
REMARK  status: ('A' for Active; 'I' for Inactive)
REMARK    1  A    between atoms: C2_2  and  C3_3 
REMARK    2  A    between atoms: C4_6  and  C5_7 
REMARK       I    between atoms: C5_7  and  N2_9 
REMARK    3  A    between atoms: N2_9  and  C6_10 
REMARK    4  A    between atoms: C6_10  and  C7_11 
REMARK    5  A    between atoms: C6_10  and  C8_13 
REMARK       I    between atoms: C7_11  and  N3_14 
REMARK    6  A    between atoms: N3_14  and  C9_15 
REMARK    7  A    between atoms: C9_15  and  C10_16 
REMARK    8  A    between atoms: C9_15  and  C11_18 
REMARK       I    between atoms: C10_16  and  N4_21 
REMARK    9  A    between atoms: C11_18  and  C12_19 
REMARK   10  A    between atoms: C11_18  and  C13_20 
REMARK   11  A    between atoms: N4_21  and  C14_22 
REMARK   12  A    between atoms: C14_22  and  C15_23 
REMARK   13  A    between atoms: C14_22  and  C16_25 
REMARK       I    between atoms: C15_23  and  N6_40 
REMARK   14  A    between atoms: C16_25  and  C17_26 
REMARK   15  A    between atoms: C17_26  and  C18_27 
REMARK   16  A    between atoms: C17_26  and  C19_28 
REMARK   17  A    between atoms: C20_29  and  C21_30 
REMARK   18  A    between atoms: C20_29  and  C24_33 
REMARK   19  A    between atoms: C20_29  and  N6_40 
REMARK   20  A    between atoms: C21_30  and  C22_31 
REMARK   21  A    between atoms: C22_31  and  C23_32 
REMARK   22  A    between atoms: C23_32  and  O8_43 
REMARK   23  A    between atoms: C24_33  and  C25_34 
REMARK   24  A    between atoms: C28_38  and  O6_39 
REMARK   25  A    between atoms: C29_42  and  O8_43 
REMARK   26  A    between atoms: C29_42  and  C35_49 
ROOT
ATOM      1  C14 non d ame     -10.987   7.983  70.083  0.00  0.00     0.089 C 
ATOM      2  H20 non d ame     -11.958   7.584  69.786  0.00  0.00     0.087 H 
ENDROOT
BRANCH   1   3
ATOM      3  N4  non d ame     -10.012   6.912  69.946  0.00  0.00    -0.346 N 
ATOM      4  C10 non d ame     -10.241   5.795  68.957  0.00  0.00     0.241 C 
ATOM      5  O4  non d ame     -11.219   5.781  68.284  0.00  0.00    -0.271 OA
ATOM      6  H19 non d ame      -9.188   6.941  70.529  0.00  0.00     0.163 HD
BRANCH   4   7
ATOM      7  C9  non d ame      -9.219   4.697  68.824  0.00  0.00     0.092 C 
ATOM      8  H11 non d ame      -9.702   3.804  68.425  0.00  0.00     0.088 H 
BRANCH   7   9
ATOM      9  N3  non d ame      -8.190   5.100  67.860  0.00  0.00    -0.346 N 
ATOM     10  C7  non d ame      -8.259   4.637  66.497  0.00  0.00     0.240 C 
ATOM     11  O3  non d ame      -9.135   3.939  66.156  0.00  0.00    -0.271 OA
ATOM     12  H10 non d ame      -7.428   5.702  68.139  0.00  0.00     0.163 HD
BRANCH  10  13
ATOM     13  C6  non d ame      -7.159   5.067  65.476  0.00  0.00     0.086 C 
ATOM     14  H6  non d ame      -7.088   4.392  64.623  0.00  0.00     0.086 H 
BRANCH  13  15
ATOM     15  N2  non d ame      -7.497   6.377  64.943  0.00  0.00    -0.343 N 
ATOM     16  C5  non d ame      -7.344   6.634  63.509  0.00  0.00     0.273 C 
ATOM     17  O2  non d ame      -6.946   5.782  62.795  0.00  0.00    -0.266 OA
ATOM     18  H5  non d ame      -7.835   7.100  65.562  0.00  0.00     0.163 HD
BRANCH  16  19
ATOM     19  C4  non d ame      -7.699   8.013  62.932  0.00  0.00     0.154 A 
ATOM     20  C1  non d ame      -6.799   8.973  62.369  0.00  0.00    -0.017 A 
ATOM     21  C2  non d ame      -7.618  10.059  61.990  0.00  0.00     0.077 A 
ATOM     22  H1  non d ame      -5.718   8.892  62.254  0.00  0.00     0.091 H 
ATOM     23  O1  non d ame      -8.842   9.749  62.300  0.00  0.00    -0.218 OA
ATOM     24  N1  non d ame      -8.915   8.560  62.852  0.00  0.00    -0.123 NA
BRANCH  21  25
ATOM     25  C3  non d ame      -7.151  11.353  61.336  0.00  0.00    -0.029 C 
ATOM     26  H2  non d ame      -7.035  11.197  60.263  0.00  0.00     0.036 H 
ATOM     27  H3  non d ame      -7.889  12.135  61.511  0.00  0.00     0.036 H 
ATOM     28  H4  non d ame      -6.194  11.654  61.765  0.00  0.00     0.036 H 
ENDBRANCH  21  25
ENDBRANCH  16  19
ENDBRANCH  13  15
BRANCH  13  29
ATOM     29  C8  non d ame      -5.821   5.122  66.169  0.00  0.00    -0.049 C 
ATOM     30  H7  non d ame      -5.645   6.132  66.540  0.00  0.00     0.030 H 
ATOM     31  H8  non d ame      -5.814   4.421  67.003  0.00  0.00     0.030 H 
ATOM     32  H9  non d ame      -5.036   4.854  65.462  0.00  0.00     0.030 H 
ENDBRANCH  13  29
ENDBRANCH  10  13
ENDBRANCH   7   9
BRANCH   7  33
ATOM     33  C11 non d ame      -8.557   4.435  70.208  0.00  0.00    -0.033 C 
ATOM     34  H12 non d ame      -8.649   5.348  70.795  0.00  0.00     0.042 H 
BRANCH  33  35
ATOM     35  C12 non d ame      -9.293   3.300  70.985  0.00  0.00    -0.071 C 
ATOM     36  H13 non d ame     -10.031   2.832  70.333  0.00  0.00     0.028 H 
ATOM     37  H14 non d ame      -8.569   2.554  71.310  0.00  0.00     0.028 H 
ATOM     38  H15 non d ame      -9.794   3.724  71.855  0.00  0.00     0.028 H 
ENDBRANCH  33  35
BRANCH  33  39
ATOM     39  C13 non d ame      -7.035   4.116  70.048  0.00  0.00    -0.071 C 
ATOM     40  H16 non d ame      -6.911   3.266  69.377  0.00  0.00     0.028 H 
ATOM     41  H17 non d ame      -6.523   4.984  69.632  0.00  0.00     0.028 H 
ATOM     42  H18 non d ame      -6.610   3.875  71.022  0.00  0.00     0.028 H 
ENDBRANCH  33  39
ENDBRANCH   7  33
ENDBRANCH   4   7
ENDBRANCH   1   3
BRANCH   1  43
ATOM     43  C15 non d ame     -10.542   9.174  69.187  0.00  0.00     0.240 C 
ATOM     44  O5  non d ame      -9.429   9.220  68.775  0.00  0.00    -0.271 OA
ATOM     45  N6  non d ame     -11.509  10.253  68.834  0.00  0.00    -0.355 N 
ATOM     46  H46 non d ame     -12.458  10.222  69.174  0.00  0.00     0.162 HD
BRANCH  45  47
ATOM     47  C20 non d ame     -11.070  11.378  67.980  0.00  0.00     0.013 C 
ATOM     48  H30 non d ame      -9.999  11.516  68.129  0.00  0.00     0.072 H 
BRANCH  47  49
ATOM     49  C21 non d ame     -11.813  12.632  68.384  0.00  0.00    -0.038 C 
ATOM     50  H31 non d ame     -11.169  13.462  68.094  0.00  0.00     0.036 H 
ATOM     51  H32 non d ame     -12.809  12.537  67.949  0.00  0.00     0.036 H 
BRANCH  49  52
ATOM     52  C22 non d ame     -12.012  12.745  69.911  0.00  0.00     0.018 C 
ATOM     53  H33 non d ame     -13.014  12.363  70.108  0.00  0.00     0.048 H 
ATOM     54  H34 non d ame     -11.146  12.257  70.358  0.00  0.00     0.048 H 
BRANCH  52  55
ATOM     55  C23 non d ame     -12.000  14.207  70.438  0.00  0.00     0.259 C 
ATOM     56  O7  non d ame     -12.909  14.623  71.080  0.00  0.00    -0.265 OA
BRANCH  55  57
ATOM     57  O8  non d ame     -10.895  15.049  70.132  0.00  0.00    -0.317 OA
BRANCH  57  58
ATOM     58  C29 non d ame     -11.251  16.242  69.427  0.00  0.00     0.052 C 
ATOM     59  H47 non d ame     -12.239  16.054  69.009  0.00  0.00     0.082 H 
ATOM     60  H48 non d ame     -11.106  17.057  70.136  0.00  0.00     0.082 H 
BRANCH  58  61
ATOM     61  C35 non d ame     -10.247  16.425  68.258  0.00  0.00    -0.034 A 
ATOM     62  C30 non d ame      -9.838  15.324  67.512  0.00  0.00    -0.075 A 
ATOM     63  C31 non d ame      -8.936  15.489  66.462  0.00  0.00    -0.082 A 
ATOM     64  H49 non d ame     -10.225  14.333  67.749  0.00  0.00     0.084 H 
ATOM     65  C32 non d ame      -8.440  16.760  66.161  0.00  0.00    -0.083 A 
ATOM     66  H50 non d ame      -8.621  14.624  65.877  0.00  0.00     0.083 H 
ATOM     67  C33 non d ame      -8.848  17.855  66.911  0.00  0.00    -0.082 A 
ATOM     68  H51 non d ame      -7.735  16.897  65.341  0.00  0.00     0.083 H 
ATOM     69  C34 non d ame      -9.751  17.695  67.960  0.00  0.00    -0.075 A 
ATOM     70  H52 non d ame      -8.457  18.845  66.674  0.00  0.00     0.083 H 
ATOM     71  H53 non d ame     -10.067  18.561  68.543  0.00  0.00     0.084 H 
ENDBRANCH  58  61
ENDBRANCH  57  58
ENDBRANCH  55  57
ENDBRANCH  52  55
ENDBRANCH  49  52
ENDBRANCH  47  49
BRANCH  47  72
ATOM     72  C24 non d ame     -11.365  11.059  66.516  0.00  0.00    -0.039 C 
ATOM     73  H35 non d ame     -10.709  10.226  66.263  0.00  0.00     0.036 H 
ATOM     74  H36 non d ame     -12.447  10.937  66.457  0.00  0.00     0.036 H 
BRANCH  72  75
ATOM     75  C25 non d ame     -10.974  12.278  65.552  0.00  0.00    -0.001 C 
ATOM     76  C26 non d ame     -12.300  12.779  64.718  0.00  0.00    -0.035 C 
ATOM     77  C27 non d ame     -11.992  12.825  63.399  0.00  0.00     0.085 C 
ATOM     78  H38 non d ame     -13.082  12.023  64.770  0.00  0.00     0.036 H 
ATOM     79  H39 non d ame     -12.526  13.816  64.963  0.00  0.00     0.036 H 
ATOM     80  N5  non d ame     -10.684  12.091  63.225  0.00  0.00    -0.049 N 
ATOM     81  H40 non d ame     -12.783  12.268  62.896  0.00  0.00     0.075 H 
ATOM     82  H41 non d ame     -11.840  13.880  63.173  0.00  0.00     0.075 H 
ATOM     83  C28 non d ame     -10.062  11.933  64.706  0.00  0.00     0.193 C 
ATOM     84  H42 non d ame     -10.916  11.173  62.873  0.00  0.00     0.280 HD
ATOM     85  H43 non d ame     -10.084  12.700  62.688  0.00  0.00     0.280 HD
ATOM     86  H44 non d ame      -9.238  12.567  65.032  0.00  0.00     0.129 H 
ATOM     87  H37 non d ame     -10.396  13.044  66.070  0.00  0.00     0.046 H 
BRANCH  83  88
ATOM     88  O6  non d ame      -9.616  10.591  64.913  0.00  0.00    -0.369 OA
ATOM     89  H45 non d ame      -9.926  10.037  64.193  0.00  0.00     0.212 HD
ENDBRANCH  83  88
ENDBRANCH  72  75
ENDBRANCH  47  72
ENDBRANCH  45  47
ENDBRANCH   1  43
BRANCH   1  90
ATOM     90  C16 non d ame     -11.035   8.427  71.536  0.00  0.00    -0.035 C 
ATOM     91  H21 non d ame     -10.480   7.667  72.088  0.00  0.00     0.037 H 
ATOM     92  H22 non d ame     -10.690   9.460  71.534  0.00  0.00     0.037 H 
BRANCH  90  93
ATOM     93  C17 non d ame     -12.476   8.444  72.139  0.00  0.00    -0.059 C 
ATOM     94  H23 non d ame     -12.391   8.232  73.204  0.00  0.00     0.038 H 
BRANCH  93  95
ATOM     95  C18 non d ame     -13.163   9.839  71.984  0.00  0.00    -0.073 C 
ATOM     96  H24 non d ame     -13.054  10.185  70.957  0.00  0.00     0.028 H 
ATOM     97  H25 non d ame     -14.222   9.750  72.227  0.00  0.00     0.028 H 
ATOM     98  H26 non d ame     -12.693  10.552  72.662  0.00  0.00     0.028 H 
ENDBRANCH  93  95
BRANCH  93  99
ATOM     99  C19 non d ame     -13.340   7.340  71.524  0.00  0.00    -0.073 C 
ATOM    100  H27 non d ame     -13.835   7.721  70.630  0.00  0.00     0.028 H 
ATOM    101  H28 non d ame     -12.709   6.492  71.257  0.00  0.00     0.028 H 
ATOM    102  H29 non d ame     -14.090   7.020  72.247  0.00  0.00     0.028 H 
ENDBRANCH  93  99
ENDBRANCH  90  93
ENDBRANCH   1  90
TORSDOF 26
ENDMDL
MODEL 14
REMARK VINA RESULT:      -6.1      3.119      7.150
REMARK  26 active torsions:
REMARK  status: ('A' for Active; 'I' for Inactive)
REMARK    1  A    between atoms: C2_2  and  C3_3 
REMARK    2  A    between atoms: C4_6  and  C5_7 
REMARK       I    between atoms: C5_7  and  N2_9 
REMARK    3  A    between atoms: N2_9  and  C6_10 
REMARK    4  A    between atoms: C6_10  and  C7_11 
REMARK    5  A    between atoms: C6_10  and  C8_13 
REMARK       I    between atoms: C7_11  and  N3_14 
REMARK    6  A    between atoms: N3_14  and  C9_15 
REMARK    7  A    between atoms: C9_15  and  C10_16 
REMARK    8  A    between atoms: C9_15  and  C11_18 
REMARK       I    between atoms: C10_16  and  N4_21 
REMARK    9  A    between atoms: C11_18  and  C12_19 
REMARK   10  A    between atoms: C11_18  and  C13_20 
REMARK   11  A    between atoms: N4_21  and  C14_22 
REMARK   12  A    between atoms: C14_22  and  C15_23 
REMARK   13  A    between atoms: C14_22  and  C16_25 
REMARK       I    between atoms: C15_23  and  N6_40 
REMARK   14  A    between atoms: C16_25  and  C17_26 
REMARK   15  A    between atoms: C17_26  and  C18_27 
REMARK   16  A    between atoms: C17_26  and  C19_28 
REMARK   17  A    between atoms: C20_29  and  C21_30 
REMARK   18  A    between atoms: C20_29  and  C24_33 
REMARK   19  A    between atoms: C20_29  and  N6_40 
REMARK   20  A    between atoms: C21_30  and  C22_31 
REMARK   21  A    between atoms: C22_31  and  C23_32 
REMARK   22  A    between atoms: C23_32  and  O8_43 
REMARK   23  A    between atoms: C24_33  and  C25_34 
REMARK   24  A    between atoms: C28_38  and  O6_39 
REMARK   25  A    between atoms: C29_42  and  O8_43 
REMARK   26  A    between atoms: C29_42  and  C35_49 
ROOT
ATOM      1  C14 non d ame     -10.712   8.818  69.387  0.00  0.00     0.089 C 
ATOM      2  H20 non d ame     -11.741   8.459  69.350  0.00  0.00     0.087 H 
ENDROOT
BRANCH   1   3
ATOM      3  N4  non d ame      -9.840   7.654  69.343  0.00  0.00    -0.346 N 
ATOM      4  C10 non d ame     -10.424   6.268  69.223  0.00  0.00     0.241 C 
ATOM      5  O4  non d ame     -11.600   6.116  69.167  0.00  0.00    -0.271 OA
ATOM      6  H19 non d ame      -8.842   7.805  69.394  0.00  0.00     0.163 HD
BRANCH   4   7
ATOM      7  C9  non d ame      -9.506   5.075  69.173  0.00  0.00     0.092 C 
ATOM      8  H11 non d ame     -10.022   4.246  68.689  0.00  0.00     0.088 H 
BRANCH   7   9
ATOM      9  N3  non d ame      -8.334   5.394  68.352  0.00  0.00    -0.346 N 
ATOM     10  C7  non d ame      -8.108   4.691  67.115  0.00  0.00     0.240 C 
ATOM     11  O3  non d ame      -8.858   3.864  66.762  0.00  0.00    -0.271 OA
ATOM     12  H10 non d ame      -7.677   6.104  68.643  0.00  0.00     0.163 HD
BRANCH  10  13
ATOM     13  C6  non d ame      -6.856   5.033  66.247  0.00  0.00     0.086 C 
ATOM     14  H6  non d ame      -6.741   4.368  65.391  0.00  0.00     0.086 H 
BRANCH  13  15
ATOM     15  N2  non d ame      -7.006   6.377  65.713  0.00  0.00    -0.343 N 
ATOM     16  C5  non d ame      -6.701   6.631  64.303  0.00  0.00     0.273 C 
ATOM     17  O2  non d ame      -6.333   5.749  63.609  0.00  0.00    -0.266 OA
ATOM     18  H5  non d ame      -7.319   7.125  66.315  0.00  0.00     0.163 HD
BRANCH  16  19
ATOM     19  C4  non d ame      -6.856   8.046  63.725  0.00  0.00     0.154 A 
ATOM     20  C1  non d ame      -7.467   8.412  62.484  0.00  0.00    -0.017 A 
ATOM     21  C2  non d ame      -7.354   9.818  62.423  0.00  0.00     0.077 A 
ATOM     22  H1  non d ame      -7.924   7.756  61.741  0.00  0.00     0.091 H 
ATOM     23  O1  non d ame      -6.750  10.206  63.508  0.00  0.00    -0.218 OA
ATOM     24  N1  non d ame      -6.449   9.190  64.284  0.00  0.00    -0.123 NA
BRANCH  21  25
ATOM     25  C3  non d ame      -7.851  10.714  61.296  0.00  0.00    -0.029 C 
ATOM     26  H2  non d ame      -8.932  10.830  61.372  0.00  0.00     0.036 H 
ATOM     27  H3  non d ame      -7.375  11.692  61.372  0.00  0.00     0.036 H 
ATOM     28  H4  non d ame      -7.600  10.263  60.335  0.00  0.00     0.036 H 
ENDBRANCH  21  25
ENDBRANCH  16  19
ENDBRANCH  13  15
BRANCH  13  29
ATOM     29  C8  non d ame      -5.614   4.951  67.097  0.00  0.00    -0.049 C 
ATOM     30  H7  non d ame      -5.386   3.906  67.308  0.00  0.00     0.030 H 
ATOM     31  H8  non d ame      -4.778   5.405  66.566  0.00  0.00     0.030 H 
ATOM     32  H9  non d ame      -5.781   5.481  68.035  0.00  0.00     0.030 H 
ENDBRANCH  13  29
ENDBRANCH  10  13
ENDBRANCH   7   9
BRANCH   7  33
ATOM     33  C11 non d ame      -9.045   4.715  70.615  0.00  0.00    -0.033 C 
ATOM     34  H12 non d ame      -8.787   3.657  70.624  0.00  0.00     0.042 H 
BRANCH  33  35
ATOM     35  C12 non d ame      -7.766   5.514  71.019  0.00  0.00    -0.071 C 
ATOM     36  H13 non d ame      -8.028   6.269  71.760  0.00  0.00     0.028 H 
ATOM     37  H14 non d ame      -7.029   4.832  71.441  0.00  0.00     0.028 H 
ATOM     38  H15 non d ame      -7.350   6.000  70.137  0.00  0.00     0.028 H 
ENDBRANCH  33  35
BRANCH  33  39
ATOM     39  C13 non d ame     -10.199   4.939  71.644  0.00  0.00    -0.071 C 
ATOM     40  H16 non d ame     -10.398   6.006  71.741  0.00  0.00     0.028 H 
ATOM     41  H17 non d ame     -11.100   4.432  71.296  0.00  0.00     0.028 H 
ATOM     42  H18 non d ame      -9.907   4.535  72.613  0.00  0.00     0.028 H 
ENDBRANCH  33  39
ENDBRANCH   7  33
ENDBRANCH   4   7
ENDBRANCH   1   3
BRANCH   1  43
ATOM     43  C15 non d ame     -10.368   9.740  68.184  0.00  0.00     0.240 C 
ATOM     44  O5  non d ame     -10.187   9.267  67.109  0.00  0.00    -0.271 OA
ATOM     45  N6  non d ame     -10.273  11.217  68.369  0.00  0.00    -0.355 N 
ATOM     46  H46 non d ame     -10.429  11.631  69.276  0.00  0.00     0.162 HD
BRANCH  45  47
ATOM     47  C20 non d ame      -9.945  12.081  67.214  0.00  0.00     0.013 C 
ATOM     48  H30 non d ame      -9.498  11.454  66.443  0.00  0.00     0.072 H 
BRANCH  47  49
ATOM     49  C21 non d ame      -8.963  13.145  67.648  0.00  0.00    -0.038 C 
ATOM     50  H31 non d ame      -8.812  12.989  68.716  0.00  0.00     0.036 H 
ATOM     51  H32 non d ame      -8.120  13.066  66.961  0.00  0.00     0.036 H 
BRANCH  49  52
ATOM     52  C22 non d ame      -9.522  14.576  67.491  0.00  0.00     0.018 C 
ATOM     53  H33 non d ame      -9.138  14.940  66.537  0.00  0.00     0.048 H 
ATOM     54  H34 non d ame     -10.597  14.492  67.649  0.00  0.00     0.048 H 
BRANCH  52  55
ATOM     55  C23 non d ame      -9.007  15.572  68.567  0.00  0.00     0.259 C 
ATOM     56  O7  non d ame      -8.050  16.244  68.357  0.00  0.00    -0.265 OA
BRANCH  55  57
ATOM     57  O8  non d ame      -9.685  15.662  69.814  0.00  0.00    -0.317 OA
BRANCH  57  58
ATOM     58  C29 non d ame     -11.019  16.170  69.715  0.00  0.00     0.052 C 
ATOM     59  H47 non d ame     -10.938  17.245  69.873  0.00  0.00     0.082 H 
ATOM     60  H48 non d ame     -11.411  15.786  68.774  0.00  0.00     0.082 H 
BRANCH  58  61
ATOM     61  C35 non d ame     -11.849  15.563  70.877  0.00  0.00    -0.034 A 
ATOM     62  C30 non d ame     -12.465  14.326  70.722  0.00  0.00    -0.075 A 
ATOM     63  C31 non d ame     -13.211  13.781  71.767  0.00  0.00    -0.082 A 
ATOM     64  H49 non d ame     -12.362  13.782  69.783  0.00  0.00     0.084 H 
ATOM     65  C32 non d ame     -13.343  14.481  72.969  0.00  0.00    -0.083 A 
ATOM     66  H50 non d ame     -13.689  12.809  71.643  0.00  0.00     0.083 H 
ATOM     67  C33 non d ame     -12.730  15.718  73.118  0.00  0.00    -0.082 A 
ATOM     68  H51 non d ame     -13.924  14.062  73.790  0.00  0.00     0.083 H 
ATOM     69  C34 non d ame     -11.982  16.265  72.077  0.00  0.00    -0.075 A 
ATOM     70  H52 non d ame     -12.837  16.262  74.057  0.00  0.00     0.083 H 
ATOM     71  H53 non d ame     -11.502  17.236  72.203  0.00  0.00     0.084 H 
ENDBRANCH  58  61
ENDBRANCH  57  58
ENDBRANCH  55  57
ENDBRANCH  52  55
ENDBRANCH  49  52
ENDBRANCH  47  49
BRANCH  47  72
ATOM     72  C24 non d ame     -11.217  12.743  66.689  0.00  0.00    -0.039 C 
ATOM     73  H35 non d ame     -11.956  12.620  67.480  0.00  0.00     0.036 H 
ATOM     74  H36 non d ame     -10.915  13.744  66.377  0.00  0.00     0.036 H 
BRANCH  72  75
ATOM     75  C25 non d ame     -11.783  11.995  65.391  0.00  0.00    -0.001 C 
ATOM     76  C26 non d ame     -10.536  11.413  64.491  0.00  0.00    -0.035 C 
ATOM     77  C27 non d ame     -10.694  11.822  63.210  0.00  0.00     0.085 C 
ATOM     78  H38 non d ame      -9.603  11.885  64.796  0.00  0.00     0.036 H 
ATOM     79  H39 non d ame     -10.600  10.327  64.421  0.00  0.00     0.036 H 
ATOM     80  N5  non d ame     -11.753  12.898  63.218  0.00  0.00    -0.049 N 
ATOM     81  H40 non d ame      -9.739  12.266  62.925  0.00  0.00     0.075 H 
ATOM     82  H41 non d ame     -11.074  10.955  62.672  0.00  0.00     0.075 H 
ATOM     83  C28 non d ame     -12.481  12.795  64.655  0.00  0.00     0.193 C 
ATOM     84  H42 non d ame     -11.265  13.780  63.167  0.00  0.00     0.280 HD
ATOM     85  H43 non d ame     -12.421  12.648  62.502  0.00  0.00     0.280 HD
ATOM     86  H44 non d ame     -13.467  12.340  64.747  0.00  0.00     0.129 H 
ATOM     87  H37 non d ame     -12.586  11.299  65.634  0.00  0.00     0.046 H 
BRANCH  83  88
ATOM     88  O6  non d ame     -12.604  14.093  65.240  0.00  0.00    -0.369 OA
ATOM     89  H45 non d ame     -12.414  14.039  66.180  0.00  0.00     0.212 HD
ENDBRANCH  83  88
ENDBRANCH  72  75
ENDBRANCH  47  72
ENDBRANCH  45  47
ENDBRANCH   1  43
BRANCH   1  90
ATOM     90  C16 non d ame     -10.475   9.566  70.689  0.00  0.00    -0.035 C 
ATOM     91  H21 non d ame      -9.685   9.013  71.200  0.00  0.00     0.037 H 
ATOM     92  H22 non d ame     -10.314  10.604  70.400  0.00  0.00     0.037 H 
BRANCH  90  93
ATOM     93  C17 non d ame     -11.707   9.561  71.649  0.00  0.00    -0.059 C 
ATOM     94  H23 non d ame     -11.425  10.103  72.551  0.00  0.00     0.038 H 
BRANCH  93  95
ATOM     95  C18 non d ame     -12.944  10.284  71.025  0.00  0.00    -0.073 C 
ATOM     96  H24 non d ame     -13.858   9.883  71.464  0.00  0.00     0.028 H 
ATOM     97  H25 non d ame     -12.880  11.352  71.230  0.00  0.00     0.028 H 
ATOM     98  H26 non d ame     -12.955  10.119  69.948  0.00  0.00     0.028 H 
ENDBRANCH  93  95
BRANCH  93  99
ATOM     99  C19 non d ame     -12.066   8.133  72.071  0.00  0.00    -0.073 C 
ATOM    100  H27 non d ame     -13.018   8.141  72.603  0.00  0.00     0.028 H 
ATOM    101  H28 non d ame     -12.149   7.504  71.185  0.00  0.00     0.028 H 
ATOM    102  H29 non d ame     -11.287   7.740  72.724  0.00  0.00     0.028 H 
ENDBRANCH  93  99
ENDBRANCH  90  93
ENDBRANCH   1  90
TORSDOF 26
ENDMDL
MODEL 15
REMARK VINA RESULT:      -6.1      2.123      8.071
REMARK  26 active torsions:
REMARK  status: ('A' for Active; 'I' for Inactive)
REMARK    1  A    between atoms: C2_2  and  C3_3 
REMARK    2  A    between atoms: C4_6  and  C5_7 
REMARK       I    between atoms: C5_7  and  N2_9 
REMARK    3  A    between atoms: N2_9  and  C6_10 
REMARK    4  A    between atoms: C6_10  and  C7_11 
REMARK    5  A    between atoms: C6_10  and  C8_13 
REMARK       I    between atoms: C7_11  and  N3_14 
REMARK    6  A    between atoms: N3_14  and  C9_15 
REMARK    7  A    between atoms: C9_15  and  C10_16 
REMARK    8  A    between atoms: C9_15  and  C11_18 
REMARK       I    between atoms: C10_16  and  N4_21 
REMARK    9  A    between atoms: C11_18  and  C12_19 
REMARK   10  A    between atoms: C11_18  and  C13_20 
REMARK   11  A    between atoms: N4_21  and  C14_22 
REMARK   12  A    between atoms: C14_22  and  C15_23 
REMARK   13  A    between atoms: C14_22  and  C16_25 
REMARK       I    between atoms: C15_23  and  N6_40 
REMARK   14  A    between atoms: C16_25  and  C17_26 
REMARK   15  A    between atoms: C17_26  and  C18_27 
REMARK   16  A    between atoms: C17_26  and  C19_28 
REMARK   17  A    between atoms: C20_29  and  C21_30 
REMARK   18  A    between atoms: C20_29  and  C24_33 
REMARK   19  A    between atoms: C20_29  and  N6_40 
REMARK   20  A    between atoms: C21_30  and  C22_31 
REMARK   21  A    between atoms: C22_31  and  C23_32 
REMARK   22  A    between atoms: C23_32  and  O8_43 
REMARK   23  A    between atoms: C24_33  and  C25_34 
REMARK   24  A    between atoms: C28_38  and  O6_39 
REMARK   25  A    between atoms: C29_42  and  O8_43 
REMARK   26  A    between atoms: C29_42  and  C35_49 
ROOT
ATOM      1  C14 non d ame      -6.847  14.322  67.933  0.00  0.00     0.089 C 
ATOM      2  H20 non d ame      -5.962  14.149  67.319  0.00  0.00     0.087 H 
ENDROOT
BRANCH   1   3
ATOM      3  N4  non d ame      -6.961  15.757  68.143  0.00  0.00    -0.346 N 
ATOM      4  C10 non d ame      -5.972  16.702  67.505  0.00  0.00     0.241 C 
ATOM      5  O4  non d ame      -5.092  16.281  66.828  0.00  0.00    -0.271 OA
ATOM      6  H19 non d ame      -7.715  16.095  68.724  0.00  0.00     0.163 HD
BRANCH   4   7
ATOM      7  C9  non d ame      -6.108  18.185  67.728  0.00  0.00     0.092 C 
ATOM      8  H11 non d ame      -5.773  18.714  66.836  0.00  0.00     0.088 H 
BRANCH   7   9
ATOM      9  N3  non d ame      -7.521  18.522  67.927  0.00  0.00    -0.346 N 
ATOM     10  C7  non d ame      -8.466  18.324  66.857  0.00  0.00     0.240 C 
ATOM     11  O3  non d ame      -8.109  17.894  65.829  0.00  0.00    -0.271 OA
ATOM     12  H10 non d ame      -7.844  18.895  68.809  0.00  0.00     0.163 HD
BRANCH  10  13
ATOM     13  C6  non d ame      -9.969  18.688  67.075  0.00  0.00     0.086 C 
ATOM     14  H6  non d ame     -10.593  18.428  66.220  0.00  0.00     0.086 H 
BRANCH  13  15
ATOM     15  N2  non d ame     -10.478  17.931  68.207  0.00  0.00    -0.343 N 
ATOM     16  C5  non d ame     -11.074  16.612  67.984  0.00  0.00     0.273 C 
ATOM     17  O2  non d ame     -11.142  16.170  66.890  0.00  0.00    -0.266 OA
ATOM     18  H5  non d ame     -10.418  18.318  69.138  0.00  0.00     0.163 HD
BRANCH  16  19
ATOM     19  C4  non d ame     -11.615  15.801  69.172  0.00  0.00     0.154 A 
ATOM     20  C1  non d ame     -11.827  14.387  69.229  0.00  0.00    -0.017 A 
ATOM     21  C2  non d ame     -12.330  14.147  70.527  0.00  0.00     0.077 A 
ATOM     22  H1  non d ame     -11.644  13.648  68.448  0.00  0.00     0.091 H 
ATOM     23  O1  non d ame     -12.393  15.295  71.136  0.00  0.00    -0.218 OA
ATOM     24  N1  non d ame     -11.981  16.275  70.366  0.00  0.00    -0.123 NA
BRANCH  21  25
ATOM     25  C3  non d ame     -12.723  12.794  71.105  0.00  0.00    -0.029 C 
ATOM     26  H2  non d ame     -13.759  12.830  71.443  0.00  0.00     0.036 H 
ATOM     27  H3  non d ame     -12.617  12.027  70.339  0.00  0.00     0.036 H 
ATOM     28  H4  non d ame     -12.074  12.557  71.949  0.00  0.00     0.036 H 
ENDBRANCH  21  25
ENDBRANCH  16  19
ENDBRANCH  13  15
BRANCH  13  29
ATOM     29  C8  non d ame     -10.097  20.166  67.342  0.00  0.00    -0.049 C 
ATOM     30  H7  non d ame     -10.655  20.634  66.530  0.00  0.00     0.030 H 
ATOM     31  H8  non d ame     -10.624  20.322  68.282  0.00  0.00     0.030 H 
ATOM     32  H9  non d ame      -9.104  20.611  67.403  0.00  0.00     0.030 H 
ENDBRANCH  13  29
ENDBRANCH  10  13
ENDBRANCH   7   9
BRANCH   7  33
ATOM     33  C11 non d ame      -5.296  18.595  68.991  0.00  0.00    -0.033 C 
ATOM     34  H12 non d ame      -5.340  17.765  69.695  0.00  0.00     0.042 H 
BRANCH  33  35
ATOM     35  C12 non d ame      -3.793  18.840  68.647  0.00  0.00    -0.071 C 
ATOM     36  H13 non d ame      -3.673  18.898  67.565  0.00  0.00     0.028 H 
ATOM     37  H14 non d ame      -3.464  19.774  69.101  0.00  0.00     0.028 H 
ATOM     38  H15 non d ame      -3.195  18.016  69.034  0.00  0.00     0.028 H 
ENDBRANCH  33  35
BRANCH  33  39
ATOM     39  C13 non d ame      -5.929  19.847  69.680  0.00  0.00    -0.071 C 
ATOM     40  H16 non d ame      -6.253  19.583  70.686  0.00  0.00     0.028 H 
ATOM     41  H17 non d ame      -5.188  20.645  69.735  0.00  0.00     0.028 H 
ATOM     42  H18 non d ame      -6.786  20.187  69.100  0.00  0.00     0.028 H 
ENDBRANCH  33  39
ENDBRANCH   7  33
ENDBRANCH   4   7
ENDBRANCH   1   3
BRANCH   1  43
ATOM     43  C15 non d ame      -8.147  13.818  67.245  0.00  0.00     0.240 C 
ATOM     44  O5  non d ame      -8.771  14.553  66.550  0.00  0.00    -0.271 OA
ATOM     45  N6  non d ame      -8.611  12.415  67.446  0.00  0.00    -0.355 N 
ATOM     46  H46 non d ame      -8.087  11.781  68.031  0.00  0.00     0.162 HD
BRANCH  45  47
ATOM     47  C20 non d ame      -9.849  11.951  66.784  0.00  0.00     0.013 C 
ATOM     48  H30 non d ame     -10.475  12.823  66.594  0.00  0.00     0.072 H 
BRANCH  47  49
ATOM     49  C21 non d ame     -10.572  10.986  67.696  0.00  0.00    -0.038 C 
ATOM     50  H31 non d ame     -11.553  11.425  67.872  0.00  0.00     0.036 H 
ATOM     51  H32 non d ame     -10.490  10.010  67.216  0.00  0.00     0.036 H 
BRANCH  49  52
ATOM     52  C22 non d ame      -9.899  10.850  69.079  0.00  0.00     0.018 C 
ATOM     53  H33 non d ame      -8.915  11.309  68.976  0.00  0.00     0.048 H 
ATOM     54  H34 non d ame     -10.614  11.251  69.796  0.00  0.00     0.048 H 
BRANCH  52  55
ATOM     55  C23 non d ame      -9.641   9.379  69.509  0.00  0.00     0.259 C 
ATOM     56  O7  non d ame      -9.298   8.569  68.710  0.00  0.00    -0.265 OA
BRANCH  55  57
ATOM     57  O8  non d ame      -9.835   9.006  70.868  0.00  0.00    -0.317 OA
BRANCH  57  58
ATOM     58  C29 non d ame     -10.435   7.718  71.037  0.00  0.00     0.052 C 
ATOM     59  H47 non d ame     -10.370   7.232  70.065  0.00  0.00     0.082 H 
ATOM     60  H48 non d ame      -9.942   7.275  71.903  0.00  0.00     0.082 H 
BRANCH  58  61
ATOM     61  C35 non d ame     -11.934   7.931  71.382  0.00  0.00    -0.034 A 
ATOM     62  C30 non d ame     -12.358   9.135  71.934  0.00  0.00    -0.075 A 
ATOM     63  C31 non d ame     -13.705   9.325  72.243  0.00  0.00    -0.082 A 
ATOM     64  H49 non d ame     -11.637   9.930  72.123  0.00  0.00     0.084 H 
ATOM     65  C32 non d ame     -14.627   8.303  72.001  0.00  0.00    -0.083 A 
ATOM     66  H50 non d ame     -14.034  10.271  72.672  0.00  0.00     0.083 H 
ATOM     67  C33 non d ame     -14.198   7.102  71.453  0.00  0.00    -0.082 A 
ATOM     68  H51 non d ame     -15.681   8.444  72.239  0.00  0.00     0.083 H 
ATOM     69  C34 non d ame     -12.854   6.909  71.141  0.00  0.00    -0.075 A 
ATOM     70  H52 non d ame     -14.921   6.306  71.268  0.00  0.00     0.083 H 
ATOM     71  H53 non d ame     -12.525   5.962  70.710  0.00  0.00     0.084 H 
ENDBRANCH  58  61
ENDBRANCH  57  58
ENDBRANCH  55  57
ENDBRANCH  52  55
ENDBRANCH  49  52
ENDBRANCH  47  49
BRANCH  47  72
ATOM     72  C24 non d ame      -9.501  11.252  65.472  0.00  0.00    -0.039 C 
ATOM     73  H35 non d ame      -8.413  11.267  65.415  0.00  0.00     0.036 H 
ATOM     74  H36 non d ame     -10.032  10.299  65.501  0.00  0.00     0.036 H 
BRANCH  72  75
ATOM     75  C25 non d ame     -10.052  12.060  64.204  0.00  0.00    -0.001 C 
ATOM     76  C26 non d ame     -11.371  12.944  64.633  0.00  0.00    -0.035 C 
ATOM     77  C27 non d ame     -12.374  12.682  63.761  0.00  0.00     0.085 C 
ATOM     78  H38 non d ame     -11.763  12.591  65.586  0.00  0.00     0.036 H 
ATOM     79  H39 non d ame     -11.175  14.005  64.484  0.00  0.00     0.036 H 
ATOM     80  N5  non d ame     -11.967  11.459  62.974  0.00  0.00    -0.049 N 
ATOM     81  H40 non d ame     -13.239  12.436  64.377  0.00  0.00     0.075 H 
ATOM     82  H41 non d ame     -12.408  13.540  63.091  0.00  0.00     0.075 H 
ATOM     83  C28 non d ame     -10.388  11.261  63.247  0.00  0.00     0.193 C 
ATOM     84  H42 non d ame     -12.464  10.680  63.380  0.00  0.00     0.280 HD
ATOM     85  H43 non d ame     -12.097  11.689  62.000  0.00  0.00     0.280 HD
ATOM     86  H44 non d ame      -9.655  11.537  62.490  0.00  0.00     0.129 H 
ATOM     87  H37 non d ame      -9.257  12.583  63.671  0.00  0.00     0.046 H 
BRANCH  83  88
ATOM     88  O6  non d ame     -10.110   9.895  63.565  0.00  0.00    -0.369 OA
ATOM     89  H45 non d ame     -10.095   9.786  64.519  0.00  0.00     0.212 HD
ENDBRANCH  83  88
ENDBRANCH  72  75
ENDBRANCH  47  72
ENDBRANCH  45  47
ENDBRANCH   1  43
BRANCH   1  90
ATOM     90  C16 non d ame      -6.681  13.636  69.279  0.00  0.00    -0.035 C 
ATOM     91  H21 non d ame      -6.581  14.444  70.005  0.00  0.00     0.037 H 
ATOM     92  H22 non d ame      -7.516  12.939  69.352  0.00  0.00     0.037 H 
BRANCH  90  93
ATOM     93  C17 non d ame      -5.380  12.780  69.391  0.00  0.00    -0.059 C 
ATOM     94  H23 non d ame      -4.644  13.367  69.940  0.00  0.00     0.038 H 
BRANCH  93  95
ATOM     95  C18 non d ame      -5.613  11.451  70.179  0.00  0.00    -0.073 C 
ATOM     96  H24 non d ame      -4.839  10.731  69.914  0.00  0.00     0.028 H 
ATOM     97  H25 non d ame      -5.572  11.652  71.249  0.00  0.00     0.028 H 
ATOM     98  H26 non d ame      -6.592  11.045  69.923  0.00  0.00     0.028 H 
ENDBRANCH  93  95
BRANCH  93  99
ATOM     99  C19 non d ame      -4.791  12.495  68.006  0.00  0.00    -0.073 C 
ATOM    100  H27 non d ame      -4.333  11.505  68.003  0.00  0.00     0.028 H 
ATOM    101  H28 non d ame      -5.585  12.532  67.261  0.00  0.00     0.028 H 
ATOM    102  H29 non d ame      -4.037  13.246  67.770  0.00  0.00     0.028 H 
ENDBRANCH  93  99
ENDBRANCH  90  93
ENDBRANCH   1  90
TORSDOF 26
ENDMDL
MODEL 16
REMARK VINA RESULT:      -6.1      2.718      6.459
REMARK  26 active torsions:
REMARK  status: ('A' for Active; 'I' for Inactive)
REMARK    1  A    between atoms: C2_2  and  C3_3 
REMARK    2  A    between atoms: C4_6  and  C5_7 
REMARK       I    between atoms: C5_7  and  N2_9 
REMARK    3  A    between atoms: N2_9  and  C6_10 
REMARK    4  A    between atoms: C6_10  and  C7_11 
REMARK    5  A    between atoms: C6_10  and  C8_13 
REMARK       I    between atoms: C7_11  and  N3_14 
REMARK    6  A    between atoms: N3_14  and  C9_15 
REMARK    7  A    between atoms: C9_15  and  C10_16 
REMARK    8  A    between atoms: C9_15  and  C11_18 
REMARK       I    between atoms: C10_16  and  N4_21 
REMARK    9  A    between atoms: C11_18  and  C12_19 
REMARK   10  A    between atoms: C11_18  and  C13_20 
REMARK   11  A    between atoms: N4_21  and  C14_22 
REMARK   12  A    between atoms: C14_22  and  C15_23 
REMARK   13  A    between atoms: C14_22  and  C16_25 
REMARK       I    between atoms: C15_23  and  N6_40 
REMARK   14  A    between atoms: C16_25  and  C17_26 
REMARK   15  A    between atoms: C17_26  and  C18_27 
REMARK   16  A    between atoms: C17_26  and  C19_28 
REMARK   17  A    between atoms: C20_29  and  C21_30 
REMARK   18  A    between atoms: C20_29  and  C24_33 
REMARK   19  A    between atoms: C20_29  and  N6_40 
REMARK   20  A    between atoms: C21_30  and  C22_31 
REMARK   21  A    between atoms: C22_31  and  C23_32 
REMARK   22  A    between atoms: C23_32  and  O8_43 
REMARK   23  A    between atoms: C24_33  and  C25_34 
REMARK   24  A    between atoms: C28_38  and  O6_39 
REMARK   25  A    between atoms: C29_42  and  O8_43 
REMARK   26  A    between atoms: C29_42  and  C35_49 
ROOT
ATOM      1  C14 non d ame     -11.679  11.157  70.065  0.00  0.00     0.089 C 
ATOM      2  H20 non d ame     -10.870  10.807  70.707  0.00  0.00     0.087 H 
ENDROOT
BRANCH   1   3
ATOM      3  N4  non d ame     -11.619  12.611  70.038  0.00  0.00    -0.346 N 
ATOM      4  C10 non d ame     -12.357  13.423  71.074  0.00  0.00     0.241 C 
ATOM      5  O4  non d ame     -12.995  12.883  71.917  0.00  0.00    -0.271 OA
ATOM      6  H19 non d ame     -11.073  13.052  69.312  0.00  0.00     0.163 HD
BRANCH   4   7
ATOM      7  C9  non d ame     -12.280  14.926  71.035  0.00  0.00     0.092 C 
ATOM      8  H11 non d ame     -11.330  15.248  71.463  0.00  0.00     0.088 H 
BRANCH   7   9
ATOM      9  N3  non d ame     -12.303  15.382  69.641  0.00  0.00    -0.346 N 
ATOM     10  C7  non d ame     -11.077  15.770  68.990  0.00  0.00     0.240 C 
ATOM     11  O3  non d ame     -10.062  15.723  69.571  0.00  0.00    -0.271 OA
ATOM     12  H10 non d ame     -13.171  15.428  69.127  0.00  0.00     0.163 HD
BRANCH  10  13
ATOM     13  C6  non d ame     -11.109  16.256  67.507  0.00  0.00     0.086 C 
ATOM     14  H6  non d ame     -11.941  16.929  67.301  0.00  0.00     0.086 H 
BRANCH  13  15
ATOM     15  N2  non d ame      -9.893  17.002  67.230  0.00  0.00    -0.343 N 
ATOM     16  C5  non d ame      -9.906  18.464  67.319  0.00  0.00     0.273 C 
ATOM     17  O2  non d ame     -10.901  19.030  67.612  0.00  0.00    -0.266 OA
ATOM     18  H5  non d ame      -9.047  16.510  66.977  0.00  0.00     0.163 HD
BRANCH  16  19
ATOM     19  C4  non d ame      -8.627  19.264  67.029  0.00  0.00     0.154 A 
ATOM     20  C1  non d ame      -7.694  19.781  67.985  0.00  0.00    -0.017 A 
ATOM     21  C2  non d ame      -6.706  20.430  67.213  0.00  0.00     0.077 A 
ATOM     22  H1  non d ame      -7.730  19.696  69.071  0.00  0.00     0.091 H 
ATOM     23  O1  non d ame      -7.039  20.295  65.963  0.00  0.00    -0.218 OA
ATOM     24  N1  non d ame      -8.157  19.619  65.830  0.00  0.00    -0.123 NA
BRANCH  21  25
ATOM     25  C3  non d ame      -5.476  21.153  67.748  0.00  0.00    -0.029 C 
ATOM     26  H2  non d ame      -5.766  22.132  68.128  0.00  0.00     0.036 H 
ATOM     27  H3  non d ame      -5.032  20.568  68.552  0.00  0.00     0.036 H 
ATOM     28  H4  non d ame      -4.749  21.275  66.944  0.00  0.00     0.036 H 
ENDBRANCH  21  25
ENDBRANCH  16  19
ENDBRANCH  13  15
BRANCH  13  29
ATOM     29  C8  non d ame     -11.206  15.066  66.586  0.00  0.00    -0.049 C 
ATOM     30  H7  non d ame     -11.091  15.396  65.553  0.00  0.00     0.030 H 
ATOM     31  H8  non d ame     -10.420  14.352  66.830  0.00  0.00     0.030 H 
ATOM     32  H9  non d ame     -12.180  14.591  66.709  0.00  0.00     0.030 H 
ENDBRANCH  13  29
ENDBRANCH  10  13
ENDBRANCH   7   9
BRANCH   7  33
ATOM     33  C11 non d ame     -13.498  15.528  71.795  0.00  0.00    -0.033 C 
ATOM     34  H12 non d ame     -13.623  16.555  71.456  0.00  0.00     0.042 H 
BRANCH  33  35
ATOM     35  C12 non d ame     -14.814  14.759  71.458  0.00  0.00    -0.071 C 
ATOM     36  H13 non d ame     -15.323  14.487  72.383  0.00  0.00     0.028 H 
ATOM     37  H14 non d ame     -15.464  15.396  70.860  0.00  0.00     0.028 H 
ATOM     38  H15 non d ame     -14.572  13.857  70.898  0.00  0.00     0.028 H 
ENDBRANCH  33  35
BRANCH  33  39
ATOM     39  C13 non d ame     -13.238  15.555  73.336  0.00  0.00    -0.071 C 
ATOM     40  H16 non d ame     -12.195  15.308  73.532  0.00  0.00     0.028 H 
ATOM     41  H17 non d ame     -13.455  16.552  73.723  0.00  0.00     0.028 H 
ATOM     42  H18 non d ame     -13.883  14.827  73.827  0.00  0.00     0.028 H 
ENDBRANCH  33  39
ENDBRANCH   7  33
ENDBRANCH   4   7
ENDBRANCH   1   3
BRANCH   1  43
ATOM     43  C15 non d ame     -11.543  10.631  68.608  0.00  0.00     0.240 C 
ATOM     44  O5  non d ame     -11.983  11.267  67.706  0.00  0.00    -0.271 OA
ATOM     45  N6  non d ame     -10.856   9.335  68.336  0.00  0.00    -0.355 N 
ATOM     46  H46 non d ame     -10.475   8.788  69.094  0.00  0.00     0.162 HD
BRANCH  45  47
ATOM     47  C20 non d ame     -10.734   8.849  66.945  0.00  0.00     0.013 C 
ATOM     48  H30 non d ame     -11.663   9.083  66.425  0.00  0.00     0.072 H 
BRANCH  47  49
ATOM     49  C21 non d ame     -10.512   7.353  66.956  0.00  0.00    -0.038 C 
ATOM     50  H31 non d ame     -11.356   6.926  66.415  0.00  0.00     0.036 H 
ATOM     51  H32 non d ame      -9.496   7.204  66.589  0.00  0.00     0.036 H 
BRANCH  49  52
ATOM     52  C22 non d ame     -10.555   6.751  68.378  0.00  0.00     0.018 C 
ATOM     53  H33 non d ame      -9.833   7.321  68.962  0.00  0.00     0.048 H 
ATOM     54  H34 non d ame     -11.606   6.748  68.665  0.00  0.00     0.048 H 
BRANCH  52  55
ATOM     55  C23 non d ame     -10.088   5.271  68.446  0.00  0.00     0.259 C 
ATOM     56  O7  non d ame     -10.094   4.684  69.479  0.00  0.00    -0.265 OA
BRANCH  55  57
ATOM     57  O8  non d ame      -9.638   4.627  67.260  0.00  0.00    -0.317 OA
BRANCH  57  58
ATOM     58  C29 non d ame      -8.216   4.623  67.104  0.00  0.00     0.052 C 
ATOM     59  H47 non d ame      -7.844   5.399  67.772  0.00  0.00     0.082 H 
ATOM     60  H48 non d ame      -7.907   3.588  67.245  0.00  0.00     0.082 H 
BRANCH  58  61
ATOM     61  C35 non d ame      -7.894   5.037  65.643  0.00  0.00    -0.034 A 
ATOM     62  C30 non d ame      -8.897   5.029  64.679  0.00  0.00    -0.075 A 
ATOM     63  C31 non d ame      -8.607   5.400  63.366  0.00  0.00    -0.082 A 
ATOM     64  H49 non d ame      -9.910   4.733  64.952  0.00  0.00     0.084 H 
ATOM     65  C32 non d ame      -7.307   5.777  63.019  0.00  0.00    -0.083 A 
ATOM     66  H50 non d ame      -9.396   5.397  62.614  0.00  0.00     0.083 H 
ATOM     67  C33 non d ame      -6.308   5.779  63.983  0.00  0.00    -0.082 A 
ATOM     68  H51 non d ame      -7.072   6.069  61.995  0.00  0.00     0.083 H 
ATOM     69  C34 non d ame      -6.594   5.411  65.296  0.00  0.00    -0.075 A 
ATOM     70  H52 non d ame      -5.294   6.071  63.708  0.00  0.00     0.083 H 
ATOM     71  H53 non d ame      -5.804   5.417  66.048  0.00  0.00     0.084 H 
ENDBRANCH  58  61
ENDBRANCH  57  58
ENDBRANCH  55  57
ENDBRANCH  52  55
ENDBRANCH  49  52
ENDBRANCH  47  49
BRANCH  47  72
ATOM     72  C24 non d ame      -9.554   9.535  66.260  0.00  0.00    -0.039 C 
ATOM     73  H35 non d ame      -9.576  10.567  66.611  0.00  0.00     0.036 H 
ATOM     74  H36 non d ame      -8.689   8.906  66.472  0.00  0.00     0.036 H 
BRANCH  72  75
ATOM     75  C25 non d ame      -9.732   9.573  64.669  0.00  0.00    -0.001 C 
ATOM     76  C26 non d ame      -8.314   9.175  63.938  0.00  0.00    -0.035 C 
ATOM     77  C27 non d ame      -8.016  10.124  63.018  0.00  0.00     0.085 C 
ATOM     78  H38 non d ame      -7.493   9.245  64.650  0.00  0.00     0.036 H 
ATOM     79  H39 non d ame      -8.442   8.273  63.340  0.00  0.00     0.036 H 
ATOM     80  N5  non d ame      -8.929  11.298  63.284  0.00  0.00    -0.049 N 
ATOM     81  H40 non d ame      -6.988  10.420  63.227  0.00  0.00     0.075 H 
ATOM     82  H41 non d ame      -8.273   9.686  62.054  0.00  0.00     0.075 H 
ATOM     83  C28 non d ame     -10.087  10.747  64.264  0.00  0.00     0.193 C 
ATOM     84  H42 non d ame      -8.379  11.980  63.785  0.00  0.00     0.280 HD
ATOM     85  H43 non d ame      -9.348  11.540  62.397  0.00  0.00     0.280 HD
ATOM     86  H44 non d ame     -11.083  10.532  63.880  0.00  0.00     0.129 H 
ATOM     87  H37 non d ame     -10.626   9.041  64.341  0.00  0.00     0.046 H 
BRANCH  83  88
ATOM     88  O6  non d ame     -10.284  11.653  65.352  0.00  0.00    -0.369 OA
ATOM     89  H45 non d ame     -10.634  11.175  66.107  0.00  0.00     0.212 HD
ENDBRANCH  83  88
ENDBRANCH  72  75
ENDBRANCH  47  72
ENDBRANCH  45  47
ENDBRANCH   1  43
BRANCH   1  90
ATOM     90  C16 non d ame     -13.018  10.727  70.642  0.00  0.00    -0.035 C 
ATOM     91  H21 non d ame     -13.448  11.629  71.078  0.00  0.00     0.037 H 
ATOM     92  H22 non d ame     -13.532  10.217  69.828  0.00  0.00     0.037 H 
BRANCH  90  93
ATOM     93  C17 non d ame     -12.895   9.691  71.804  0.00  0.00    -0.059 C 
ATOM     94  H23 non d ame     -13.008  10.233  72.743  0.00  0.00     0.038 H 
BRANCH  93  95
ATOM     95  C18 non d ame     -14.015   8.603  71.745  0.00  0.00    -0.073 C 
ATOM     96  H24 non d ame     -13.889   7.907  72.574  0.00  0.00     0.028 H 
ATOM     97  H25 non d ame     -14.991   9.083  71.820  0.00  0.00     0.028 H 
ATOM     98  H26 non d ame     -13.947   8.063  70.801  0.00  0.00     0.028 H 
ENDBRANCH  93  95
BRANCH  93  99
ATOM     99  C19 non d ame     -11.508   9.044  71.818  0.00  0.00    -0.073 C 
ATOM    100  H27 non d ame     -10.818   9.653  71.233  0.00  0.00     0.028 H 
ATOM    101  H28 non d ame     -11.151   8.974  72.845  0.00  0.00     0.028 H 
ATOM    102  H29 non d ame     -11.568   8.045  71.386  0.00  0.00     0.028 H 
ENDBRANCH  93  99
ENDBRANCH  90  93
ENDBRANCH   1  90
TORSDOF 26
ENDMDL
MODEL 17
REMARK VINA RESULT:      -6.1      3.302      7.435
REMARK  26 active torsions:
REMARK  status: ('A' for Active; 'I' for Inactive)
REMARK    1  A    between atoms: C2_2  and  C3_3 
REMARK    2  A    between atoms: C4_6  and  C5_7 
REMARK       I    between atoms: C5_7  and  N2_9 
REMARK    3  A    between atoms: N2_9  and  C6_10 
REMARK    4  A    between atoms: C6_10  and  C7_11 
REMARK    5  A    between atoms: C6_10  and  C8_13 
REMARK       I    between atoms: C7_11  and  N3_14 
REMARK    6  A    between atoms: N3_14  and  C9_15 
REMARK    7  A    between atoms: C9_15  and  C10_16 
REMARK    8  A    between atoms: C9_15  and  C11_18 
REMARK       I    between atoms: C10_16  and  N4_21 
REMARK    9  A    between atoms: C11_18  and  C12_19 
REMARK   10  A    between atoms: C11_18  and  C13_20 
REMARK   11  A    between atoms: N4_21  and  C14_22 
REMARK   12  A    between atoms: C14_22  and  C15_23 
REMARK   13  A    between atoms: C14_22  and  C16_25 
REMARK       I    between atoms: C15_23  and  N6_40 
REMARK   14  A    between atoms: C16_25  and  C17_26 
REMARK   15  A    between atoms: C17_26  and  C18_27 
REMARK   16  A    between atoms: C17_26  and  C19_28 
REMARK   17  A    between atoms: C20_29  and  C21_30 
REMARK   18  A    between atoms: C20_29  and  C24_33 
REMARK   19  A    between atoms: C20_29  and  N6_40 
REMARK   20  A    between atoms: C21_30  and  C22_31 
REMARK   21  A    between atoms: C22_31  and  C23_32 
REMARK   22  A    between atoms: C23_32  and  O8_43 
REMARK   23  A    between atoms: C24_33  and  C25_34 
REMARK   24  A    between atoms: C28_38  and  O6_39 
REMARK   25  A    between atoms: C29_42  and  O8_43 
REMARK   26  A    between atoms: C29_42  and  C35_49 
ROOT
ATOM      1  C14 non d ame     -11.106   8.177  70.102  0.00  0.00     0.089 C 
ATOM      2  H20 non d ame     -12.076   7.913  69.678  0.00  0.00     0.087 H 
ENDROOT
BRANCH   1   3
ATOM      3  N4  non d ame     -10.212   7.050  69.883  0.00  0.00    -0.346 N 
ATOM      4  C10 non d ame     -10.372   6.176  68.664  0.00  0.00     0.241 C 
ATOM      5  O4  non d ame     -11.231   6.398  67.874  0.00  0.00    -0.271 OA
ATOM      6  H19 non d ame      -9.489   6.876  70.567  0.00  0.00     0.163 HD
BRANCH   4   7
ATOM      7  C9  non d ame      -9.435   5.017  68.450  0.00  0.00     0.092 C 
ATOM      8  H11 non d ame      -9.972   4.206  67.958  0.00  0.00     0.088 H 
BRANCH   7   9
ATOM      9  N3  non d ame      -8.350   5.424  67.550  0.00  0.00    -0.346 N 
ATOM     10  C7  non d ame      -8.289   4.896  66.211  0.00  0.00     0.240 C 
ATOM     11  O3  non d ame      -9.103   4.142  65.838  0.00  0.00    -0.271 OA
ATOM     12  H10 non d ame      -7.640   6.074  67.858  0.00  0.00     0.163 HD
BRANCH  10  13
ATOM     13  C6  non d ame      -7.131   5.332  65.259  0.00  0.00     0.086 C 
ATOM     14  H6  non d ame      -7.047   4.696  64.378  0.00  0.00     0.086 H 
BRANCH  13  15
ATOM     15  N2  non d ame      -7.397   6.677  64.777  0.00  0.00    -0.343 N 
ATOM     16  C5  non d ame      -7.949   6.867  63.434  0.00  0.00     0.273 C 
ATOM     17  O2  non d ame      -8.172   5.931  62.748  0.00  0.00    -0.266 OA
ATOM     18  H5  non d ame      -7.201   7.472  65.370  0.00  0.00     0.163 HD
BRANCH  16  19
ATOM     19  C4  non d ame      -8.237   8.283  62.913  0.00  0.00     0.154 A 
ATOM     20  C1  non d ame      -8.967   9.319  63.579  0.00  0.00    -0.017 A 
ATOM     21  C2  non d ame      -8.943  10.412  62.685  0.00  0.00     0.077 A 
ATOM     22  H1  non d ame      -9.440   9.282  64.561  0.00  0.00     0.091 H 
ATOM     23  O1  non d ame      -8.274  10.040  61.634  0.00  0.00    -0.218 OA
ATOM     24  N1  non d ame      -7.852   8.801  61.743  0.00  0.00    -0.123 NA
BRANCH  21  25
ATOM     25  C3  non d ame      -9.582  11.776  62.913  0.00  0.00    -0.029 C 
ATOM     26  H2  non d ame      -9.765  12.257  61.952  0.00  0.00     0.036 H 
ATOM     27  H3  non d ame     -10.526  11.652  63.443  0.00  0.00     0.036 H 
ATOM     28  H4  non d ame      -8.911  12.397  63.509  0.00  0.00     0.036 H 
ENDBRANCH  21  25
ENDBRANCH  16  19
ENDBRANCH  13  15
BRANCH  13  29
ATOM     29  C8  non d ame      -5.823   5.301  66.008  0.00  0.00    -0.049 C 
ATOM     30  H7  non d ame      -5.465   4.273  66.072  0.00  0.00     0.030 H 
ATOM     31  H8  non d ame      -5.088   5.911  65.483  0.00  0.00     0.030 H 
ATOM     32  H9  non d ame      -5.971   5.696  67.014  0.00  0.00     0.030 H 
ENDBRANCH  13  29
ENDBRANCH  10  13
ENDBRANCH   7   9
BRANCH   7  33
ATOM     33  C11 non d ame      -8.834   4.577  69.817  0.00  0.00    -0.033 C 
ATOM     34  H12 non d ame      -8.811   5.453  70.463  0.00  0.00     0.042 H 
BRANCH  33  35
ATOM     35  C12 non d ame      -9.729   3.504  70.512  0.00  0.00    -0.071 C 
ATOM     36  H13 non d ame     -10.250   3.956  71.356  0.00  0.00     0.028 H 
ATOM     37  H14 non d ame     -10.457   3.121  69.798  0.00  0.00     0.028 H 
ATOM     38  H15 non d ame      -9.103   2.686  70.868  0.00  0.00     0.028 H 
ENDBRANCH  33  35
BRANCH  33  39
ATOM     39  C13 non d ame      -7.368   4.065  69.644  0.00  0.00    -0.071 C 
ATOM     40  H16 non d ame      -6.701   4.914  69.498  0.00  0.00     0.028 H 
ATOM     41  H17 non d ame      -7.067   3.516  70.538  0.00  0.00     0.028 H 
ATOM     42  H18 non d ame      -7.313   3.405  68.779  0.00  0.00     0.028 H 
ENDBRANCH  33  39
ENDBRANCH   7  33
ENDBRANCH   4   7
ENDBRANCH   1   3
BRANCH   1  43
ATOM     43  C15 non d ame     -10.492   9.435  69.424  0.00  0.00     0.240 C 
ATOM     44  O5  non d ame      -9.804  10.170  70.054  0.00  0.00    -0.271 OA
ATOM     45  N6  non d ame     -10.754   9.717  67.983  0.00  0.00    -0.355 N 
ATOM     46  H46 non d ame     -11.333   9.097  67.436  0.00  0.00     0.162 HD
BRANCH  45  47
ATOM     47  C20 non d ame     -10.161  10.916  67.352  0.00  0.00     0.013 C 
ATOM     48  H30 non d ame      -9.858  11.598  68.147  0.00  0.00     0.072 H 
BRANCH  47  49
ATOM     49  C21 non d ame     -11.194  11.579  66.470  0.00  0.00    -0.038 C 
ATOM     50  H31 non d ame     -10.632  12.071  65.677  0.00  0.00     0.036 H 
ATOM     51  H32 non d ame     -11.916  10.799  66.223  0.00  0.00     0.036 H 
BRANCH  49  52
ATOM     52  C22 non d ame     -11.983  12.689  67.199  0.00  0.00     0.018 C 
ATOM     53  H33 non d ame     -12.881  12.854  66.604  0.00  0.00     0.048 H 
ATOM     54  H34 non d ame     -12.068  12.358  68.234  0.00  0.00     0.048 H 
BRANCH  52  55
ATOM     55  C23 non d ame     -11.244  14.055  67.246  0.00  0.00     0.259 C 
ATOM     56  O7  non d ame     -10.406  14.315  66.444  0.00  0.00    -0.265 OA
BRANCH  55  57
ATOM     57  O8  non d ame     -11.570  14.989  68.268  0.00  0.00    -0.317 OA
BRANCH  57  58
ATOM     58  C29 non d ame     -10.713  14.923  69.411  0.00  0.00     0.052 C 
ATOM     59  H47 non d ame     -10.175  13.980  69.323  0.00  0.00     0.082 H 
ATOM     60  H48 non d ame     -10.164  15.864  69.423  0.00  0.00     0.082 H 
BRANCH  58  61
ATOM     61  C35 non d ame     -11.608  14.862  70.677  0.00  0.00    -0.034 A 
ATOM     62  C30 non d ame     -12.407  13.748  70.914  0.00  0.00    -0.075 A 
ATOM     63  C31 non d ame     -13.211  13.694  72.051  0.00  0.00    -0.082 A 
ATOM     64  H49 non d ame     -12.402  12.917  70.208  0.00  0.00     0.084 H 
ATOM     65  C32 non d ame     -13.218  14.762  72.953  0.00  0.00    -0.083 A 
ATOM     66  H50 non d ame     -13.834  12.818  72.235  0.00  0.00     0.083 H 
ATOM     67  C33 non d ame     -12.422  15.873  72.711  0.00  0.00    -0.082 A 
ATOM     68  H51 non d ame     -13.843  14.727  73.845  0.00  0.00     0.083 H 
ATOM     69  C34 non d ame     -11.614  15.930  71.577  0.00  0.00    -0.075 A 
ATOM     70  H52 non d ame     -12.430  16.705  73.416  0.00  0.00     0.083 H 
ATOM     71  H53 non d ame     -10.991  16.806  71.395  0.00  0.00     0.084 H 
ENDBRANCH  58  61
ENDBRANCH  57  58
ENDBRANCH  55  57
ENDBRANCH  52  55
ENDBRANCH  49  52
ENDBRANCH  47  49
BRANCH  47  72
ATOM     72  C24 non d ame      -8.953  10.513  66.510  0.00  0.00    -0.039 C 
ATOM     73  H35 non d ame      -9.144   9.484  66.204  0.00  0.00     0.036 H 
ATOM     74  H36 non d ame      -8.850  11.294  65.756  0.00  0.00     0.036 H 
BRANCH  72  75
ATOM     75  C25 non d ame      -7.603  10.507  67.372  0.00  0.00    -0.001 C 
ATOM     76  C26 non d ame      -6.430  11.344  66.580  0.00  0.00    -0.035 C 
ATOM     77  C27 non d ame      -5.317  10.574  66.511  0.00  0.00     0.085 C 
ATOM     78  H38 non d ame      -6.709  11.483  65.536  0.00  0.00     0.036 H 
ATOM     79  H39 non d ame      -6.112  12.198  67.177  0.00  0.00     0.036 H 
ATOM     80  N5  non d ame      -5.726   9.171  66.891  0.00  0.00    -0.049 N 
ATOM     81  H40 non d ame      -5.020  10.586  65.461  0.00  0.00     0.075 H 
ATOM     82  H41 non d ame      -4.644  10.966  67.272  0.00  0.00     0.075 H 
ATOM     83  C28 non d ame      -7.182   9.303  67.575  0.00  0.00     0.193 C 
ATOM     84  H42 non d ame      -5.822   8.657  66.028  0.00  0.00     0.280 HD
ATOM     85  H43 non d ame      -5.069   8.862  67.593  0.00  0.00     0.280 HD
ATOM     86  H44 non d ame      -7.295   9.233  68.657  0.00  0.00     0.129 H 
ATOM     87  H37 non d ame      -7.780  10.767  68.416  0.00  0.00     0.046 H 
BRANCH  83  88
ATOM     88  O6  non d ame      -8.072   8.324  67.035  0.00  0.00    -0.369 OA
ATOM     89  H45 non d ame      -8.969   8.517  67.317  0.00  0.00     0.212 HD
ENDBRANCH  83  88
ENDBRANCH  72  75
ENDBRANCH  47  72
ENDBRANCH  45  47
ENDBRANCH   1  43
BRANCH   1  90
ATOM     90  C16 non d ame     -11.244   8.418  71.596  0.00  0.00    -0.035 C 
ATOM     91  H21 non d ame     -10.801   7.541  72.072  0.00  0.00     0.037 H 
ATOM     92  H22 non d ame     -10.818   9.405  71.770  0.00  0.00     0.037 H 
BRANCH  90  93
ATOM     93  C17 non d ame     -12.726   8.484  72.086  0.00  0.00    -0.059 C 
ATOM     94  H23 non d ame     -12.725   8.317  73.163  0.00  0.00     0.038 H 
BRANCH  93  95
ATOM     95  C18 non d ame     -13.373   9.880  71.821  0.00  0.00    -0.073 C 
ATOM     96  H24 non d ame     -13.792  10.269  72.749  0.00  0.00     0.028 H 
ATOM     97  H25 non d ame     -12.613  10.568  71.449  0.00  0.00     0.028 H 
ATOM     98  H26 non d ame     -14.165   9.778  71.079  0.00  0.00     0.028 H 
ENDBRANCH  93  95
BRANCH  93  99
ATOM     99  C19 non d ame     -13.562   7.367  71.455  0.00  0.00    -0.073 C 
ATOM    100  H27 non d ame     -14.387   7.805  70.892  0.00  0.00     0.028 H 
ATOM    101  H28 non d ame     -12.934   6.780  70.783  0.00  0.00     0.028 H 
ATOM    102  H29 non d ame     -13.957   6.721  72.238  0.00  0.00     0.028 H 
ENDBRANCH  93  99
ENDBRANCH  90  93
ENDBRANCH   1  90
TORSDOF 26
ENDMDL
MODEL 18
REMARK VINA RESULT:      -6.0      2.827      5.457
REMARK  26 active torsions:
REMARK  status: ('A' for Active; 'I' for Inactive)
REMARK    1  A    between atoms: C2_2  and  C3_3 
REMARK    2  A    between atoms: C4_6  and  C5_7 
REMARK       I    between atoms: C5_7  and  N2_9 
REMARK    3  A    between atoms: N2_9  and  C6_10 
REMARK    4  A    between atoms: C6_10  and  C7_11 
REMARK    5  A    between atoms: C6_10  and  C8_13 
REMARK       I    between atoms: C7_11  and  N3_14 
REMARK    6  A    between atoms: N3_14  and  C9_15 
REMARK    7  A    between atoms: C9_15  and  C10_16 
REMARK    8  A    between atoms: C9_15  and  C11_18 
REMARK       I    between atoms: C10_16  and  N4_21 
REMARK    9  A    between atoms: C11_18  and  C12_19 
REMARK   10  A    between atoms: C11_18  and  C13_20 
REMARK   11  A    between atoms: N4_21  and  C14_22 
REMARK   12  A    between atoms: C14_22  and  C15_23 
REMARK   13  A    between atoms: C14_22  and  C16_25 
REMARK       I    between atoms: C15_23  and  N6_40 
REMARK   14  A    between atoms: C16_25  and  C17_26 
REMARK   15  A    between atoms: C17_26  and  C18_27 
REMARK   16  A    between atoms: C17_26  and  C19_28 
REMARK   17  A    between atoms: C20_29  and  C21_30 
REMARK   18  A    between atoms: C20_29  and  C24_33 
REMARK   19  A    between atoms: C20_29  and  N6_40 
REMARK   20  A    between atoms: C21_30  and  C22_31 
REMARK   21  A    between atoms: C22_31  and  C23_32 
REMARK   22  A    between atoms: C23_32  and  O8_43 
REMARK   23  A    between atoms: C24_33  and  C25_34 
REMARK   24  A    between atoms: C28_38  and  O6_39 
REMARK   25  A    between atoms: C29_42  and  O8_43 
REMARK   26  A    between atoms: C29_42  and  C35_49 
ROOT
ATOM      1  C14 non d ame     -10.820   9.148  69.335  0.00  0.00     0.089 C 
ATOM      2  H20 non d ame     -11.783   8.696  69.579  0.00  0.00     0.087 H 
ENDROOT
BRANCH   1   3
ATOM      3  N4  non d ame     -10.104   8.218  68.475  0.00  0.00    -0.346 N 
ATOM      4  C10 non d ame     -10.605   6.806  68.297  0.00  0.00     0.241 C 
ATOM      5  O4  non d ame     -11.585   6.441  68.858  0.00  0.00    -0.271 OA
ATOM      6  H19 non d ame      -9.271   8.546  68.008  0.00  0.00     0.163 HD
BRANCH   4   7
ATOM      7  C9  non d ame      -9.855   5.857  67.399  0.00  0.00     0.092 C 
ATOM      8  H11 non d ame     -10.566   5.314  66.776  0.00  0.00     0.088 H 
BRANCH   7   9
ATOM      9  N3  non d ame      -8.986   6.621  66.498  0.00  0.00    -0.346 N 
ATOM     10  C7  non d ame      -8.610   6.069  65.220  0.00  0.00     0.240 C 
ATOM     11  O3  non d ame      -8.996   5.012  64.900  0.00  0.00    -0.271 OA
ATOM     12  H10 non d ame      -8.644   7.535  66.760  0.00  0.00     0.163 HD
BRANCH  10  13
ATOM     13  C6  non d ame      -7.682   6.886  64.267  0.00  0.00     0.086 C 
ATOM     14  H6  non d ame      -8.236   7.419  63.494  0.00  0.00     0.086 H 
BRANCH  13  15
ATOM     15  N2  non d ame      -6.979   7.894  65.044  0.00  0.00    -0.343 N 
ATOM     16  C5  non d ame      -7.007   9.292  64.606  0.00  0.00     0.273 C 
ATOM     17  O2  non d ame      -7.596   9.594  63.627  0.00  0.00    -0.266 OA
ATOM     18  H5  non d ame      -6.476   7.626  65.878  0.00  0.00     0.163 HD
BRANCH  16  19
ATOM     19  C4  non d ame      -6.270  10.367  65.418  0.00  0.00     0.154 A 
ATOM     20  C1  non d ame      -6.727  11.020  66.607  0.00  0.00    -0.017 A 
ATOM     21  C2  non d ame      -5.689  11.912  66.955  0.00  0.00     0.077 A 
ATOM     22  H1  non d ame      -7.668  10.868  67.137  0.00  0.00     0.091 H 
ATOM     23  O1  non d ame      -4.749  11.779  66.066  0.00  0.00    -0.218 OA
ATOM     24  N1  non d ame      -5.065  10.883  65.158  0.00  0.00    -0.123 NA
BRANCH  21  25
ATOM     25  C3  non d ame      -5.673  12.854  68.152  0.00  0.00    -0.029 C 
ATOM     26  H2  non d ame      -6.628  13.377  68.216  0.00  0.00     0.036 H 
ATOM     27  H3  non d ame      -5.512  12.281  69.064  0.00  0.00     0.036 H 
ATOM     28  H4  non d ame      -4.868  13.581  68.032  0.00  0.00     0.036 H 
ENDBRANCH  21  25
ENDBRANCH  16  19
ENDBRANCH  13  15
BRANCH  13  29
ATOM     29  C8  non d ame      -6.693   5.960  63.608  0.00  0.00    -0.049 C 
ATOM     30  H7  non d ame      -5.699   6.135  64.023  0.00  0.00     0.030 H 
ATOM     31  H8  non d ame      -6.985   4.926  63.789  0.00  0.00     0.030 H 
ATOM     32  H9  non d ame      -6.676   6.151  62.535  0.00  0.00     0.030 H 
ENDBRANCH  13  29
ENDBRANCH  10  13
ENDBRANCH   7   9
BRANCH   7  33
ATOM     33  C11 non d ame      -8.986   4.900  68.266  0.00  0.00    -0.033 C 
ATOM     34  H12 non d ame      -7.946   5.047  67.977  0.00  0.00     0.042 H 
BRANCH  33  35
ATOM     35  C12 non d ame      -9.104   5.244  69.784  0.00  0.00    -0.071 C 
ATOM     36  H13 non d ame      -8.547   6.157  69.995  0.00  0.00     0.028 H 
ATOM     37  H14 non d ame     -10.152   5.390  70.043  0.00  0.00     0.028 H 
ATOM     38  H15 non d ame      -8.695   4.424  70.373  0.00  0.00     0.028 H 
ENDBRANCH  33  35
BRANCH  33  39
ATOM     39  C13 non d ame      -9.357   3.407  67.994  0.00  0.00    -0.071 C 
ATOM     40  H16 non d ame      -8.862   2.770  68.727  0.00  0.00     0.028 H 
ATOM     41  H17 non d ame     -10.438   3.281  68.074  0.00  0.00     0.028 H 
ATOM     42  H18 non d ame      -9.032   3.129  66.992  0.00  0.00     0.028 H 
ENDBRANCH  33  39
ENDBRANCH   7  33
ENDBRANCH   4   7
ENDBRANCH   1   3
BRANCH   1  43
ATOM     43  C15 non d ame     -10.980  10.497  68.579  0.00  0.00     0.240 C 
ATOM     44  O5  non d ame     -11.504  10.520  67.513  0.00  0.00    -0.271 OA
ATOM     45  N6  non d ame     -10.486  11.766  69.188  0.00  0.00    -0.355 N 
ATOM     46  H46 non d ame     -10.043  11.760  70.095  0.00  0.00     0.162 HD
BRANCH  45  47
ATOM     47  C20 non d ame     -10.646  13.041  68.457  0.00  0.00     0.013 C 
ATOM     48  H30 non d ame     -10.613  12.822  67.390  0.00  0.00     0.072 H 
BRANCH  47  49
ATOM     49  C21 non d ame      -9.516  13.975  68.827  0.00  0.00    -0.038 C 
ATOM     50  H31 non d ame      -9.978  14.787  69.388  0.00  0.00     0.036 H 
ATOM     51  H32 non d ame      -8.758  13.349  69.298  0.00  0.00     0.036 H 
BRANCH  49  52
ATOM     52  C22 non d ame      -8.846  14.622  67.596  0.00  0.00     0.018 C 
ATOM     53  H33 non d ame      -7.938  15.097  67.969  0.00  0.00     0.048 H 
ATOM     54  H34 non d ame      -8.779  13.832  66.848  0.00  0.00     0.048 H 
BRANCH  52  55
ATOM     55  C23 non d ame      -9.687  15.757  66.948  0.00  0.00     0.259 C 
ATOM     56  O7  non d ame     -10.171  16.608  67.621  0.00  0.00    -0.265 OA
BRANCH  55  57
ATOM     57  O8  non d ame      -9.884  15.760  65.539  0.00  0.00    -0.317 OA
BRANCH  57  58
ATOM     58  C29 non d ame     -11.221  15.446  65.139  0.00  0.00     0.052 C 
ATOM     59  H47 non d ame     -11.816  15.473  66.050  0.00  0.00     0.082 H 
ATOM     60  H48 non d ame     -11.450  16.125  64.318  0.00  0.00     0.082 H 
BRANCH  58  61
ATOM     61  C35 non d ame     -11.228  13.994  64.590  0.00  0.00    -0.034 A 
ATOM     62  C30 non d ame     -12.358  13.494  63.951  0.00  0.00    -0.075 A 
ATOM     63  C31 non d ame     -12.363  12.190  63.458  0.00  0.00    -0.082 A 
ATOM     64  H49 non d ame     -13.240  14.125  63.836  0.00  0.00     0.084 H 
ATOM     65  C32 non d ame     -11.232  11.383  63.610  0.00  0.00    -0.083 A 
ATOM     66  H50 non d ame     -13.249  11.803  62.956  0.00  0.00     0.083 H 
ATOM     67  C33 non d ame     -10.107  11.884  64.251  0.00  0.00    -0.082 A 
ATOM     68  H51 non d ame     -11.228  10.363  63.227  0.00  0.00     0.083 H 
ATOM     69  C34 non d ame     -10.098  13.188  64.743  0.00  0.00    -0.075 A 
ATOM     70  H52 non d ame      -9.228  11.251  64.369  0.00  0.00     0.083 H 
ATOM     71  H53 non d ame      -9.210  13.575  65.244  0.00  0.00     0.084 H 
ENDBRANCH  58  61
ENDBRANCH  57  58
ENDBRANCH  55  57
ENDBRANCH  52  55
ENDBRANCH  49  52
ENDBRANCH  47  49
BRANCH  47  72
ATOM     72  C24 non d ame     -11.982  13.683  68.826  0.00  0.00    -0.039 C 
ATOM     73  H35 non d ame     -12.078  14.548  68.169  0.00  0.00     0.036 H 
ATOM     74  H36 non d ame     -12.715  12.878  68.776  0.00  0.00     0.036 H 
BRANCH  72  75
ATOM     75  C25 non d ame     -11.982  14.230  70.331  0.00  0.00    -0.001 C 
ATOM     76  C26 non d ame     -13.007  13.332  71.252  0.00  0.00    -0.035 C 
ATOM     77  C27 non d ame     -13.847  14.167  71.910  0.00  0.00     0.085 C 
ATOM     78  H38 non d ame     -13.672  12.752  70.614  0.00  0.00     0.036 H 
ATOM     79  H39 non d ame     -12.456  12.841  72.054  0.00  0.00     0.036 H 
ATOM     80  N5  non d ame     -13.704  15.528  71.272  0.00  0.00    -0.049 N 
ATOM     81  H40 non d ame     -14.849  13.786  71.713  0.00  0.00     0.075 H 
ATOM     82  H41 non d ame     -13.471  14.212  72.931  0.00  0.00     0.075 H 
ATOM     83  C28 non d ame     -12.359  15.463  70.382  0.00  0.00     0.193 C 
ATOM     84  H42 non d ame     -14.494  15.639  70.654  0.00  0.00     0.280 HD
ATOM     85  H43 non d ame     -13.558  16.184  72.027  0.00  0.00     0.280 HD
ATOM     86  H44 non d ame     -11.441  15.938  70.729  0.00  0.00     0.129 H 
ATOM     87  H37 non d ame     -10.973  14.380  70.716  0.00  0.00     0.046 H 
BRANCH  83  88
ATOM     88  O6  non d ame     -12.601  16.006  69.082  0.00  0.00    -0.369 OA
ATOM     89  H45 non d ame     -12.827  15.296  68.477  0.00  0.00     0.212 HD
ENDBRANCH  83  88
ENDBRANCH  72  75
ENDBRANCH  47  72
ENDBRANCH  45  47
ENDBRANCH   1  43
BRANCH   1  90
ATOM     90  C16 non d ame     -10.017   9.366  70.607  0.00  0.00    -0.035 C 
ATOM     91  H21 non d ame      -9.929  10.449  70.710  0.00  0.00     0.037 H 
ATOM     92  H22 non d ame     -10.529   8.786  71.374  0.00  0.00     0.037 H 
BRANCH  90  93
ATOM     93  C17 non d ame      -8.560   8.810  70.531  0.00  0.00    -0.059 C 
ATOM     94  H23 non d ame      -8.545   8.025  69.776  0.00  0.00     0.038 H 
BRANCH  93  95
ATOM     95  C18 non d ame      -7.532   9.905  70.099  0.00  0.00    -0.073 C 
ATOM     96  H24 non d ame      -6.783  10.028  70.881  0.00  0.00     0.028 H 
ATOM     97  H25 non d ame      -7.045   9.601  69.173  0.00  0.00     0.028 H 
ATOM     98  H26 non d ame      -8.053  10.850  69.942  0.00  0.00     0.028 H 
ENDBRANCH  93  95
BRANCH  93  99
ATOM     99  C19 non d ame      -8.148   8.171  71.860  0.00  0.00    -0.073 C 
ATOM    100  H27 non d ame      -7.098   8.390  72.058  0.00  0.00     0.028 H 
ATOM    101  H28 non d ame      -8.762   8.578  72.663  0.00  0.00     0.028 H 
ATOM    102  H29 non d ame      -8.291   7.092  71.805  0.00  0.00     0.028 H 
ENDBRANCH  93  99
ENDBRANCH  90  93
ENDBRANCH   1  90
TORSDOF 26
ENDMDL
MODEL 19
REMARK VINA RESULT:      -6.0      2.680      7.316
REMARK  26 active torsions:
REMARK  status: ('A' for Active; 'I' for Inactive)
REMARK    1  A    between atoms: C2_2  and  C3_3 
REMARK    2  A    between atoms: C4_6  and  C5_7 
REMARK       I    between atoms: C5_7  and  N2_9 
REMARK    3  A    between atoms: N2_9  and  C6_10 
REMARK    4  A    between atoms: C6_10  and  C7_11 
REMARK    5  A    between atoms: C6_10  and  C8_13 
REMARK       I    between atoms: C7_11  and  N3_14 
REMARK    6  A    between atoms: N3_14  and  C9_15 
REMARK    7  A    between atoms: C9_15  and  C10_16 
REMARK    8  A    between atoms: C9_15  and  C11_18 
REMARK       I    between atoms: C10_16  and  N4_21 
REMARK    9  A    between atoms: C11_18  and  C12_19 
REMARK   10  A    between atoms: C11_18  and  C13_20 
REMARK   11  A    between atoms: N4_21  and  C14_22 
REMARK   12  A    between atoms: C14_22  and  C15_23 
REMARK   13  A    between atoms: C14_22  and  C16_25 
REMARK       I    between atoms: C15_23  and  N6_40 
REMARK   14  A    between atoms: C16_25  and  C17_26 
REMARK   15  A    between atoms: C17_26  and  C18_27 
REMARK   16  A    between atoms: C17_26  and  C19_28 
REMARK   17  A    between atoms: C20_29  and  C21_30 
REMARK   18  A    between atoms: C20_29  and  C24_33 
REMARK   19  A    between atoms: C20_29  and  N6_40 
REMARK   20  A    between atoms: C21_30  and  C22_31 
REMARK   21  A    between atoms: C22_31  and  C23_32 
REMARK   22  A    between atoms: C23_32  and  O8_43 
REMARK   23  A    between atoms: C24_33  and  C25_34 
REMARK   24  A    between atoms: C28_38  and  O6_39 
REMARK   25  A    between atoms: C29_42  and  O8_43 
REMARK   26  A    between atoms: C29_42  and  C35_49 
ROOT
ATOM      1  C14 non d ame      -6.619  11.175  67.049  0.00  0.00     0.089 C 
ATOM      2  H20 non d ame      -5.661  10.682  66.879  0.00  0.00     0.087 H 
ENDROOT
BRANCH   1   3
ATOM      3  N4  non d ame      -7.405  11.034  65.832  0.00  0.00    -0.346 N 
ATOM      4  C10 non d ame      -7.331   9.764  65.021  0.00  0.00     0.241 C 
ATOM      5  O4  non d ame      -6.629   8.871  65.366  0.00  0.00    -0.271 OA
ATOM      6  H19 non d ame      -7.995  11.806  65.554  0.00  0.00     0.163 HD
BRANCH   4   7
ATOM      7  C9  non d ame      -8.156   9.632  63.767  0.00  0.00     0.092 C 
ATOM      8  H11 non d ame      -8.712   8.695  63.800  0.00  0.00     0.088 H 
BRANCH   7   9
ATOM      9  N3  non d ame      -9.141  10.717  63.714  0.00  0.00    -0.346 N 
ATOM     10  C7  non d ame     -10.226  10.753  64.662  0.00  0.00     0.240 C 
ATOM     11  O3  non d ame     -10.324   9.917  65.476  0.00  0.00    -0.271 OA
ATOM     12  H10 non d ame      -9.071  11.446  63.017  0.00  0.00     0.163 HD
BRANCH  10  13
ATOM     13  C6  non d ame     -11.273  11.909  64.597  0.00  0.00     0.086 C 
ATOM     14  H6  non d ame     -11.965  11.899  65.439  0.00  0.00     0.086 H 
BRANCH  13  15
ATOM     15  N2  non d ame     -10.573  13.182  64.650  0.00  0.00    -0.343 N 
ATOM     16  C5  non d ame     -10.432  13.877  65.931  0.00  0.00     0.273 C 
ATOM     17  O2  non d ame     -10.888  13.404  66.913  0.00  0.00    -0.266 OA
ATOM     18  H5  non d ame     -10.189  13.580  63.804  0.00  0.00     0.163 HD
BRANCH  16  19
ATOM     19  C4  non d ame      -9.694  15.222  66.001  0.00  0.00     0.154 A 
ATOM     20  C1  non d ame      -8.447  15.492  66.650  0.00  0.00    -0.017 A 
ATOM     21  C2  non d ame      -8.209  16.866  66.421  0.00  0.00     0.077 A 
ATOM     22  H1  non d ame      -7.812  14.798  67.201  0.00  0.00     0.091 H 
ATOM     23  O1  non d ame      -9.206  17.321  65.721  0.00  0.00    -0.218 OA
ATOM     24  N1  non d ame     -10.085  16.381  65.463  0.00  0.00    -0.123 NA
BRANCH  21  25
ATOM     25  C3  non d ame      -7.005  17.664  66.905  0.00  0.00    -0.029 C 
ATOM     26  H2  non d ame      -6.946  17.611  67.992  0.00  0.00     0.036 H 
ATOM     27  H3  non d ame      -6.096  17.250  66.471  0.00  0.00     0.036 H 
ATOM     28  H4  non d ame      -7.112  18.705  66.598  0.00  0.00     0.036 H 
ENDBRANCH  21  25
ENDBRANCH  16  19
ENDBRANCH  13  15
BRANCH  13  29
ATOM     29  C8  non d ame     -12.062  11.806  63.317  0.00  0.00    -0.049 C 
ATOM     30  H7  non d ame     -12.114  12.786  62.843  0.00  0.00     0.030 H 
ATOM     31  H8  non d ame     -11.573  11.102  62.644  0.00  0.00     0.030 H 
ATOM     32  H9  non d ame     -13.070  11.457  63.539  0.00  0.00     0.030 H 
ENDBRANCH  13  29
ENDBRANCH  10  13
ENDBRANCH   7   9
BRANCH   7  33
ATOM     33  C11 non d ame      -7.225   9.718  62.523  0.00  0.00    -0.033 C 
ATOM     34  H12 non d ame      -7.127   8.713  62.116  0.00  0.00     0.042 H 
BRANCH  33  35
ATOM     35  C12 non d ame      -7.846  10.617  61.409  0.00  0.00    -0.071 C 
ATOM     36  H13 non d ame      -8.286   9.987  60.636  0.00  0.00     0.028 H 
ATOM     37  H14 non d ame      -8.618  11.252  61.843  0.00  0.00     0.028 H 
ATOM     38  H15 non d ame      -7.067  11.240  60.970  0.00  0.00     0.028 H 
ENDBRANCH  33  35
BRANCH  33  39
ATOM     39  C13 non d ame      -5.800  10.218  62.924  0.00  0.00    -0.071 C 
ATOM     40  H16 non d ame      -5.421   9.614  63.748  0.00  0.00     0.028 H 
ATOM     41  H17 non d ame      -5.129  10.128  62.069  0.00  0.00     0.028 H 
ATOM     42  H18 non d ame      -5.855  11.262  63.233  0.00  0.00     0.028 H 
ENDBRANCH  33  39
ENDBRANCH   7  33
ENDBRANCH   4   7
ENDBRANCH   1   3
BRANCH   1  43
ATOM     43  C15 non d ame      -7.410  10.536  68.226  0.00  0.00     0.240 C 
ATOM     44  O5  non d ame      -7.344  11.015  69.311  0.00  0.00    -0.271 OA
ATOM     45  N6  non d ame      -8.257   9.331  67.997  0.00  0.00    -0.355 N 
ATOM     46  H46 non d ame      -8.324   8.918  67.078  0.00  0.00     0.162 HD
BRANCH  45  47
ATOM     47  C20 non d ame      -9.004   8.736  69.126  0.00  0.00     0.013 C 
ATOM     48  H30 non d ame      -8.609   9.159  70.050  0.00  0.00     0.072 H 
BRANCH  47  49
ATOM     49  C21 non d ame      -8.807   7.236  69.120  0.00  0.00    -0.038 C 
ATOM     50  H31 non d ame      -8.159   7.027  68.270  0.00  0.00     0.036 H 
ATOM     51  H32 non d ame      -8.484   6.978  70.129  0.00  0.00     0.036 H 
BRANCH  49  52
ATOM     52  C22 non d ame     -10.120   6.462  68.870  0.00  0.00     0.018 C 
ATOM     53  H33 non d ame     -10.065   5.575  69.503  0.00  0.00     0.048 H 
ATOM     54  H34 non d ame     -10.922   7.185  69.014  0.00  0.00     0.048 H 
BRANCH  52  55
ATOM     55  C23 non d ame     -10.270   5.938  67.414  0.00  0.00     0.259 C 
ATOM     56  O7  non d ame     -11.271   6.135  66.804  0.00  0.00    -0.265 OA
BRANCH  55  57
ATOM     57  O8  non d ame      -9.203   5.208  66.823  0.00  0.00    -0.317 OA
BRANCH  57  58
ATOM     58  C29 non d ame      -9.210   5.224  65.392  0.00  0.00     0.052 C 
ATOM     59  H47 non d ame      -9.536   4.230  65.088  0.00  0.00     0.082 H 
ATOM     60  H48 non d ame      -9.795   6.099  65.110  0.00  0.00     0.082 H 
BRANCH  58  61
ATOM     61  C35 non d ame      -7.751   5.433  64.908  0.00  0.00    -0.034 A 
ATOM     62  C30 non d ame      -6.687   5.173  65.766  0.00  0.00    -0.075 A 
ATOM     63  C31 non d ame      -5.376   5.360  65.330  0.00  0.00    -0.082 A 
ATOM     64  H49 non d ame      -6.881   4.821  66.779  0.00  0.00     0.084 H 
ATOM     65  C32 non d ame      -5.131   5.814  64.032  0.00  0.00    -0.083 A 
ATOM     66  H50 non d ame      -4.545   5.152  66.005  0.00  0.00     0.083 H 
ATOM     67  C33 non d ame      -6.195   6.076  63.179  0.00  0.00    -0.082 A 
ATOM     68  H51 non d ame      -4.109   5.962  63.683  0.00  0.00     0.083 H 
ATOM     69  C34 non d ame      -7.507   5.887  63.610  0.00  0.00    -0.075 A 
ATOM     70  H52 non d ame      -6.000   6.431  62.167  0.00  0.00     0.083 H 
ATOM     71  H53 non d ame      -8.337   6.094  62.934  0.00  0.00     0.084 H 
ENDBRANCH  58  61
ENDBRANCH  57  58
ENDBRANCH  55  57
ENDBRANCH  52  55
ENDBRANCH  49  52
ENDBRANCH  47  49
BRANCH  47  72
ATOM     72  C24 non d ame     -10.490   9.056  68.987  0.00  0.00    -0.039 C 
ATOM     73  H35 non d ame     -10.567   9.707  68.116  0.00  0.00     0.036 H 
ATOM     74  H36 non d ame     -10.997   8.091  68.992  0.00  0.00     0.036 H 
BRANCH  72  75
ATOM     75  C25 non d ame     -11.039   9.884  70.244  0.00  0.00    -0.001 C 
ATOM     76  C26 non d ame     -11.611   8.850  71.388  0.00  0.00    -0.035 C 
ATOM     77  C27 non d ame     -12.861   9.237  71.739  0.00  0.00     0.085 C 
ATOM     78  H38 non d ame     -11.762   7.862  70.957  0.00  0.00     0.036 H 
ATOM     79  H39 non d ame     -11.042   8.962  72.311  0.00  0.00     0.036 H 
ATOM     80  N5  non d ame     -13.318  10.240  70.707  0.00  0.00    -0.049 N 
ATOM     81  H40 non d ame     -13.476   8.340  71.661  0.00  0.00     0.075 H 
ATOM     82  H41 non d ame     -12.751   9.741  72.699  0.00  0.00     0.075 H 
ATOM     83  C28 non d ame     -11.993  10.683  69.899  0.00  0.00     0.193 C 
ATOM     84  H42 non d ame     -13.929   9.743  70.076  0.00  0.00     0.280 HD
ATOM     85  H43 non d ame     -13.664  11.040  71.219  0.00  0.00     0.280 HD
ATOM     86  H44 non d ame     -11.523  11.647  70.090  0.00  0.00     0.129 H 
ATOM     87  H37 non d ame     -10.334  10.648  70.574  0.00  0.00     0.046 H 
BRANCH  83  88
ATOM     88  O6  non d ame     -12.239  10.651  68.492  0.00  0.00    -0.369 OA
ATOM     89  H45 non d ame     -11.682   9.983  68.086  0.00  0.00     0.212 HD
ENDBRANCH  83  88
ENDBRANCH  72  75
ENDBRANCH  47  72
ENDBRANCH  45  47
ENDBRANCH   1  43
BRANCH   1  90
ATOM     90  C16 non d ame      -6.395  12.653  67.325  0.00  0.00    -0.035 C 
ATOM     91  H21 non d ame      -6.596  13.157  66.379  0.00  0.00     0.037 H 
ATOM     92  H22 non d ame      -7.002  12.878  68.202  0.00  0.00     0.037 H 
BRANCH  90  93
ATOM     93  C17 non d ame      -4.922  13.003  67.707  0.00  0.00    -0.059 C 
ATOM     94  H23 non d ame      -4.596  13.814  67.056  0.00  0.00     0.038 H 
BRANCH  93  95
ATOM     95  C18 non d ame      -4.797  13.499  69.183  0.00  0.00    -0.073 C 
ATOM     96  H24 non d ame      -4.042  14.283  69.241  0.00  0.00     0.028 H 
ATOM     97  H25 non d ame      -5.757  13.894  69.516  0.00  0.00     0.028 H 
ATOM     98  H26 non d ame      -4.506  12.665  69.823  0.00  0.00     0.028 H 
ENDBRANCH  93  95
BRANCH  93  99
ATOM     99  C19 non d ame      -3.992  11.814  67.451  0.00  0.00    -0.073 C 
ATOM    100  H27 non d ame      -4.011  11.146  68.314  0.00  0.00     0.028 H 
ATOM    101  H28 non d ame      -4.329  11.275  66.566  0.00  0.00     0.028 H 
ATOM    102  H29 non d ame      -2.976  12.174  67.291  0.00  0.00     0.028 H 
ENDBRANCH  93  99
ENDBRANCH  90  93
ENDBRANCH   1  90
TORSDOF 26
ENDMDL
MODEL 20
REMARK VINA RESULT:      -6.0      2.045      8.037
REMARK  26 active torsions:
REMARK  status: ('A' for Active; 'I' for Inactive)
REMARK    1  A    between atoms: C2_2  and  C3_3 
REMARK    2  A    between atoms: C4_6  and  C5_7 
REMARK       I    between atoms: C5_7  and  N2_9 
REMARK    3  A    between atoms: N2_9  and  C6_10 
REMARK    4  A    between atoms: C6_10  and  C7_11 
REMARK    5  A    between atoms: C6_10  and  C8_13 
REMARK       I    between atoms: C7_11  and  N3_14 
REMARK    6  A    between atoms: N3_14  and  C9_15 
REMARK    7  A    between atoms: C9_15  and  C10_16 
REMARK    8  A    between atoms: C9_15  and  C11_18 
REMARK       I    between atoms: C10_16  and  N4_21 
REMARK    9  A    between atoms: C11_18  and  C12_19 
REMARK   10  A    between atoms: C11_18  and  C13_20 
REMARK   11  A    between atoms: N4_21  and  C14_22 
REMARK   12  A    between atoms: C14_22  and  C15_23 
REMARK   13  A    between atoms: C14_22  and  C16_25 
REMARK       I    between atoms: C15_23  and  N6_40 
REMARK   14  A    between atoms: C16_25  and  C17_26 
REMARK   15  A    between atoms: C17_26  and  C18_27 
REMARK   16  A    between atoms: C17_26  and  C19_28 
REMARK   17  A    between atoms: C20_29  and  C21_30 
REMARK   18  A    between atoms: C20_29  and  C24_33 
REMARK   19  A    between atoms: C20_29  and  N6_40 
REMARK   20  A    between atoms: C21_30  and  C22_31 
REMARK   21  A    between atoms: C22_31  and  C23_32 
REMARK   22  A    between atoms: C23_32  and  O8_43 
REMARK   23  A    between atoms: C24_33  and  C25_34 
REMARK   24  A    between atoms: C28_38  and  O6_39 
REMARK   25  A    between atoms: C29_42  and  O8_43 
REMARK   26  A    between atoms: C29_42  and  C35_49 
ROOT
ATOM      1  C14 non d ame      -6.576  13.609  68.078  0.00  0.00     0.089 C 
ATOM      2  H20 non d ame      -5.711  13.538  67.417  0.00  0.00     0.087 H 
ENDROOT
BRANCH   1   3
ATOM      3  N4  non d ame      -6.890  15.021  68.239  0.00  0.00    -0.346 N 
ATOM      4  C10 non d ame      -5.964  16.075  67.684  0.00  0.00     0.241 C 
ATOM      5  O4  non d ame      -4.970  15.762  67.115  0.00  0.00    -0.271 OA
ATOM      6  H19 non d ame      -7.739  15.268  68.728  0.00  0.00     0.163 HD
BRANCH   4   7
ATOM      7  C9  non d ame      -6.307  17.532  67.854  0.00  0.00     0.092 C 
ATOM      8  H11 non d ame      -6.025  18.075  66.952  0.00  0.00     0.088 H 
BRANCH   7   9
ATOM      9  N3  non d ame      -7.757  17.678  68.011  0.00  0.00    -0.346 N 
ATOM     10  C7  non d ame      -8.573  18.033  66.877  0.00  0.00     0.240 C 
ATOM     11  O3  non d ame      -8.080  18.206  65.830  0.00  0.00    -0.271 OA
ATOM     12  H10 non d ame      -8.197  17.532  68.909  0.00  0.00     0.163 HD
BRANCH  10  13
ATOM     13  C6  non d ame     -10.116  18.190  67.051  0.00  0.00     0.086 C 
ATOM     14  H6  non d ame     -10.683  17.673  66.277  0.00  0.00     0.086 H 
BRANCH  13  15
ATOM     15  N2  non d ame     -10.509  17.599  68.320  0.00  0.00    -0.343 N 
ATOM     16  C5  non d ame     -11.085  16.252  68.341  0.00  0.00     0.273 C 
ATOM     17  O2  non d ame     -11.231  15.655  67.332  0.00  0.00    -0.266 OA
ATOM     18  H5  non d ame     -10.383  18.118  69.177  0.00  0.00     0.163 HD
BRANCH  16  19
ATOM     19  C4  non d ame     -11.504  15.615  69.675  0.00  0.00     0.154 A 
ATOM     20  C1  non d ame     -11.607  16.261  70.948  0.00  0.00    -0.017 A 
ATOM     21  C2  non d ame     -12.027  15.247  71.837  0.00  0.00     0.077 A 
ATOM     22  H1  non d ame     -11.408  17.306  71.189  0.00  0.00     0.091 H 
ATOM     23  O1  non d ame     -12.150  14.152  71.146  0.00  0.00    -0.218 OA
ATOM     24  N1  non d ame     -11.850  14.341  69.881  0.00  0.00    -0.123 NA
BRANCH  21  25
ATOM     25  C3  non d ame     -12.289  15.409  73.329  0.00  0.00    -0.029 C 
ATOM     26  H2  non d ame     -13.243  15.915  73.478  0.00  0.00     0.036 H 
ATOM     27  H3  non d ame     -12.320  14.427  73.800  0.00  0.00     0.036 H 
ATOM     28  H4  non d ame     -11.489  16.001  73.776  0.00  0.00     0.036 H 
ENDBRANCH  21  25
ENDBRANCH  16  19
ENDBRANCH  13  15
BRANCH  13  29
ATOM     29  C8  non d ame     -10.481  19.652  67.028  0.00  0.00    -0.049 C 
ATOM     30  H7  non d ame      -9.611  20.239  66.731  0.00  0.00     0.030 H 
ATOM     31  H8  non d ame     -11.290  19.815  66.317  0.00  0.00     0.030 H 
ATOM     32  H9  non d ame     -10.803  19.962  68.023  0.00  0.00     0.030 H 
ENDBRANCH  13  29
ENDBRANCH  10  13
ENDBRANCH   7   9
BRANCH   7  33
ATOM     33  C11 non d ame      -5.591  18.088  69.120  0.00  0.00    -0.033 C 
ATOM     34  H12 non d ame      -5.605  17.305  69.876  0.00  0.00     0.042 H 
BRANCH  33  35
ATOM     35  C12 non d ame      -4.098  18.431  68.825  0.00  0.00    -0.071 C 
ATOM     36  H13 non d ame      -3.955  18.539  67.749  0.00  0.00     0.028 H 
ATOM     37  H14 non d ame      -3.834  19.363  69.322  0.00  0.00     0.028 H 
ATOM     38  H15 non d ame      -3.462  17.628  69.196  0.00  0.00     0.028 H 
ENDBRANCH  33  35
BRANCH  33  39
ATOM     39  C13 non d ame      -6.353  19.327  69.693  0.00  0.00    -0.071 C 
ATOM     40  H16 non d ame      -7.097  18.993  70.415  0.00  0.00     0.028 H 
ATOM     41  H17 non d ame      -5.643  19.994  70.185  0.00  0.00     0.028 H 
ATOM     42  H18 non d ame      -6.847  19.858  68.880  0.00  0.00     0.028 H 
ENDBRANCH  33  39
ENDBRANCH   7  33
ENDBRANCH   4   7
ENDBRANCH   1   3
BRANCH   1  43
ATOM     43  C15 non d ame      -7.824  12.889  67.493  0.00  0.00     0.240 C 
ATOM     44  O5  non d ame      -8.913  13.281  67.760  0.00  0.00    -0.271 OA
ATOM     45  N6  non d ame      -7.660  11.714  66.590  0.00  0.00    -0.355 N 
ATOM     46  H46 non d ame      -6.740  11.374  66.352  0.00  0.00     0.162 HD
BRANCH  45  47
ATOM     47  C20 non d ame      -8.857  11.040  66.040  0.00  0.00     0.013 C 
ATOM     48  H30 non d ame      -9.704  11.717  66.151  0.00  0.00     0.072 H 
BRANCH  47  49
ATOM     49  C21 non d ame      -9.112   9.765  66.812  0.00  0.00    -0.038 C 
ATOM     50  H31 non d ame      -8.861   8.953  66.130  0.00  0.00     0.036 H 
ATOM     51  H32 non d ame      -8.569   9.876  67.751  0.00  0.00     0.036 H 
BRANCH  49  52
ATOM     52  C22 non d ame     -10.598   9.578  67.185  0.00  0.00     0.018 C 
ATOM     53  H33 non d ame     -11.130   9.475  66.239  0.00  0.00     0.048 H 
ATOM     54  H34 non d ame     -10.621   8.768  67.914  0.00  0.00     0.048 H 
BRANCH  52  55
ATOM     55  C23 non d ame     -11.226  10.811  67.895  0.00  0.00     0.259 C 
ATOM     56  O7  non d ame     -11.982  11.520  67.315  0.00  0.00    -0.265 OA
BRANCH  55  57
ATOM     57  O8  non d ame     -10.874  11.090  69.245  0.00  0.00    -0.317 OA
BRANCH  57  58
ATOM     58  C29 non d ame     -11.866  10.696  70.198  0.00  0.00     0.052 C 
ATOM     59  H47 non d ame     -12.002  11.554  70.855  0.00  0.00     0.082 H 
ATOM     60  H48 non d ame     -12.705  10.321  69.612  0.00  0.00     0.082 H 
BRANCH  58  61
ATOM     61  C35 non d ame     -11.288   9.523  71.033  0.00  0.00    -0.034 A 
ATOM     62  C30 non d ame     -12.128   8.752  71.829  0.00  0.00    -0.075 A 
ATOM     63  C31 non d ame     -11.608   7.698  72.579  0.00  0.00    -0.082 A 
ATOM     64  H49 non d ame     -13.196   8.973  71.865  0.00  0.00     0.084 H 
ATOM     65  C32 non d ame     -10.240   7.419  72.534  0.00  0.00    -0.083 A 
ATOM     66  H50 non d ame     -12.271   7.094  73.199  0.00  0.00     0.083 H 
ATOM     67  C33 non d ame      -9.403   8.193  71.741  0.00  0.00    -0.082 A 
ATOM     68  H51 non d ame      -9.825   6.596  73.116  0.00  0.00     0.083 H 
ATOM     69  C34 non d ame      -9.920   9.246  70.988  0.00  0.00    -0.075 A 
ATOM     70  H52 non d ame      -8.336   7.973  71.709  0.00  0.00     0.083 H 
ATOM     71  H53 non d ame      -9.256   9.848  70.366  0.00  0.00     0.084 H 
ENDBRANCH  58  61
ENDBRANCH  57  58
ENDBRANCH  55  57
ENDBRANCH  52  55
ENDBRANCH  49  52
ENDBRANCH  47  49
BRANCH  47  72
ATOM     72  C24 non d ame      -8.631  10.708  64.567  0.00  0.00    -0.039 C 
ATOM     73  H35 non d ame      -9.616  10.461  64.171  0.00  0.00     0.036 H 
ATOM     74  H36 non d ame      -8.078  11.556  64.160  0.00  0.00     0.036 H 
BRANCH  72  75
ATOM     75  C25 non d ame      -7.708   9.412  64.385  0.00  0.00    -0.001 C 
ATOM     76  C26 non d ame      -6.169   9.866  64.026  0.00  0.00    -0.035 C 
ATOM     77  C27 non d ame      -5.762   9.194  62.922  0.00  0.00     0.085 C 
ATOM     78  H38 non d ame      -6.150  10.909  63.711  0.00  0.00     0.036 H 
ATOM     79  H39 non d ame      -5.486   9.518  64.801  0.00  0.00     0.036 H 
ATOM     80  N5  non d ame      -6.993   8.572  62.306  0.00  0.00    -0.049 N 
ATOM     81  H40 non d ame      -5.372   9.956  62.245  0.00  0.00     0.075 H 
ATOM     82  H41 non d ame      -5.109   8.403  63.287  0.00  0.00     0.075 H 
ATOM     83  C28 non d ame      -8.145   8.656  63.433  0.00  0.00     0.193 C 
ATOM     84  H42 non d ame      -7.256   9.165  61.532  0.00  0.00     0.280 HD
ATOM     85  H43 non d ame      -6.771   7.600  62.145  0.00  0.00     0.280 HD
ATOM     86  H44 non d ame      -8.432   7.770  64.000  0.00  0.00     0.129 H 
ATOM     87  H37 non d ame      -7.837   8.696  65.197  0.00  0.00     0.046 H 
BRANCH  83  88
ATOM     88  O6  non d ame      -9.357   9.153  62.864  0.00  0.00    -0.369 OA
ATOM     89  H45 non d ame      -9.183   9.481  61.978  0.00  0.00     0.212 HD
ENDBRANCH  83  88
ENDBRANCH  72  75
ENDBRANCH  47  72
ENDBRANCH  45  47
ENDBRANCH   1  43
BRANCH   1  90
ATOM     90  C16 non d ame      -6.236  13.020  69.437  0.00  0.00    -0.035 C 
ATOM     91  H21 non d ame      -5.462  13.670  69.848  0.00  0.00     0.037 H 
ATOM     92  H22 non d ame      -7.190  12.915  69.954  0.00  0.00     0.037 H 
BRANCH  90  93
ATOM     93  C17 non d ame      -5.615  11.588  69.362  0.00  0.00    -0.059 C 
ATOM     94  H23 non d ame      -5.478  11.342  68.309  0.00  0.00     0.038 H 
BRANCH  93  95
ATOM     95  C18 non d ame      -4.216  11.515  70.054  0.00  0.00    -0.073 C 
ATOM     96  H24 non d ame      -3.444  11.810  69.343  0.00  0.00     0.028 H 
ATOM     97  H25 non d ame      -4.199  12.191  70.909  0.00  0.00     0.028 H 
ATOM     98  H26 non d ame      -4.031  10.496  70.392  0.00  0.00     0.028 H 
ENDBRANCH  93  95
BRANCH  93  99
ATOM     99  C19 non d ame      -6.569  10.546  69.952  0.00  0.00    -0.073 C 
ATOM    100  H27 non d ame      -7.218  10.162  69.164  0.00  0.00     0.028 H 
ATOM    101  H28 non d ame      -5.991   9.727  70.380  0.00  0.00     0.028 H 
ATOM    102  H29 non d ame      -7.176  11.008  70.731  0.00  0.00     0.028 H 
ENDBRANCH  93  99
ENDBRANCH  90  93
ENDBRANCH   1  90
TORSDOF 26
ENDMDL
