MODEL 1
REMARK VINA RESULT:      -7.1      0.000      0.000
REMARK  26 active torsions:
REMARK  status: ('A' for Active; 'I' for Inactive)
REMARK    1  A    between atoms: C2_2  and  C3_3 
REMARK    2  A    between atoms: C4_6  and  C5_7 
REMARK       I    between atoms: C5_7  and  N2_9 
REMARK    3  A    between atoms: N2_9  and  C6_10 
REMARK    4  A    between atoms: C6_10  and  C7_11 
REMARK    5  A    between atoms: C6_10  and  C8_13 
REMARK       I    between atoms: C7_11  and  N3_14 
REMARK    6  A    between atoms: N3_14  and  C9_15 
REMARK    7  A    between atoms: C9_15  and  C10_16 
REMARK    8  A    between atoms: C9_15  and  C11_18 
REMARK       I    between atoms: C10_16  and  N4_21 
REMARK    9  A    between atoms: C11_18  and  C12_19 
REMARK   10  A    between atoms: C11_18  and  C13_20 
REMARK   11  A    between atoms: N4_21  and  C14_22 
REMARK   12  A    between atoms: C14_22  and  C15_23 
REMARK   13  A    between atoms: C14_22  and  C16_25 
REMARK       I    between atoms: C15_23  and  N6_40 
REMARK   14  A    between atoms: C16_25  and  C17_26 
REMARK   15  A    between atoms: C17_26  and  C18_27 
REMARK   16  A    between atoms: C17_26  and  C19_28 
REMARK   17  A    between atoms: C20_29  and  C21_30 
REMARK   18  A    between atoms: C20_29  and  C24_33 
REMARK   19  A    between atoms: C20_29  and  N6_40 
REMARK   20  A    between atoms: C21_30  and  C22_31 
REMARK   21  A    between atoms: C22_31  and  C23_32 
REMARK   22  A    between atoms: C23_32  and  O8_43 
REMARK   23  A    between atoms: C24_33  and  C25_34 
REMARK   24  A    between atoms: C28_38  and  O6_39 
REMARK   25  A    between atoms: C29_42  and  O8_43 
REMARK   26  A    between atoms: C29_42  and  C35_49 
ROOT
ATOM      1  C14 non d ame     -12.071  13.673  69.539  0.00  0.00     0.089 C 
ATOM      2  H20 non d ame     -13.040  13.454  69.087  0.00  0.00     0.087 H 
ENDROOT
BRANCH   1   3
ATOM      3  N4  non d ame     -11.598  12.453  70.174  0.00  0.00    -0.346 N 
ATOM      4  C10 non d ame     -11.741  11.124  69.472  0.00  0.00     0.241 C 
ATOM      5  O4  non d ame     -12.243  11.064  68.398  0.00  0.00    -0.271 OA
ATOM      6  H19 non d ame     -11.176  12.525  71.089  0.00  0.00     0.163 HD
BRANCH   4   7
ATOM      7  C9  non d ame     -11.241   9.871  70.142  0.00  0.00     0.092 C 
ATOM      8  H11 non d ame     -11.381   9.025  69.470  0.00  0.00     0.088 H 
BRANCH   7   9
ATOM      9  N3  non d ame      -9.800   9.991  70.390  0.00  0.00    -0.346 N 
ATOM     10  C7  non d ame      -8.858   9.572  69.383  0.00  0.00     0.240 C 
ATOM     11  O3  non d ame      -9.239   9.135  68.367  0.00  0.00    -0.271 OA
ATOM     12  H10 non d ame      -9.456  10.366  71.263  0.00  0.00     0.163 HD
BRANCH  10  13
ATOM     13  C6  non d ame      -7.326   9.699  69.656  0.00  0.00     0.086 C 
ATOM     14  H6  non d ame      -6.721   9.171  68.918  0.00  0.00     0.086 H 
BRANCH  13  15
ATOM     15  N2  non d ame      -6.949  11.101  69.576  0.00  0.00    -0.343 N 
ATOM     16  C5  non d ame      -6.565  11.673  68.284  0.00  0.00     0.273 C 
ATOM     17  O2  non d ame      -6.561  10.997  67.315  0.00  0.00    -0.266 OA
ATOM     18  H5  non d ame      -6.953  11.671  70.411  0.00  0.00     0.163 HD
BRANCH  16  19
ATOM     19  C4  non d ame      -6.165  13.154  68.186  0.00  0.00     0.154 A 
ATOM     20  C1  non d ame      -5.280  13.870  69.054  0.00  0.00    -0.017 A 
ATOM     21  C2  non d ame      -5.249  15.183  68.536  0.00  0.00     0.077 A 
ATOM     22  H1  non d ame      -4.742  13.493  69.924  0.00  0.00     0.091 H 
ATOM     23  O1  non d ame      -6.025  15.208  67.493  0.00  0.00    -0.218 OA
ATOM     24  N1  non d ame      -6.572  14.035  67.269  0.00  0.00    -0.123 NA
BRANCH  21  25
ATOM     25  C3  non d ame      -4.450  16.353  69.096  0.00  0.00    -0.029 C 
ATOM     26  H2  non d ame      -4.368  16.253  70.179  0.00  0.00     0.036 H 
ATOM     27  H3  non d ame      -3.454  16.358  68.655  0.00  0.00     0.036 H 
ATOM     28  H4  non d ame      -4.958  17.289  68.856  0.00  0.00     0.036 H 
ENDBRANCH  21  25
ENDBRANCH  16  19
ENDBRANCH  13  15
BRANCH  13  29
ATOM     29  C8  non d ame      -7.009   9.156  71.025  0.00  0.00    -0.049 C 
ATOM     30  H7  non d ame      -7.633   8.283  71.223  0.00  0.00     0.030 H 
ATOM     31  H8  non d ame      -5.959   8.870  71.070  0.00  0.00     0.030 H 
ATOM     32  H9  non d ame      -7.210   9.922  71.775  0.00  0.00     0.030 H 
ENDBRANCH  13  29
ENDBRANCH  10  13
ENDBRANCH   7   9
BRANCH   7  33
ATOM     33  C11 non d ame     -11.984   9.674  71.495  0.00  0.00    -0.033 C 
ATOM     34  H12 non d ame     -11.793  10.555  72.106  0.00  0.00     0.042 H 
BRANCH  33  35
ATOM     35  C12 non d ame     -13.527   9.572  71.286  0.00  0.00    -0.071 C 
ATOM     36  H13 non d ame     -13.980   9.091  72.153  0.00  0.00     0.028 H 
ATOM     37  H14 non d ame     -13.944  10.571  71.167  0.00  0.00     0.028 H 
ATOM     38  H15 non d ame     -13.733   8.982  70.394  0.00  0.00     0.028 H 
ENDBRANCH  33  35
BRANCH  33  39
ATOM     39  C13 non d ame     -11.433   8.428  72.259  0.00  0.00    -0.071 C 
ATOM     40  H16 non d ame     -11.181   7.645  71.544  0.00  0.00     0.028 H 
ATOM     41  H17 non d ame     -10.540   8.710  72.819  0.00  0.00     0.028 H 
ATOM     42  H18 non d ame     -12.192   8.059  72.949  0.00  0.00     0.028 H 
ENDBRANCH  33  39
ENDBRANCH   7  33
ENDBRANCH   4   7
ENDBRANCH   1   3
BRANCH   1  43
ATOM     43  C15 non d ame     -11.020  14.122  68.485  0.00  0.00     0.240 C 
ATOM     44  O5  non d ame      -9.891  14.297  68.812  0.00  0.00    -0.271 OA
ATOM     45  N6  non d ame     -11.418  14.325  67.062  0.00  0.00    -0.355 N 
ATOM     46  H46 non d ame     -12.373  14.176  66.771  0.00  0.00     0.162 HD
BRANCH  45  47
ATOM     47  C20 non d ame     -10.407  14.751  66.072  0.00  0.00     0.013 C 
ATOM     48  H30 non d ame      -9.421  14.606  66.514  0.00  0.00     0.072 H 
BRANCH  47  49
ATOM     49  C21 non d ame     -10.613  16.212  65.741  0.00  0.00    -0.038 C 
ATOM     50  H31 non d ame     -10.363  16.314  64.686  0.00  0.00     0.036 H 
ATOM     51  H32 non d ame     -11.618  16.453  66.090  0.00  0.00     0.036 H 
BRANCH  49  52
ATOM     52  C22 non d ame      -9.649  17.142  66.510  0.00  0.00     0.018 C 
ATOM     53  H33 non d ame      -8.905  16.487  66.964  0.00  0.00     0.048 H 
ATOM     54  H34 non d ame      -9.340  17.903  65.795  0.00  0.00     0.048 H 
BRANCH  52  55
ATOM     55  C23 non d ame     -10.320  17.906  67.686  0.00  0.00     0.259 C 
ATOM     56  O7  non d ame     -11.158  17.382  68.345  0.00  0.00    -0.265 OA
BRANCH  55  57
ATOM     57  O8  non d ame      -9.931  19.247  67.958  0.00  0.00    -0.317 OA
BRANCH  57  58
ATOM     58  C29 non d ame      -9.031  19.798  66.992  0.00  0.00     0.052 C 
ATOM     59  H47 non d ame      -8.874  19.013  66.253  0.00  0.00     0.082 H 
ATOM     60  H48 non d ame      -9.468  20.750  66.691  0.00  0.00     0.082 H 
BRANCH  58  61
ATOM     61  C35 non d ame      -7.681  20.081  67.703  0.00  0.00    -0.034 A 
ATOM     62  C30 non d ame      -6.750  20.934  67.119  0.00  0.00    -0.075 A 
ATOM     63  C31 non d ame      -5.537  21.188  67.758  0.00  0.00    -0.082 A 
ATOM     64  H49 non d ame      -6.971  21.405  66.161  0.00  0.00     0.084 H 
ATOM     65  C32 non d ame      -5.255  20.582  68.985  0.00  0.00    -0.083 A 
ATOM     66  H50 non d ame      -4.812  21.860  67.299  0.00  0.00     0.083 H 
ATOM     67  C33 non d ame      -6.185  19.727  69.562  0.00  0.00    -0.082 A 
ATOM     68  H51 non d ame      -4.310  20.775  69.491  0.00  0.00     0.083 H 
ATOM     69  C34 non d ame      -7.399  19.473  68.928  0.00  0.00    -0.075 A 
ATOM     70  H52 non d ame      -5.960  19.255  70.519  0.00  0.00     0.083 H 
ATOM     71  H53 non d ame      -8.125  18.802  69.389  0.00  0.00     0.084 H 
ENDBRANCH  58  61
ENDBRANCH  57  58
ENDBRANCH  55  57
ENDBRANCH  52  55
ENDBRANCH  49  52
ENDBRANCH  47  49
BRANCH  47  72
ATOM     72  C24 non d ame     -10.546  13.916  64.800  0.00  0.00    -0.039 C 
ATOM     73  H35 non d ame     -11.368  14.368  64.245  0.00  0.00     0.036 H 
ATOM     74  H36 non d ame      -9.547  13.884  64.363  0.00  0.00     0.036 H 
BRANCH  72  75
ATOM     75  C25 non d ame     -10.969  12.406  65.125  0.00  0.00    -0.001 C 
ATOM     76  C26 non d ame      -9.652  11.548  65.609  0.00  0.00    -0.035 C 
ATOM     77  C27 non d ame      -9.578  10.411  64.876  0.00  0.00     0.085 C 
ATOM     78  H38 non d ame      -8.740  12.081  65.344  0.00  0.00     0.036 H 
ATOM     79  H39 non d ame      -9.795  11.185  66.627  0.00  0.00     0.036 H 
ATOM     80  N5  non d ame     -10.533  10.572  63.716  0.00  0.00    -0.049 N 
ATOM     81  H40 non d ame      -8.558  10.377  64.493  0.00  0.00     0.075 H 
ATOM     82  H41 non d ame      -9.943   9.619  65.528  0.00  0.00     0.075 H 
ATOM     83  C28 non d ame     -11.477  11.828  64.089  0.00  0.00     0.193 C 
ATOM     84  H42 non d ame      -9.971  10.818  62.915  0.00  0.00     0.280 HD
ATOM     85  H43 non d ame     -11.102   9.738  63.697  0.00  0.00     0.280 HD
ATOM     86  H44 non d ame     -12.499  11.671  64.430  0.00  0.00     0.129 H 
ATOM     87  H37 non d ame     -11.855  12.353  65.759  0.00  0.00     0.046 H 
BRANCH  83  88
ATOM     88  O6  non d ame     -11.579  12.716  62.974  0.00  0.00    -0.369 OA
ATOM     89  H45 non d ame     -11.964  12.249  62.228  0.00  0.00     0.212 HD
ENDBRANCH  83  88
ENDBRANCH  72  75
ENDBRANCH  47  72
ENDBRANCH  45  47
ENDBRANCH   1  43
BRANCH   1  90
ATOM     90  C16 non d ame     -12.229  14.754  70.596  0.00  0.00    -0.035 C 
ATOM     91  H21 non d ame     -11.243  14.857  71.052  0.00  0.00     0.037 H 
ATOM     92  H22 non d ame     -12.682  15.600  70.080  0.00  0.00     0.037 H 
BRANCH  90  93
ATOM     93  C17 non d ame     -13.208  14.364  71.749  0.00  0.00    -0.059 C 
ATOM     94  H23 non d ame     -13.313  13.280  71.741  0.00  0.00     0.038 H 
BRANCH  93  95
ATOM     95  C18 non d ame     -12.662  14.780  73.152  0.00  0.00    -0.073 C 
ATOM     96  H24 non d ame     -13.480  14.786  73.873  0.00  0.00     0.028 H 
ATOM     97  H25 non d ame     -11.901  14.068  73.471  0.00  0.00     0.028 H 
ATOM     98  H26 non d ame     -12.224  15.777  73.090  0.00  0.00     0.028 H 
ENDBRANCH  93  95
BRANCH  93  99
ATOM     99  C19 non d ame     -14.600  14.957  71.509  0.00  0.00    -0.073 C 
ATOM    100  H27 non d ame     -15.260  14.677  72.331  0.00  0.00     0.028 H 
ATOM    101  H28 non d ame     -14.526  16.043  71.454  0.00  0.00     0.028 H 
ATOM    102  H29 non d ame     -15.001  14.572  70.571  0.00  0.00     0.028 H 
ENDBRANCH  93  99
ENDBRANCH  90  93
ENDBRANCH   1  90
TORSDOF 26
ENDMDL
MODEL 2
REMARK VINA RESULT:      -6.9      1.908      5.755
REMARK  26 active torsions:
REMARK  status: ('A' for Active; 'I' for Inactive)
REMARK    1  A    between atoms: C2_2  and  C3_3 
REMARK    2  A    between atoms: C4_6  and  C5_7 
REMARK       I    between atoms: C5_7  and  N2_9 
REMARK    3  A    between atoms: N2_9  and  C6_10 
REMARK    4  A    between atoms: C6_10  and  C7_11 
REMARK    5  A    between atoms: C6_10  and  C8_13 
REMARK       I    between atoms: C7_11  and  N3_14 
REMARK    6  A    between atoms: N3_14  and  C9_15 
REMARK    7  A    between atoms: C9_15  and  C10_16 
REMARK    8  A    between atoms: C9_15  and  C11_18 
REMARK       I    between atoms: C10_16  and  N4_21 
REMARK    9  A    between atoms: C11_18  and  C12_19 
REMARK   10  A    between atoms: C11_18  and  C13_20 
REMARK   11  A    between atoms: N4_21  and  C14_22 
REMARK   12  A    between atoms: C14_22  and  C15_23 
REMARK   13  A    between atoms: C14_22  and  C16_25 
REMARK       I    between atoms: C15_23  and  N6_40 
REMARK   14  A    between atoms: C16_25  and  C17_26 
REMARK   15  A    between atoms: C17_26  and  C18_27 
REMARK   16  A    between atoms: C17_26  and  C19_28 
REMARK   17  A    between atoms: C20_29  and  C21_30 
REMARK   18  A    between atoms: C20_29  and  C24_33 
REMARK   19  A    between atoms: C20_29  and  N6_40 
REMARK   20  A    between atoms: C21_30  and  C22_31 
REMARK   21  A    between atoms: C22_31  and  C23_32 
REMARK   22  A    between atoms: C23_32  and  O8_43 
REMARK   23  A    between atoms: C24_33  and  C25_34 
REMARK   24  A    between atoms: C28_38  and  O6_39 
REMARK   25  A    between atoms: C29_42  and  O8_43 
REMARK   26  A    between atoms: C29_42  and  C35_49 
ROOT
ATOM      1  C14 non d ame     -12.178  13.441  69.855  0.00  0.00     0.089 C 
ATOM      2  H20 non d ame     -13.208  13.082  69.866  0.00  0.00     0.087 H 
ENDROOT
BRANCH   1   3
ATOM      3  N4  non d ame     -11.308  12.275  69.878  0.00  0.00    -0.346 N 
ATOM      4  C10 non d ame     -11.851  10.927  70.285  0.00  0.00     0.241 C 
ATOM      5  O4  non d ame     -12.991  10.808  70.593  0.00  0.00    -0.271 OA
ATOM      6  H19 non d ame     -10.340  12.397  69.615  0.00  0.00     0.163 HD
BRANCH   4   7
ATOM      7  C9  non d ame     -10.938   9.729  70.298  0.00  0.00     0.092 C 
ATOM      8  H11 non d ame     -11.175   9.088  69.450  0.00  0.00     0.088 H 
BRANCH   7   9
ATOM      9  N3  non d ame      -9.549  10.171  70.131  0.00  0.00    -0.346 N 
ATOM     10  C7  non d ame      -8.836   9.861  68.918  0.00  0.00     0.240 C 
ATOM     11  O3  non d ame      -9.361   9.256  68.065  0.00  0.00    -0.271 OA
ATOM     12  H10 non d ame      -9.082  10.693  70.859  0.00  0.00     0.163 HD
BRANCH  10  13
ATOM     13  C6  non d ame      -7.357  10.331  68.748  0.00  0.00     0.086 C 
ATOM     14  H6  non d ame      -7.012  10.275  67.716  0.00  0.00     0.086 H 
BRANCH  13  15
ATOM     15  N2  non d ame      -7.258  11.727  69.144  0.00  0.00    -0.343 N 
ATOM     16  C5  non d ame      -6.717  12.708  68.201  0.00  0.00     0.273 C 
ATOM     17  O2  non d ame      -6.362  12.364  67.128  0.00  0.00    -0.266 OA
ATOM     18  H5  non d ame      -7.561  12.011  70.065  0.00  0.00     0.163 HD
BRANCH  16  19
ATOM     19  C4  non d ame      -6.608  14.186  68.606  0.00  0.00     0.154 A 
ATOM     20  C1  non d ame      -5.639  15.137  68.154  0.00  0.00    -0.017 A 
ATOM     21  C2  non d ame      -5.973  16.339  68.817  0.00  0.00     0.077 A 
ATOM     22  H1  non d ame      -4.820  14.980  67.452  0.00  0.00     0.091 H 
ATOM     23  O1  non d ame      -7.014  16.096  69.558  0.00  0.00    -0.218 OA
ATOM     24  N1  non d ame      -7.403  14.846  69.452  0.00  0.00    -0.123 NA
BRANCH  21  25
ATOM     25  C3  non d ame      -5.248  17.672  68.686  0.00  0.00    -0.029 C 
ATOM     26  H2  non d ame      -5.715  18.406  69.343  0.00  0.00     0.036 H 
ATOM     27  H3  non d ame      -4.203  17.547  68.966  0.00  0.00     0.036 H 
ATOM     28  H4  non d ame      -5.308  18.018  67.654  0.00  0.00     0.036 H 
ENDBRANCH  21  25
ENDBRANCH  16  19
ENDBRANCH  13  15
BRANCH  13  29
ATOM     29  C8  non d ame      -6.455   9.485  69.610  0.00  0.00    -0.049 C 
ATOM     30  H7  non d ame      -6.597   9.753  70.657  0.00  0.00     0.030 H 
ATOM     31  H8  non d ame      -6.698   8.432  69.468  0.00  0.00     0.030 H 
ATOM     32  H9  non d ame      -5.416   9.660  69.329  0.00  0.00     0.030 H 
ENDBRANCH  13  29
ENDBRANCH  10  13
ENDBRANCH   7   9
BRANCH   7  33
ATOM     33  C11 non d ame     -11.083   8.982  71.656  0.00  0.00    -0.033 C 
ATOM     34  H12 non d ame     -11.531   9.675  72.367  0.00  0.00     0.042 H 
BRANCH  33  35
ATOM     35  C12 non d ame     -12.038   7.754  71.530  0.00  0.00    -0.071 C 
ATOM     36  H13 non d ame     -12.980   7.974  72.032  0.00  0.00     0.028 H 
ATOM     37  H14 non d ame     -12.227   7.547  70.478  0.00  0.00     0.028 H 
ATOM     38  H15 non d ame     -11.573   6.886  71.995  0.00  0.00     0.028 H 
ENDBRANCH  33  35
BRANCH  33  39
ATOM     39  C13 non d ame      -9.685   8.557  72.212  0.00  0.00    -0.071 C 
ATOM     40  H16 non d ame      -9.285   9.353  72.838  0.00  0.00     0.028 H 
ATOM     41  H17 non d ame      -9.792   7.647  72.804  0.00  0.00     0.028 H 
ATOM     42  H18 non d ame      -9.005   8.370  71.381  0.00  0.00     0.028 H 
ENDBRANCH  33  39
ENDBRANCH   7  33
ENDBRANCH   4   7
ENDBRANCH   1   3
BRANCH   1  43
ATOM     43  C15 non d ame     -11.858  14.271  68.579  0.00  0.00     0.240 C 
ATOM     44  O5  non d ame     -12.636  14.298  67.681  0.00  0.00    -0.271 OA
ATOM     45  N6  non d ame     -10.585  15.041  68.481  0.00  0.00    -0.355 N 
ATOM     46  H46 non d ame      -9.919  15.029  69.240  0.00  0.00     0.162 HD
BRANCH  45  47
ATOM     47  C20 non d ame     -10.296  15.826  67.262  0.00  0.00     0.013 C 
ATOM     48  H30 non d ame     -11.230  15.957  66.717  0.00  0.00     0.072 H 
BRANCH  47  49
ATOM     49  C21 non d ame      -9.301  15.074  66.407  0.00  0.00    -0.038 C 
ATOM     50  H31 non d ame      -8.773  15.834  65.832  0.00  0.00     0.036 H 
ATOM     51  H32 non d ame      -8.751  14.429  67.093  0.00  0.00     0.036 H 
BRANCH  49  52
ATOM     52  C22 non d ame      -9.979  14.142  65.379  0.00  0.00     0.018 C 
ATOM     53  H33 non d ame     -11.008  14.493  65.296  0.00  0.00     0.048 H 
ATOM     54  H34 non d ame      -9.330  14.145  64.504  0.00  0.00     0.048 H 
BRANCH  52  55
ATOM     55  C23 non d ame     -10.069  12.661  65.841  0.00  0.00     0.259 C 
ATOM     56  O7  non d ame      -9.758  12.353  66.946  0.00  0.00    -0.265 OA
BRANCH  55  57
ATOM     57  O8  non d ame     -10.515  11.671  64.922  0.00  0.00    -0.317 OA
BRANCH  57  58
ATOM     58  C29 non d ame     -10.183  11.950  63.559  0.00  0.00     0.052 C 
ATOM     59  H47 non d ame     -11.120  11.879  63.007  0.00  0.00     0.082 H 
ATOM     60  H48 non d ame      -9.631  12.890  63.577  0.00  0.00     0.082 H 
BRANCH  58  61
ATOM     61  C35 non d ame      -9.231  10.832  63.059  0.00  0.00    -0.034 A 
ATOM     62  C30 non d ame      -9.166   9.617  63.735  0.00  0.00    -0.075 A 
ATOM     63  C31 non d ame      -8.310   8.613  63.285  0.00  0.00    -0.082 A 
ATOM     64  H49 non d ame      -9.787   9.453  64.616  0.00  0.00     0.084 H 
ATOM     65  C32 non d ame      -7.514   8.828  62.157  0.00  0.00    -0.083 A 
ATOM     66  H50 non d ame      -8.265   7.661  63.815  0.00  0.00     0.083 H 
ATOM     67  C33 non d ame      -7.579  10.042  61.488  0.00  0.00    -0.082 A 
ATOM     68  H51 non d ame      -6.843   8.047  61.799  0.00  0.00     0.083 H 
ATOM     69  C34 non d ame      -8.435  11.048  61.933  0.00  0.00    -0.075 A 
ATOM     70  H52 non d ame      -6.955  10.207  60.609  0.00  0.00     0.083 H 
ATOM     71  H53 non d ame      -8.481  11.999  61.400  0.00  0.00     0.084 H 
ENDBRANCH  58  61
ENDBRANCH  57  58
ENDBRANCH  55  57
ENDBRANCH  52  55
ENDBRANCH  49  52
ENDBRANCH  47  49
BRANCH  47  72
ATOM     72  C24 non d ame      -9.712  17.183  67.649  0.00  0.00    -0.039 C 
ATOM     73  H35 non d ame     -10.489  17.677  68.234  0.00  0.00     0.036 H 
ATOM     74  H36 non d ame      -8.746  16.965  68.104  0.00  0.00     0.036 H 
BRANCH  72  75
ATOM     75  C25 non d ame      -9.435  18.099  66.364  0.00  0.00    -0.001 C 
ATOM     76  C26 non d ame      -7.841  18.497  66.295  0.00  0.00    -0.035 C 
ATOM     77  C27 non d ame      -7.733  19.839  66.148  0.00  0.00     0.085 C 
ATOM     78  H38 non d ame      -7.365  18.306  67.256  0.00  0.00     0.036 H 
ATOM     79  H39 non d ame      -7.397  18.104  65.380  0.00  0.00     0.036 H 
ATOM     80  N5  non d ame      -9.093  20.426  66.440  0.00  0.00    -0.049 N 
ATOM     81  H40 non d ame      -7.033  20.161  66.921  0.00  0.00     0.075 H 
ATOM     82  H41 non d ame      -7.496  19.999  65.097  0.00  0.00     0.075 H 
ATOM     83  C28 non d ame     -10.128  19.187  66.406  0.00  0.00     0.193 C 
ATOM     84  H42 non d ame      -9.053  20.785  67.383  0.00  0.00     0.280 HD
ATOM     85  H43 non d ame      -9.308  21.045  65.672  0.00  0.00     0.280 HD
ATOM     86  H44 non d ame     -10.785  19.037  65.550  0.00  0.00     0.129 H 
ATOM     87  H37 non d ame      -9.883  17.686  65.460  0.00  0.00     0.046 H 
BRANCH  83  88
ATOM     88  O6  non d ame     -10.990  19.233  67.544  0.00  0.00    -0.369 OA
ATOM     89  H45 non d ame     -10.463  19.201  68.346  0.00  0.00     0.212 HD
ENDBRANCH  83  88
ENDBRANCH  72  75
ENDBRANCH  47  72
ENDBRANCH  45  47
ENDBRANCH   1  43
BRANCH   1  90
ATOM     90  C16 non d ame     -11.913  14.282  71.093  0.00  0.00    -0.035 C 
ATOM     91  H21 non d ame     -11.052  13.818  71.578  0.00  0.00     0.037 H 
ATOM     92  H22 non d ame     -11.848  15.309  70.735  0.00  0.00     0.037 H 
BRANCH  90  93
ATOM     93  C17 non d ame     -13.076  14.250  72.134  0.00  0.00    -0.059 C 
ATOM     94  H23 non d ame     -13.279  13.205  72.370  0.00  0.00     0.038 H 
BRANCH  93  95
ATOM     95  C18 non d ame     -12.695  14.974  73.465  0.00  0.00    -0.073 C 
ATOM     96  H24 non d ame     -12.444  14.232  74.223  0.00  0.00     0.028 H 
ATOM     97  H25 non d ame     -11.837  15.622  73.293  0.00  0.00     0.028 H 
ATOM     98  H26 non d ame     -13.540  15.572  73.807  0.00  0.00     0.028 H 
ENDBRANCH  93  95
BRANCH  93  99
ATOM     99  C19 non d ame     -14.359  14.839  71.541  0.00  0.00    -0.073 C 
ATOM    100  H27 non d ame     -15.224  14.407  72.046  0.00  0.00     0.028 H 
ATOM    101  H28 non d ame     -14.358  15.920  71.680  0.00  0.00     0.028 H 
ATOM    102  H29 non d ame     -14.405  14.610  70.477  0.00  0.00     0.028 H 
ENDBRANCH  93  99
ENDBRANCH  90  93
ENDBRANCH   1  90
TORSDOF 26
ENDMDL
MODEL 3
REMARK VINA RESULT:      -6.9      3.803      9.336
REMARK  26 active torsions:
REMARK  status: ('A' for Active; 'I' for Inactive)
REMARK    1  A    between atoms: C2_2  and  C3_3 
REMARK    2  A    between atoms: C4_6  and  C5_7 
REMARK       I    between atoms: C5_7  and  N2_9 
REMARK    3  A    between atoms: N2_9  and  C6_10 
REMARK    4  A    between atoms: C6_10  and  C7_11 
REMARK    5  A    between atoms: C6_10  and  C8_13 
REMARK       I    between atoms: C7_11  and  N3_14 
REMARK    6  A    between atoms: N3_14  and  C9_15 
REMARK    7  A    between atoms: C9_15  and  C10_16 
REMARK    8  A    between atoms: C9_15  and  C11_18 
REMARK       I    between atoms: C10_16  and  N4_21 
REMARK    9  A    between atoms: C11_18  and  C12_19 
REMARK   10  A    between atoms: C11_18  and  C13_20 
REMARK   11  A    between atoms: N4_21  and  C14_22 
REMARK   12  A    between atoms: C14_22  and  C15_23 
REMARK   13  A    between atoms: C14_22  and  C16_25 
REMARK       I    between atoms: C15_23  and  N6_40 
REMARK   14  A    between atoms: C16_25  and  C17_26 
REMARK   15  A    between atoms: C17_26  and  C18_27 
REMARK   16  A    between atoms: C17_26  and  C19_28 
REMARK   17  A    between atoms: C20_29  and  C21_30 
REMARK   18  A    between atoms: C20_29  and  C24_33 
REMARK   19  A    between atoms: C20_29  and  N6_40 
REMARK   20  A    between atoms: C21_30  and  C22_31 
REMARK   21  A    between atoms: C22_31  and  C23_32 
REMARK   22  A    between atoms: C23_32  and  O8_43 
REMARK   23  A    between atoms: C24_33  and  C25_34 
REMARK   24  A    between atoms: C28_38  and  O6_39 
REMARK   25  A    between atoms: C29_42  and  O8_43 
REMARK   26  A    between atoms: C29_42  and  C35_49 
ROOT
ATOM      1  C14 non d ame      -7.847   8.204  63.686  0.00  0.00     0.089 C 
ATOM      2  H20 non d ame      -7.962   8.465  62.633  0.00  0.00     0.087 H 
ENDROOT
BRANCH   1   3
ATOM      3  N4  non d ame      -8.750   9.053  64.448  0.00  0.00    -0.346 N 
ATOM      4  C10 non d ame      -9.511  10.163  63.766  0.00  0.00     0.241 C 
ATOM      5  O4  non d ame      -9.376  10.355  62.602  0.00  0.00    -0.271 OA
ATOM      6  H19 non d ame      -8.849   8.875  65.438  0.00  0.00     0.163 HD
BRANCH   4   7
ATOM      7  C9  non d ame     -10.445  11.029  64.569  0.00  0.00     0.092 C 
ATOM      8  H11 non d ame     -11.215  10.403  65.021  0.00  0.00     0.088 H 
BRANCH   7   9
ATOM      9  N3  non d ame      -9.705  11.662  65.665  0.00  0.00    -0.346 N 
ATOM     10  C7  non d ame      -9.681  11.046  66.969  0.00  0.00     0.240 C 
ATOM     11  O3  non d ame     -10.252  10.042  67.155  0.00  0.00    -0.271 OA
ATOM     12  H10 non d ame      -9.208  12.529  65.520  0.00  0.00     0.163 HD
BRANCH  10  13
ATOM     13  C6  non d ame      -8.894  11.727  68.132  0.00  0.00     0.086 C 
ATOM     14  H6  non d ame      -8.174  12.465  67.779  0.00  0.00     0.086 H 
BRANCH  13  15
ATOM     15  N2  non d ame      -9.833  12.436  68.985  0.00  0.00    -0.343 N 
ATOM     16  C5  non d ame     -10.298  13.769  68.595  0.00  0.00     0.273 C 
ATOM     17  O2  non d ame      -9.907  14.263  67.595  0.00  0.00    -0.266 OA
ATOM     18  H5  non d ame     -10.160  12.007  69.839  0.00  0.00     0.163 HD
BRANCH  16  19
ATOM     19  C4  non d ame     -11.291  14.530  69.486  0.00  0.00     0.154 A 
ATOM     20  C1  non d ame     -12.349  13.973  70.273  0.00  0.00    -0.017 A 
ATOM     21  C2  non d ame     -12.960  15.082  70.899  0.00  0.00     0.077 A 
ATOM     22  H1  non d ame     -12.630  12.924  70.375  0.00  0.00     0.091 H 
ATOM     23  O1  non d ame     -12.319  16.146  70.512  0.00  0.00    -0.218 OA
ATOM     24  N1  non d ame     -11.341  15.849  69.688  0.00  0.00    -0.123 NA
BRANCH  21  25
ATOM     25  C3  non d ame     -14.147  15.039  71.851  0.00  0.00    -0.029 C 
ATOM     26  H2  non d ame     -15.051  14.790  71.295  0.00  0.00     0.036 H 
ATOM     27  H3  non d ame     -13.972  14.284  72.617  0.00  0.00     0.036 H 
ATOM     28  H4  non d ame     -14.270  16.014  72.325  0.00  0.00     0.036 H 
ENDBRANCH  21  25
ENDBRANCH  16  19
ENDBRANCH  13  15
BRANCH  13  29
ATOM     29  C8  non d ame      -8.163  10.677  68.930  0.00  0.00    -0.049 C 
ATOM     30  H7  non d ame      -7.729   9.942  68.251  0.00  0.00     0.030 H 
ATOM     31  H8  non d ame      -7.371  11.147  69.512  0.00  0.00     0.030 H 
ATOM     32  H9  non d ame      -8.863  10.180  69.602  0.00  0.00     0.030 H 
ENDBRANCH  13  29
ENDBRANCH  10  13
ENDBRANCH   7   9
BRANCH   7  33
ATOM     33  C11 non d ame     -11.050  12.130  63.650  0.00  0.00    -0.033 C 
ATOM     34  H12 non d ame     -10.478  12.136  62.723  0.00  0.00     0.042 H 
BRANCH  33  35
ATOM     35  C12 non d ame     -12.534  11.814  63.285  0.00  0.00    -0.071 C 
ATOM     36  H13 non d ame     -12.968  11.172  64.052  0.00  0.00     0.028 H 
ATOM     37  H14 non d ame     -13.099  12.744  63.227  0.00  0.00     0.028 H 
ATOM     38  H15 non d ame     -12.569  11.306  62.323  0.00  0.00     0.028 H 
ENDBRANCH  33  35
BRANCH  33  39
ATOM     39  C13 non d ame     -10.917  13.542  64.308  0.00  0.00    -0.071 C 
ATOM     40  H16 non d ame     -11.900  14.008  64.368  0.00  0.00     0.028 H 
ATOM     41  H17 non d ame     -10.503  13.437  65.311  0.00  0.00     0.028 H 
ATOM     42  H18 non d ame     -10.256  14.163  63.705  0.00  0.00     0.028 H 
ENDBRANCH  33  39
ENDBRANCH   7  33
ENDBRANCH   4   7
ENDBRANCH   1   3
BRANCH   1  43
ATOM     43  C15 non d ame      -8.210   6.718  63.967  0.00  0.00     0.240 C 
ATOM     44  O5  non d ame      -8.007   5.892  63.137  0.00  0.00    -0.271 OA
ATOM     45  N6  non d ame      -8.804   6.322  65.276  0.00  0.00    -0.355 N 
ATOM     46  H46 non d ame      -8.977   7.015  65.990  0.00  0.00     0.162 HD
BRANCH  45  47
ATOM     47  C20 non d ame      -9.143   4.906  65.528  0.00  0.00     0.013 C 
ATOM     48  H30 non d ame      -9.222   4.402  64.565  0.00  0.00     0.072 H 
BRANCH  47  49
ATOM     49  C21 non d ame     -10.465   4.830  66.259  0.00  0.00    -0.038 C 
ATOM     50  H31 non d ame     -11.199   4.539  65.509  0.00  0.00     0.036 H 
ATOM     51  H32 non d ame     -10.286   4.190  67.125  0.00  0.00     0.036 H 
BRANCH  49  52
ATOM     52  C22 non d ame     -10.922   6.197  66.813  0.00  0.00     0.018 C 
ATOM     53  H33 non d ame     -10.413   6.947  66.207  0.00  0.00     0.048 H 
ATOM     54  H34 non d ame     -12.011   6.159  66.830  0.00  0.00     0.048 H 
BRANCH  52  55
ATOM     55  C23 non d ame     -10.479   6.459  68.279  0.00  0.00     0.259 C 
ATOM     56  O7  non d ame      -9.381   6.847  68.517  0.00  0.00    -0.265 OA
BRANCH  55  57
ATOM     57  O8  non d ame     -11.397   6.216  69.338  0.00  0.00    -0.317 OA
BRANCH  57  58
ATOM     58  C29 non d ame     -10.931   6.646  70.621  0.00  0.00     0.052 C 
ATOM     59  H47 non d ame     -11.214   5.857  71.317  0.00  0.00     0.082 H 
ATOM     60  H48 non d ame      -9.881   6.901  70.483  0.00  0.00     0.082 H 
BRANCH  58  61
ATOM     61  C35 non d ame     -11.704   7.938  71.002  0.00  0.00    -0.034 A 
ATOM     62  C30 non d ame     -12.859   7.858  71.773  0.00  0.00    -0.075 A 
ATOM     63  C31 non d ame     -13.552   9.018  72.115  0.00  0.00    -0.082 A 
ATOM     64  H49 non d ame     -13.220   6.886  72.111  0.00  0.00     0.084 H 
ATOM     65  C32 non d ame     -13.088  10.262  71.678  0.00  0.00    -0.083 A 
ATOM     66  H50 non d ame     -14.455   8.952  72.723  0.00  0.00     0.083 H 
ATOM     67  C33 non d ame     -11.937  10.337  70.905  0.00  0.00    -0.082 A 
ATOM     68  H51 non d ame     -13.624  11.174  71.941  0.00  0.00     0.083 H 
ATOM     69  C34 non d ame     -11.240   9.179  70.564  0.00  0.00    -0.075 A 
ATOM     70  H52 non d ame     -11.580  11.309  70.565  0.00  0.00     0.083 H 
ATOM     71  H53 non d ame     -10.336   9.247  69.957  0.00  0.00     0.084 H 
ENDBRANCH  58  61
ENDBRANCH  57  58
ENDBRANCH  55  57
ENDBRANCH  52  55
ENDBRANCH  49  52
ENDBRANCH  47  49
BRANCH  47  72
ATOM     72  C24 non d ame      -8.052   4.257  66.378  0.00  0.00    -0.039 C 
ATOM     73  H35 non d ame      -8.525   4.033  67.335  0.00  0.00     0.036 H 
ATOM     74  H36 non d ame      -7.650   3.449  65.767  0.00  0.00     0.036 H 
BRANCH  72  75
ATOM     75  C25 non d ame      -6.848   5.272  66.673  0.00  0.00    -0.001 C 
ATOM     76  C26 non d ame      -5.523   4.836  65.801  0.00  0.00    -0.035 C 
ATOM     77  C27 non d ame      -4.459   4.757  66.635  0.00  0.00     0.085 C 
ATOM     78  H38 non d ame      -5.636   3.817  65.433  0.00  0.00     0.036 H 
ATOM     79  H39 non d ame      -5.249   5.636  65.113  0.00  0.00     0.036 H 
ATOM     80  N5  non d ame      -5.001   4.777  68.045  0.00  0.00    -0.049 N 
ATOM     81  H40 non d ame      -4.009   3.782  66.441  0.00  0.00     0.075 H 
ATOM     82  H41 non d ame      -3.885   5.666  66.462  0.00  0.00     0.075 H 
ATOM     83  C28 non d ame      -6.532   5.274  67.925  0.00  0.00     0.193 C 
ATOM     84  H42 non d ame      -4.996   3.821  68.366  0.00  0.00     0.280 HD
ATOM     85  H43 non d ame      -4.474   5.480  68.543  0.00  0.00     0.280 HD
ATOM     86  H44 non d ame      -6.808   6.292  68.198  0.00  0.00     0.129 H 
ATOM     87  H37 non d ame      -7.162   6.314  66.610  0.00  0.00     0.046 H 
BRANCH  83  88
ATOM     88  O6  non d ame      -7.387   4.427  68.696  0.00  0.00    -0.369 OA
ATOM     89  H45 non d ame      -7.799   3.779  68.120  0.00  0.00     0.212 HD
ENDBRANCH  83  88
ENDBRANCH  72  75
ENDBRANCH  47  72
ENDBRANCH  45  47
ENDBRANCH   1  43
BRANCH   1  90
ATOM     90  C16 non d ame      -6.419   8.474  64.130  0.00  0.00    -0.035 C 
ATOM     91  H21 non d ame      -6.024   7.505  64.438  0.00  0.00     0.037 H 
ATOM     92  H22 non d ame      -5.957   9.013  63.304  0.00  0.00     0.037 H 
BRANCH  90  93
ATOM     93  C17 non d ame      -6.317   9.408  65.378  0.00  0.00    -0.059 C 
ATOM     94  H23 non d ame      -7.322   9.755  65.614  0.00  0.00     0.038 H 
BRANCH  93  95
ATOM     95  C18 non d ame      -5.766   8.657  66.633  0.00  0.00    -0.073 C 
ATOM     96  H24 non d ame      -6.453   8.793  67.468  0.00  0.00     0.028 H 
ATOM     97  H25 non d ame      -5.672   7.595  66.408  0.00  0.00     0.028 H 
ATOM     98  H26 non d ame      -4.788   9.060  66.896  0.00  0.00     0.028 H 
ENDBRANCH  93  95
BRANCH  93  99
ATOM     99  C19 non d ame      -5.470  10.645  65.068  0.00  0.00    -0.073 C 
ATOM    100  H27 non d ame      -4.469  10.334  64.765  0.00  0.00     0.028 H 
ATOM    101  H28 non d ame      -5.936  11.210  64.261  0.00  0.00     0.028 H 
ATOM    102  H29 non d ame      -5.403  11.272  65.958  0.00  0.00     0.028 H 
ENDBRANCH  93  99
ENDBRANCH  90  93
ENDBRANCH   1  90
TORSDOF 26
ENDMDL
MODEL 4
REMARK VINA RESULT:      -6.8      2.355      6.114
REMARK  26 active torsions:
REMARK  status: ('A' for Active; 'I' for Inactive)
REMARK    1  A    between atoms: C2_2  and  C3_3 
REMARK    2  A    between atoms: C4_6  and  C5_7 
REMARK       I    between atoms: C5_7  and  N2_9 
REMARK    3  A    between atoms: N2_9  and  C6_10 
REMARK    4  A    between atoms: C6_10  and  C7_11 
REMARK    5  A    between atoms: C6_10  and  C8_13 
REMARK       I    between atoms: C7_11  and  N3_14 
REMARK    6  A    between atoms: N3_14  and  C9_15 
REMARK    7  A    between atoms: C9_15  and  C10_16 
REMARK    8  A    between atoms: C9_15  and  C11_18 
REMARK       I    between atoms: C10_16  and  N4_21 
REMARK    9  A    between atoms: C11_18  and  C12_19 
REMARK   10  A    between atoms: C11_18  and  C13_20 
REMARK   11  A    between atoms: N4_21  and  C14_22 
REMARK   12  A    between atoms: C14_22  and  C15_23 
REMARK   13  A    between atoms: C14_22  and  C16_25 
REMARK       I    between atoms: C15_23  and  N6_40 
REMARK   14  A    between atoms: C16_25  and  C17_26 
REMARK   15  A    between atoms: C17_26  and  C18_27 
REMARK   16  A    between atoms: C17_26  and  C19_28 
REMARK   17  A    between atoms: C20_29  and  C21_30 
REMARK   18  A    between atoms: C20_29  and  C24_33 
REMARK   19  A    between atoms: C20_29  and  N6_40 
REMARK   20  A    between atoms: C21_30  and  C22_31 
REMARK   21  A    between atoms: C22_31  and  C23_32 
REMARK   22  A    between atoms: C23_32  and  O8_43 
REMARK   23  A    between atoms: C24_33  and  C25_34 
REMARK   24  A    between atoms: C28_38  and  O6_39 
REMARK   25  A    between atoms: C29_42  and  O8_43 
REMARK   26  A    between atoms: C29_42  and  C35_49 
ROOT
ATOM      1  C14 non d ame     -12.152  13.969  70.238  0.00  0.00     0.089 C 
ATOM      2  H20 non d ame     -13.242  14.011  70.248  0.00  0.00     0.087 H 
ENDROOT
BRANCH   1   3
ATOM      3  N4  non d ame     -11.769  12.579  70.039  0.00  0.00    -0.346 N 
ATOM      4  C10 non d ame     -12.396  11.489  70.873  0.00  0.00     0.241 C 
ATOM      5  O4  non d ame     -13.205  11.756  71.700  0.00  0.00    -0.271 OA
ATOM      6  H19 non d ame     -11.077  12.373  69.333  0.00  0.00     0.163 HD
BRANCH   4   7
ATOM      7  C9  non d ame     -11.991  10.056  70.651  0.00  0.00     0.092 C 
ATOM      8  H11 non d ame     -12.439   9.696  69.725  0.00  0.00     0.088 H 
BRANCH   7   9
ATOM      9  N3  non d ame     -10.536   9.978  70.486  0.00  0.00    -0.346 N 
ATOM     10  C7  non d ame      -9.958   8.948  69.659  0.00  0.00     0.240 C 
ATOM     11  O3  non d ame     -10.648   8.172  69.119  0.00  0.00    -0.271 OA
ATOM     12  H10 non d ame      -9.927  10.641  70.946  0.00  0.00     0.163 HD
BRANCH  10  13
ATOM     13  C6  non d ame      -8.409   8.869  69.490  0.00  0.00     0.086 C 
ATOM     14  H6  non d ame      -7.997   7.912  69.810  0.00  0.00     0.086 H 
BRANCH  13  15
ATOM     15  N2  non d ame      -8.081   9.012  68.081  0.00  0.00    -0.343 N 
ATOM     16  C5  non d ame      -7.701   7.829  67.305  0.00  0.00     0.273 C 
ATOM     17  O2  non d ame      -7.659   6.769  67.824  0.00  0.00    -0.266 OA
ATOM     18  H5  non d ame      -8.116   9.923  67.646  0.00  0.00     0.163 HD
BRANCH  16  19
ATOM     19  C4  non d ame      -7.353   7.965  65.814  0.00  0.00     0.154 A 
ATOM     20  C1  non d ame      -6.048   7.957  65.226  0.00  0.00    -0.017 A 
ATOM     21  C2  non d ame      -6.273   8.112  63.841  0.00  0.00     0.077 A 
ATOM     22  H1  non d ame      -5.086   7.854  65.729  0.00  0.00     0.091 H 
ATOM     23  O1  non d ame      -7.559   8.196  63.664  0.00  0.00    -0.218 OA
ATOM     24  N1  non d ame      -8.211   8.113  64.801  0.00  0.00    -0.123 NA
BRANCH  21  25
ATOM     25  C3  non d ame      -5.206   8.168  62.755  0.00  0.00    -0.029 C 
ATOM     26  H2  non d ame      -4.317   7.636  63.092  0.00  0.00     0.036 H 
ATOM     27  H3  non d ame      -5.587   7.702  61.847  0.00  0.00     0.036 H 
ATOM     28  H4  non d ame      -4.951   9.209  62.550  0.00  0.00     0.036 H 
ENDBRANCH  21  25
ENDBRANCH  16  19
ENDBRANCH  13  15
BRANCH  13  29
ATOM     29  C8  non d ame      -7.757   9.971  70.285  0.00  0.00    -0.049 C 
ATOM     30  H7  non d ame      -8.382  10.219  71.144  0.00  0.00     0.030 H 
ATOM     31  H8  non d ame      -6.778   9.640  70.632  0.00  0.00     0.030 H 
ATOM     32  H9  non d ame      -7.640  10.854  69.656  0.00  0.00     0.030 H 
ENDBRANCH  13  29
ENDBRANCH  10  13
ENDBRANCH   7   9
BRANCH   7  33
ATOM     33  C11 non d ame     -12.418   9.200  71.879  0.00  0.00    -0.033 C 
ATOM     34  H12 non d ame     -12.755   9.885  72.656  0.00  0.00     0.042 H 
BRANCH  33  35
ATOM     35  C12 non d ame     -13.614   8.261  71.530  0.00  0.00    -0.071 C 
ATOM     36  H13 non d ame     -13.301   7.221  71.631  0.00  0.00     0.028 H 
ATOM     37  H14 non d ame     -14.442   8.459  72.209  0.00  0.00     0.028 H 
ATOM     38  H15 non d ame     -13.931   8.445  70.504  0.00  0.00     0.028 H 
ENDBRANCH  33  35
BRANCH  33  39
ATOM     39  C13 non d ame     -11.207   8.389  72.443  0.00  0.00    -0.071 C 
ATOM     40  H16 non d ame     -10.330   8.564  71.820  0.00  0.00     0.028 H 
ATOM     41  H17 non d ame     -10.998   8.710  73.464  0.00  0.00     0.028 H 
ATOM     42  H18 non d ame     -11.449   7.326  72.439  0.00  0.00     0.028 H 
ENDBRANCH  33  39
ENDBRANCH   7  33
ENDBRANCH   4   7
ENDBRANCH   1   3
BRANCH   1  43
ATOM     43  C15 non d ame     -11.543  14.819  69.088  0.00  0.00     0.240 C 
ATOM     44  O5  non d ame     -12.249  15.500  68.417  0.00  0.00    -0.271 OA
ATOM     45  N6  non d ame     -10.074  14.792  68.827  0.00  0.00    -0.355 N 
ATOM     46  H46 non d ame      -9.464  14.221  69.393  0.00  0.00     0.162 HD
BRANCH  45  47
ATOM     47  C20 non d ame      -9.510  15.607  67.730  0.00  0.00     0.013 C 
ATOM     48  H30 non d ame     -10.339  15.995  67.139  0.00  0.00     0.072 H 
BRANCH  47  49
ATOM     49  C21 non d ame      -8.623  14.738  66.867  0.00  0.00    -0.038 C 
ATOM     50  H31 non d ame      -9.287  14.268  66.142  0.00  0.00     0.036 H 
ATOM     51  H32 non d ame      -7.816  15.387  66.527  0.00  0.00     0.036 H 
BRANCH  49  52
ATOM     52  C22 non d ame      -7.957  13.590  67.657  0.00  0.00     0.018 C 
ATOM     53  H33 non d ame      -6.914  13.581  67.342  0.00  0.00     0.048 H 
ATOM     54  H34 non d ame      -8.209  13.766  68.702  0.00  0.00     0.048 H 
BRANCH  52  55
ATOM     55  C23 non d ame      -8.520  12.183  67.312  0.00  0.00     0.259 C 
ATOM     56  O7  non d ame      -7.896  11.434  66.633  0.00  0.00    -0.265 OA
BRANCH  55  57
ATOM     57  O8  non d ame      -9.799  11.804  67.806  0.00  0.00    -0.317 OA
BRANCH  57  58
ATOM     58  C29 non d ame     -10.538  10.958  66.919  0.00  0.00     0.052 C 
ATOM     59  H47 non d ame      -9.807  10.277  66.484  0.00  0.00     0.082 H 
ATOM     60  H48 non d ame     -11.365  10.564  67.508  0.00  0.00     0.082 H 
BRANCH  58  61
ATOM     61  C35 non d ame     -11.120  11.844  65.786  0.00  0.00    -0.034 A 
ATOM     62  C30 non d ame     -11.911  12.945  66.098  0.00  0.00    -0.075 A 
ATOM     63  C31 non d ame     -12.434  13.741  65.080  0.00  0.00    -0.082 A 
ATOM     64  H49 non d ame     -12.121  13.184  67.141  0.00  0.00     0.084 H 
ATOM     65  C32 non d ame     -12.166  13.430  63.745  0.00  0.00    -0.083 A 
ATOM     66  H50 non d ame     -13.051  14.605  65.329  0.00  0.00     0.083 H 
ATOM     67  C33 non d ame     -11.379  12.328  63.437  0.00  0.00    -0.082 A 
ATOM     68  H51 non d ame     -12.571  14.048  62.943  0.00  0.00     0.083 H 
ATOM     69  C34 non d ame     -10.853  11.532  64.452  0.00  0.00    -0.075 A 
ATOM     70  H52 non d ame     -11.174  12.088  62.393  0.00  0.00     0.083 H 
ATOM     71  H53 non d ame     -10.234  10.669  64.201  0.00  0.00     0.084 H 
ENDBRANCH  58  61
ENDBRANCH  57  58
ENDBRANCH  55  57
ENDBRANCH  52  55
ENDBRANCH  49  52
ENDBRANCH  47  49
BRANCH  47  72
ATOM     72  C24 non d ame      -8.688  16.756  68.311  0.00  0.00    -0.039 C 
ATOM     73  H35 non d ame      -8.402  16.430  69.312  0.00  0.00     0.036 H 
ATOM     74  H36 non d ame      -7.920  16.969  67.567  0.00  0.00     0.036 H 
BRANCH  72  75
ATOM     75  C25 non d ame      -9.565  18.086  68.480  0.00  0.00    -0.001 C 
ATOM     76  C26 non d ame     -10.532  18.289  67.166  0.00  0.00    -0.035 C 
ATOM     77  C27 non d ame     -10.365  19.547  66.692  0.00  0.00     0.085 C 
ATOM     78  H38 non d ame     -10.187  17.660  66.347  0.00  0.00     0.036 H 
ATOM     79  H39 non d ame     -11.580  18.267  67.466  0.00  0.00     0.036 H 
ATOM     80  N5  non d ame      -9.134  20.111  67.361  0.00  0.00    -0.049 N 
ATOM     81  H40 non d ame     -10.169  19.433  65.626  0.00  0.00     0.075 H 
ATOM     82  H41 non d ame     -11.239  20.104  67.030  0.00  0.00     0.075 H 
ATOM     83  C28 non d ame      -8.814  19.130  68.602  0.00  0.00     0.193 C 
ATOM     84  H42 non d ame      -8.384  20.036  66.690  0.00  0.00     0.280 HD
ATOM     85  H43 non d ame      -9.396  21.015  67.727  0.00  0.00     0.280 HD
ATOM     86  H44 non d ame      -9.054  19.429  69.622  0.00  0.00     0.129 H 
ATOM     87  H37 non d ame     -10.040  18.145  69.460  0.00  0.00     0.046 H 
BRANCH  83  88
ATOM     88  O6  non d ame      -7.425  18.794  68.621  0.00  0.00    -0.369 OA
ATOM     89  H45 non d ame      -7.015  19.174  69.401  0.00  0.00     0.212 HD
ENDBRANCH  83  88
ENDBRANCH  72  75
ENDBRANCH  47  72
ENDBRANCH  45  47
ENDBRANCH   1  43
BRANCH   1  90
ATOM     90  C16 non d ame     -11.606  14.448  71.573  0.00  0.00    -0.035 C 
ATOM     91  H21 non d ame     -11.525  13.552  72.190  0.00  0.00     0.037 H 
ATOM     92  H22 non d ame     -10.714  15.024  71.330  0.00  0.00     0.037 H 
BRANCH  90  93
ATOM     93  C17 non d ame     -12.566  15.419  72.331  0.00  0.00    -0.059 C 
ATOM     94  H23 non d ame     -12.274  16.438  72.077  0.00  0.00     0.038 H 
BRANCH  93  95
ATOM     95  C18 non d ame     -14.056  15.230  71.902  0.00  0.00    -0.073 C 
ATOM     96  H24 non d ame     -14.240  15.779  70.978  0.00  0.00     0.028 H 
ATOM     97  H25 non d ame     -14.256  14.171  71.742  0.00  0.00     0.028 H 
ATOM     98  H26 non d ame     -14.711  15.609  72.687  0.00  0.00     0.028 H 
ENDBRANCH  93  95
BRANCH  93  99
ATOM     99  C19 non d ame     -12.413  15.268  73.847  0.00  0.00    -0.073 C 
ATOM    100  H27 non d ame     -12.147  16.232  74.283  0.00  0.00     0.028 H 
ATOM    101  H28 non d ame     -13.355  14.922  74.274  0.00  0.00     0.028 H 
ATOM    102  H29 non d ame     -11.629  14.542  74.063  0.00  0.00     0.028 H 
ENDBRANCH  93  99
ENDBRANCH  90  93
ENDBRANCH   1  90
TORSDOF 26
ENDMDL
MODEL 5
REMARK VINA RESULT:      -6.7      2.201      8.048
REMARK  26 active torsions:
REMARK  status: ('A' for Active; 'I' for Inactive)
REMARK    1  A    between atoms: C2_2  and  C3_3 
REMARK    2  A    between atoms: C4_6  and  C5_7 
REMARK       I    between atoms: C5_7  and  N2_9 
REMARK    3  A    between atoms: N2_9  and  C6_10 
REMARK    4  A    between atoms: C6_10  and  C7_11 
REMARK    5  A    between atoms: C6_10  and  C8_13 
REMARK       I    between atoms: C7_11  and  N3_14 
REMARK    6  A    between atoms: N3_14  and  C9_15 
REMARK    7  A    between atoms: C9_15  and  C10_16 
REMARK    8  A    between atoms: C9_15  and  C11_18 
REMARK       I    between atoms: C10_16  and  N4_21 
REMARK    9  A    between atoms: C11_18  and  C12_19 
REMARK   10  A    between atoms: C11_18  and  C13_20 
REMARK   11  A    between atoms: N4_21  and  C14_22 
REMARK   12  A    between atoms: C14_22  and  C15_23 
REMARK   13  A    between atoms: C14_22  and  C16_25 
REMARK       I    between atoms: C15_23  and  N6_40 
REMARK   14  A    between atoms: C16_25  and  C17_26 
REMARK   15  A    between atoms: C17_26  and  C18_27 
REMARK   16  A    between atoms: C17_26  and  C19_28 
REMARK   17  A    between atoms: C20_29  and  C21_30 
REMARK   18  A    between atoms: C20_29  and  C24_33 
REMARK   19  A    between atoms: C20_29  and  N6_40 
REMARK   20  A    between atoms: C21_30  and  C22_31 
REMARK   21  A    between atoms: C22_31  and  C23_32 
REMARK   22  A    between atoms: C23_32  and  O8_43 
REMARK   23  A    between atoms: C24_33  and  C25_34 
REMARK   24  A    between atoms: C28_38  and  O6_39 
REMARK   25  A    between atoms: C29_42  and  O8_43 
REMARK   26  A    between atoms: C29_42  and  C35_49 
ROOT
ATOM      1  C14 non d ame      -6.527  16.051  67.646  0.00  0.00     0.089 C 
ATOM      2  H20 non d ame      -5.967  16.487  66.817  0.00  0.00     0.087 H 
ENDROOT
BRANCH   1   3
ATOM      3  N4  non d ame      -7.943  16.217  67.352  0.00  0.00    -0.346 N 
ATOM      4  C10 non d ame      -8.395  17.223  66.323  0.00  0.00     0.241 C 
ATOM      5  O4  non d ame      -7.600  17.890  65.746  0.00  0.00    -0.271 OA
ATOM      6  H19 non d ame      -8.604  15.642  67.856  0.00  0.00     0.163 HD
BRANCH   4   7
ATOM      7  C9  non d ame      -9.864  17.378  66.028  0.00  0.00     0.092 C 
ATOM      8  H11 non d ame      -9.986  17.914  65.086  0.00  0.00     0.088 H 
BRANCH   7   9
ATOM      9  N3  non d ame     -10.470  16.054  65.853  0.00  0.00    -0.346 N 
ATOM     10  C7  non d ame     -11.293  15.784  64.701  0.00  0.00     0.240 C 
ATOM     11  O3  non d ame     -11.479  16.620  63.903  0.00  0.00    -0.271 OA
ATOM     12  H10 non d ame     -10.319  15.322  66.534  0.00  0.00     0.163 HD
BRANCH  10  13
ATOM     13  C6  non d ame     -11.937  14.374  64.523  0.00  0.00     0.086 C 
ATOM     14  H6  non d ame     -12.614  14.324  63.670  0.00  0.00     0.086 H 
BRANCH  13  15
ATOM     15  N2  non d ame     -10.884  13.402  64.275  0.00  0.00    -0.343 N 
ATOM     16  C5  non d ame     -11.202  12.157  63.573  0.00  0.00     0.273 C 
ATOM     17  O2  non d ame     -12.307  11.945  63.215  0.00  0.00    -0.266 OA
ATOM     18  H5  non d ame      -9.942  13.591  64.588  0.00  0.00     0.163 HD
BRANCH  16  19
ATOM     19  C4  non d ame     -10.098  11.122  63.304  0.00  0.00     0.154 A 
ATOM     20  C1  non d ame      -9.745  10.001  64.122  0.00  0.00    -0.017 A 
ATOM     21  C2  non d ame      -8.681   9.374  63.437  0.00  0.00     0.077 A 
ATOM     22  H1  non d ame     -10.193   9.691  65.066  0.00  0.00     0.091 H 
ATOM     23  O1  non d ame      -8.458  10.059  62.355  0.00  0.00    -0.218 OA
ATOM     24  N1  non d ame      -9.273  11.084  62.255  0.00  0.00    -0.123 NA
BRANCH  21  25
ATOM     25  C3  non d ame      -7.935   8.123  63.885  0.00  0.00    -0.029 C 
ATOM     26  H2  non d ame      -8.601   7.263  63.829  0.00  0.00     0.036 H 
ATOM     27  H3  non d ame      -7.076   7.961  63.235  0.00  0.00     0.036 H 
ATOM     28  H4  non d ame      -7.593   8.252  64.913  0.00  0.00     0.036 H 
ENDBRANCH  21  25
ENDBRANCH  16  19
ENDBRANCH  13  15
BRANCH  13  29
ATOM     29  C8  non d ame     -12.697  14.004  65.771  0.00  0.00    -0.049 C 
ATOM     30  H7  non d ame     -12.026  14.041  66.629  0.00  0.00     0.030 H 
ATOM     31  H8  non d ame     -13.517  14.706  65.920  0.00  0.00     0.030 H 
ATOM     32  H9  non d ame     -13.097  12.995  65.667  0.00  0.00     0.030 H 
ENDBRANCH  13  29
ENDBRANCH  10  13
ENDBRANCH   7   9
BRANCH   7  33
ATOM     33  C11 non d ame     -10.557  18.111  67.213  0.00  0.00    -0.033 C 
ATOM     34  H12 non d ame     -11.546  18.417  66.878  0.00  0.00     0.042 H 
BRANCH  33  35
ATOM     35  C12 non d ame     -10.748  17.160  68.436  0.00  0.00    -0.071 C 
ATOM     36  H13 non d ame     -11.787  17.193  68.763  0.00  0.00     0.028 H 
ATOM     37  H14 non d ame     -10.491  16.141  68.147  0.00  0.00     0.028 H 
ATOM     38  H15 non d ame     -10.101  17.482  69.250  0.00  0.00     0.028 H 
ENDBRANCH  33  35
BRANCH  33  39
ATOM     39  C13 non d ame      -9.764  19.396  67.616  0.00  0.00    -0.071 C 
ATOM     40  H16 non d ame      -8.872  19.482  66.997  0.00  0.00     0.028 H 
ATOM     41  H17 non d ame     -10.395  20.274  67.468  0.00  0.00     0.028 H 
ATOM     42  H18 non d ame      -9.474  19.331  68.664  0.00  0.00     0.028 H 
ENDBRANCH  33  39
ENDBRANCH   7  33
ENDBRANCH   4   7
ENDBRANCH   1   3
BRANCH   1  43
ATOM     43  C15 non d ame      -6.233  14.534  67.820  0.00  0.00     0.240 C 
ATOM     44  O5  non d ame      -5.141  14.116  67.613  0.00  0.00    -0.271 OA
ATOM     45  N6  non d ame      -7.313  13.603  68.256  0.00  0.00    -0.355 N 
ATOM     46  H46 non d ame      -8.244  13.948  68.439  0.00  0.00     0.162 HD
BRANCH  45  47
ATOM     47  C20 non d ame      -7.017  12.163  68.418  0.00  0.00     0.013 C 
ATOM     48  H30 non d ame      -6.291  11.881  67.656  0.00  0.00     0.072 H 
BRANCH  47  49
ATOM     49  C21 non d ame      -8.290  11.367  68.237  0.00  0.00    -0.038 C 
ATOM     50  H31 non d ame      -8.170  10.830  67.297  0.00  0.00     0.036 H 
ATOM     51  H32 non d ame      -8.427  10.815  69.168  0.00  0.00     0.036 H 
BRANCH  49  52
ATOM     52  C22 non d ame      -9.538  12.262  68.073  0.00  0.00     0.018 C 
ATOM     53  H33 non d ame      -9.650  12.790  69.021  0.00  0.00     0.048 H 
ATOM     54  H34 non d ame      -9.380  12.823  67.153  0.00  0.00     0.048 H 
BRANCH  52  55
ATOM     55  C23 non d ame     -10.857  11.466  67.869  0.00  0.00     0.259 C 
ATOM     56  O7  non d ame     -10.910  10.578  67.081  0.00  0.00    -0.265 OA
BRANCH  55  57
ATOM     57  O8  non d ame     -12.009  11.821  68.625  0.00  0.00    -0.317 OA
BRANCH  57  58
ATOM     58  C29 non d ame     -11.832  11.708  70.040  0.00  0.00     0.052 C 
ATOM     59  H47 non d ame     -12.400  10.827  70.339  0.00  0.00     0.082 H 
ATOM     60  H48 non d ame     -10.756  11.745  70.207  0.00  0.00     0.082 H 
BRANCH  58  61
ATOM     61  C35 non d ame     -12.475  12.955  70.704  0.00  0.00    -0.034 A 
ATOM     62  C30 non d ame     -12.274  14.218  70.156  0.00  0.00    -0.075 A 
ATOM     63  C31 non d ame     -12.851  15.338  70.752  0.00  0.00    -0.082 A 
ATOM     64  H49 non d ame     -11.664  14.330  69.259  0.00  0.00     0.084 H 
ATOM     65  C32 non d ame     -13.630  15.192  71.903  0.00  0.00    -0.083 A 
ATOM     66  H50 non d ame     -12.694  16.326  70.318  0.00  0.00     0.083 H 
ATOM     67  C33 non d ame     -13.825  13.930  72.449  0.00  0.00    -0.082 A 
ATOM     68  H51 non d ame     -14.085  16.063  72.375  0.00  0.00     0.083 H 
ATOM     69  C34 non d ame     -13.251  12.808  71.854  0.00  0.00    -0.075 A 
ATOM     70  H52 non d ame     -14.432  13.821  73.348  0.00  0.00     0.083 H 
ATOM     71  H53 non d ame     -13.411  11.820  72.289  0.00  0.00     0.084 H 
ENDBRANCH  58  61
ENDBRANCH  57  58
ENDBRANCH  55  57
ENDBRANCH  52  55
ENDBRANCH  49  52
ENDBRANCH  47  49
BRANCH  47  72
ATOM     72  C24 non d ame      -6.449  11.907  69.813  0.00  0.00    -0.039 C 
ATOM     73  H35 non d ame      -6.146  12.886  70.186  0.00  0.00     0.036 H 
ATOM     74  H36 non d ame      -7.216  11.338  70.339  0.00  0.00     0.036 H 
BRANCH  72  75
ATOM     75  C25 non d ame      -5.135  10.994  69.760  0.00  0.00    -0.001 C 
ATOM     76  C26 non d ame      -4.792  10.596  68.201  0.00  0.00    -0.035 C 
ATOM     77  C27 non d ame      -4.628   9.254  68.120  0.00  0.00     0.085 C 
ATOM     78  H38 non d ame      -5.658  10.785  67.568  0.00  0.00     0.036 H 
ATOM     79  H39 non d ame      -3.815  10.989  67.921  0.00  0.00     0.036 H 
ATOM     80  N5  non d ame      -5.149   8.666  69.410  0.00  0.00    -0.049 N 
ATOM     81  H40 non d ame      -5.269   8.931  67.299  0.00  0.00     0.075 H 
ATOM     82  H41 non d ame      -3.552   9.095  68.067  0.00  0.00     0.075 H 
ATOM     83  C28 non d ame      -5.293   9.905  70.436  0.00  0.00     0.193 C 
ATOM     84  H42 non d ame      -6.070   8.306  69.209  0.00  0.00     0.280 HD
ATOM     85  H43 non d ame      -4.428   8.048  69.754  0.00  0.00     0.280 HD
ATOM     86  H44 non d ame      -4.563  10.056  71.230  0.00  0.00     0.129 H 
ATOM     87  H37 non d ame      -4.321  11.407  70.357  0.00  0.00     0.046 H 
BRANCH  83  88
ATOM     88  O6  non d ame      -6.563   9.858  71.090  0.00  0.00    -0.369 OA
ATOM     89  H45 non d ame      -7.170  10.459  70.653  0.00  0.00     0.212 HD
ENDBRANCH  83  88
ENDBRANCH  72  75
ENDBRANCH  47  72
ENDBRANCH  45  47
ENDBRANCH   1  43
BRANCH   1  90
ATOM     90  C16 non d ame      -6.199  16.788  68.934  0.00  0.00    -0.035 C 
ATOM     91  H21 non d ame      -7.157  17.140  69.318  0.00  0.00     0.037 H 
ATOM     92  H22 non d ame      -5.600  16.091  69.520  0.00  0.00     0.037 H 
BRANCH  90  93
ATOM     93  C17 non d ame      -5.316  18.059  68.722  0.00  0.00    -0.059 C 
ATOM     94  H23 non d ame      -4.620  18.121  69.558  0.00  0.00     0.038 H 
BRANCH  93  95
ATOM     95  C18 non d ame      -4.474  17.980  67.408  0.00  0.00    -0.073 C 
ATOM     96  H24 non d ame      -4.892  17.213  66.755  0.00  0.00     0.028 H 
ATOM     97  H25 non d ame      -4.502  18.944  66.901  0.00  0.00     0.028 H 
ATOM     98  H26 non d ame      -3.442  17.727  67.652  0.00  0.00     0.028 H 
ENDBRANCH  93  95
BRANCH  93  99
ATOM     99  C19 non d ame      -6.170  19.329  68.746  0.00  0.00    -0.073 C 
ATOM    100  H27 non d ame      -5.522  20.200  68.856  0.00  0.00     0.028 H 
ATOM    101  H28 non d ame      -6.729  19.407  67.814  0.00  0.00     0.028 H 
ATOM    102  H29 non d ame      -6.866  19.284  69.584  0.00  0.00     0.028 H 
ENDBRANCH  93  99
ENDBRANCH  90  93
ENDBRANCH   1  90
TORSDOF 26
ENDMDL
MODEL 6
REMARK VINA RESULT:      -6.7      3.181      5.811
REMARK  26 active torsions:
REMARK  status: ('A' for Active; 'I' for Inactive)
REMARK    1  A    between atoms: C2_2  and  C3_3 
REMARK    2  A    between atoms: C4_6  and  C5_7 
REMARK       I    between atoms: C5_7  and  N2_9 
REMARK    3  A    between atoms: N2_9  and  C6_10 
REMARK    4  A    between atoms: C6_10  and  C7_11 
REMARK    5  A    between atoms: C6_10  and  C8_13 
REMARK       I    between atoms: C7_11  and  N3_14 
REMARK    6  A    between atoms: N3_14  and  C9_15 
REMARK    7  A    between atoms: C9_15  and  C10_16 
REMARK    8  A    between atoms: C9_15  and  C11_18 
REMARK       I    between atoms: C10_16  and  N4_21 
REMARK    9  A    between atoms: C11_18  and  C12_19 
REMARK   10  A    between atoms: C11_18  and  C13_20 
REMARK   11  A    between atoms: N4_21  and  C14_22 
REMARK   12  A    between atoms: C14_22  and  C15_23 
REMARK   13  A    between atoms: C14_22  and  C16_25 
REMARK       I    between atoms: C15_23  and  N6_40 
REMARK   14  A    between atoms: C16_25  and  C17_26 
REMARK   15  A    between atoms: C17_26  and  C18_27 
REMARK   16  A    between atoms: C17_26  and  C19_28 
REMARK   17  A    between atoms: C20_29  and  C21_30 
REMARK   18  A    between atoms: C20_29  and  C24_33 
REMARK   19  A    between atoms: C20_29  and  N6_40 
REMARK   20  A    between atoms: C21_30  and  C22_31 
REMARK   21  A    between atoms: C22_31  and  C23_32 
REMARK   22  A    between atoms: C23_32  and  O8_43 
REMARK   23  A    between atoms: C24_33  and  C25_34 
REMARK   24  A    between atoms: C28_38  and  O6_39 
REMARK   25  A    between atoms: C29_42  and  O8_43 
REMARK   26  A    between atoms: C29_42  and  C35_49 
ROOT
ATOM      1  C14 non d ame     -11.121   9.011  69.708  0.00  0.00     0.089 C 
ATOM      2  H20 non d ame     -12.054   8.537  69.400  0.00  0.00     0.087 H 
ENDROOT
BRANCH   1   3
ATOM      3  N4  non d ame     -10.146   7.954  69.930  0.00  0.00    -0.346 N 
ATOM      4  C10 non d ame     -10.392   6.565  69.395  0.00  0.00     0.241 C 
ATOM      5  O4  non d ame     -11.384   6.323  68.789  0.00  0.00    -0.271 OA
ATOM      6  H19 non d ame      -9.309   8.179  70.450  0.00  0.00     0.163 HD
BRANCH   4   7
ATOM      7  C9  non d ame      -9.370   5.484  69.629  0.00  0.00     0.092 C 
ATOM      8  H11 non d ame      -9.865   4.513  69.613  0.00  0.00     0.088 H 
BRANCH   7   9
ATOM      9  N3  non d ame      -8.392   5.489  68.537  0.00  0.00    -0.346 N 
ATOM     10  C7  non d ame      -8.536   4.569  67.436  0.00  0.00     0.240 C 
ATOM     11  O3  non d ame      -9.432   3.816  67.413  0.00  0.00    -0.271 OA
ATOM     12  H10 non d ame      -7.613   6.132  68.543  0.00  0.00     0.163 HD
BRANCH  10  13
ATOM     13  C6  non d ame      -7.490   4.578  66.278  0.00  0.00     0.086 C 
ATOM     14  H6  non d ame      -7.788   3.953  65.436  0.00  0.00     0.086 H 
BRANCH  13  15
ATOM     15  N2  non d ame      -7.366   5.933  65.766  0.00  0.00    -0.343 N 
ATOM     16  C5  non d ame      -7.958   6.273  64.470  0.00  0.00     0.273 C 
ATOM     17  O2  non d ame      -8.530   5.448  63.847  0.00  0.00    -0.266 OA
ATOM     18  H5  non d ame      -6.872   6.631  66.305  0.00  0.00     0.163 HD
BRANCH  16  19
ATOM     19  C4  non d ame      -7.834   7.701  63.919  0.00  0.00     0.154 A 
ATOM     20  C1  non d ame      -7.980   8.119  62.557  0.00  0.00    -0.017 A 
ATOM     21  C2  non d ame      -7.774   9.516  62.581  0.00  0.00     0.077 A 
ATOM     22  H1  non d ame      -8.202   7.502  61.686  0.00  0.00     0.091 H 
ATOM     23  O1  non d ame      -7.541   9.852  63.816  0.00  0.00    -0.218 OA
ATOM     24  N1  non d ame      -7.570   8.810  64.615  0.00  0.00    -0.123 NA
BRANCH  21  25
ATOM     25  C3  non d ame      -7.820  10.454  61.382  0.00  0.00    -0.029 C 
ATOM     26  H2  non d ame      -7.599   9.894  60.474  0.00  0.00     0.036 H 
ATOM     27  H3  non d ame      -8.812  10.896  61.305  0.00  0.00     0.036 H 
ATOM     28  H4  non d ame      -7.079  11.245  61.511  0.00  0.00     0.036 H 
ENDBRANCH  21  25
ENDBRANCH  16  19
ENDBRANCH  13  15
BRANCH  13  29
ATOM     29  C8  non d ame      -6.159   4.097  66.795  0.00  0.00    -0.049 C 
ATOM     30  H7  non d ame      -5.533   3.790  65.957  0.00  0.00     0.030 H 
ATOM     31  H8  non d ame      -5.667   4.902  67.340  0.00  0.00     0.030 H 
ATOM     32  H9  non d ame      -6.314   3.248  67.461  0.00  0.00     0.030 H 
ENDBRANCH  13  29
ENDBRANCH  10  13
ENDBRANCH   7   9
BRANCH   7  33
ATOM     33  C11 non d ame      -8.639   5.746  70.978  0.00  0.00    -0.033 C 
ATOM     34  H12 non d ame      -8.892   6.756  71.299  0.00  0.00     0.042 H 
BRANCH  33  35
ATOM     35  C12 non d ame      -9.127   4.764  72.090  0.00  0.00    -0.071 C 
ATOM     36  H13 non d ame      -9.237   5.305  73.029  0.00  0.00     0.028 H 
ATOM     37  H14 non d ame     -10.087   4.338  71.801  0.00  0.00     0.028 H 
ATOM     38  H15 non d ame      -8.396   3.966  72.213  0.00  0.00     0.028 H 
ENDBRANCH  33  35
BRANCH  33  39
ATOM     39  C13 non d ame      -7.089   5.670  70.798  0.00  0.00    -0.071 C 
ATOM     40  H16 non d ame      -6.805   4.657  70.512  0.00  0.00     0.028 H 
ATOM     41  H17 non d ame      -6.779   6.367  70.018  0.00  0.00     0.028 H 
ATOM     42  H18 non d ame      -6.600   5.933  71.735  0.00  0.00     0.028 H 
ENDBRANCH  33  39
ENDBRANCH   7  33
ENDBRANCH   4   7
ENDBRANCH   1   3
BRANCH   1  43
ATOM     43  C15 non d ame     -10.564   9.975  68.622  0.00  0.00     0.240 C 
ATOM     44  O5  non d ame      -9.938   9.542  67.710  0.00  0.00    -0.271 OA
ATOM     45  N6  non d ame     -10.820  11.442  68.715  0.00  0.00    -0.355 N 
ATOM     46  H46 non d ame     -11.354  11.821  69.483  0.00  0.00     0.162 HD
BRANCH  45  47
ATOM     47  C20 non d ame     -10.285  12.346  67.674  0.00  0.00     0.013 C 
ATOM     48  H30 non d ame      -9.666  11.753  67.001  0.00  0.00     0.072 H 
BRANCH  47  49
ATOM     49  C21 non d ame      -9.451  13.423  68.329  0.00  0.00    -0.038 C 
ATOM     50  H31 non d ame      -9.801  13.483  69.358  0.00  0.00     0.036 H 
ATOM     51  H32 non d ame      -8.413  13.160  68.120  0.00  0.00     0.036 H 
BRANCH  49  52
ATOM     52  C22 non d ame      -9.680  14.818  67.707  0.00  0.00     0.018 C 
ATOM     53  H33 non d ame      -8.923  14.925  66.930  0.00  0.00     0.048 H 
ATOM     54  H34 non d ame     -10.737  14.855  67.446  0.00  0.00     0.048 H 
BRANCH  52  55
ATOM     55  C23 non d ame      -9.443  15.992  68.698  0.00  0.00     0.259 C 
ATOM     56  O7  non d ame      -8.342  16.384  68.916  0.00  0.00    -0.265 OA
BRANCH  55  57
ATOM     57  O8  non d ame     -10.556  16.586  69.354  0.00  0.00    -0.317 OA
BRANCH  57  58
ATOM     58  C29 non d ame     -11.773  15.844  69.223  0.00  0.00     0.052 C 
ATOM     59  H47 non d ame     -12.449  16.484  68.659  0.00  0.00     0.082 H 
ATOM     60  H48 non d ame     -11.483  14.872  68.823  0.00  0.00     0.082 H 
BRANCH  58  61
ATOM     61  C35 non d ame     -12.362  15.634  70.643  0.00  0.00    -0.034 A 
ATOM     62  C30 non d ame     -11.582  15.890  71.766  0.00  0.00    -0.075 A 
ATOM     63  C31 non d ame     -12.112  15.702  73.042  0.00  0.00    -0.082 A 
ATOM     64  H49 non d ame     -10.556  16.238  71.647  0.00  0.00     0.084 H 
ATOM     65  C32 non d ame     -13.426  15.252  73.192  0.00  0.00    -0.083 A 
ATOM     66  H50 non d ame     -11.499  15.906  73.920  0.00  0.00     0.083 H 
ATOM     67  C33 non d ame     -14.200  14.995  72.068  0.00  0.00    -0.082 A 
ATOM     68  H51 non d ame     -13.849  15.103  74.186  0.00  0.00     0.083 H 
ATOM     69  C34 non d ame     -13.675  15.184  70.791  0.00  0.00    -0.075 A 
ATOM     70  H52 non d ame     -15.225  14.642  72.189  0.00  0.00     0.083 H 
ATOM     71  H53 non d ame     -14.290  14.981  69.914  0.00  0.00     0.084 H 
ENDBRANCH  58  61
ENDBRANCH  57  58
ENDBRANCH  55  57
ENDBRANCH  52  55
ENDBRANCH  49  52
ENDBRANCH  47  49
BRANCH  47  72
ATOM     72  C24 non d ame     -11.439  12.989  66.907  0.00  0.00    -0.039 C 
ATOM     73  H35 non d ame     -12.301  12.924  67.572  0.00  0.00     0.036 H 
ATOM     74  H36 non d ame     -11.068  13.964  66.590  0.00  0.00     0.036 H 
BRANCH  72  75
ATOM     75  C25 non d ame     -11.801  12.166  65.581  0.00  0.00    -0.001 C 
ATOM     76  C26 non d ame     -10.421  11.688  64.825  0.00  0.00    -0.035 C 
ATOM     77  C27 non d ame     -10.488  12.056  63.523  0.00  0.00     0.085 C 
ATOM     78  H38 non d ame      -9.571  12.251  65.206  0.00  0.00     0.036 H 
ATOM     79  H39 non d ame     -10.378  10.600  64.779  0.00  0.00     0.036 H 
ATOM     80  N5  non d ame     -11.637  13.028  63.397  0.00  0.00    -0.049 N 
ATOM     81  H40 non d ame      -9.554  12.582  63.321  0.00  0.00     0.075 H 
ATOM     82  H41 non d ame     -10.730  11.147  62.975  0.00  0.00     0.075 H 
ATOM     83  C28 non d ame     -12.492  12.883  64.759  0.00  0.00     0.193 C 
ATOM     84  H42 non d ame     -11.229  13.951  63.370  0.00  0.00     0.280 HD
ATOM     85  H43 non d ame     -12.203  12.703  62.627  0.00  0.00     0.280 HD
ATOM     86  H44 non d ame     -13.436  12.339  64.766  0.00  0.00     0.129 H 
ATOM     87  H37 non d ame     -12.557  11.402  65.764  0.00  0.00     0.046 H 
BRANCH  83  88
ATOM     88  O6  non d ame     -12.792  14.175  65.292  0.00  0.00    -0.369 OA
ATOM     89  H45 non d ame     -11.974  14.638  65.487  0.00  0.00     0.212 HD
ENDBRANCH  83  88
ENDBRANCH  72  75
ENDBRANCH  47  72
ENDBRANCH  45  47
ENDBRANCH   1  43
BRANCH   1  90
ATOM     90  C16 non d ame     -11.333   9.771  71.007  0.00  0.00    -0.035 C 
ATOM     91  H21 non d ame     -10.990   9.098  71.794  0.00  0.00     0.037 H 
ATOM     92  H22 non d ame     -10.844  10.733  70.862  0.00  0.00     0.037 H 
BRANCH  90  93
ATOM     93  C17 non d ame     -12.833  10.080  71.314  0.00  0.00    -0.059 C 
ATOM     94  H23 non d ame     -13.395   9.941  70.391  0.00  0.00     0.038 H 
BRANCH  93  95
ATOM     95  C18 non d ame     -13.428   9.109  72.384  0.00  0.00    -0.073 C 
ATOM     96  H24 non d ame     -14.244   8.537  71.942  0.00  0.00     0.028 H 
ATOM     97  H25 non d ame     -12.650   8.427  72.727  0.00  0.00     0.028 H 
ATOM     98  H26 non d ame     -13.804   9.686  73.229  0.00  0.00     0.028 H 
ENDBRANCH  93  95
BRANCH  93  99
ATOM     99  C19 non d ame     -13.015  11.539  71.742  0.00  0.00    -0.073 C 
ATOM    100  H27 non d ame     -12.772  11.640  72.800  0.00  0.00     0.028 H 
ATOM    101  H28 non d ame     -12.352  12.174  71.154  0.00  0.00     0.028 H 
ATOM    102  H29 non d ame     -14.049  11.841  71.574  0.00  0.00     0.028 H 
ENDBRANCH  93  99
ENDBRANCH  90  93
ENDBRANCH   1  90
TORSDOF 26
ENDMDL
MODEL 7
REMARK VINA RESULT:      -6.7      3.315      9.156
REMARK  26 active torsions:
REMARK  status: ('A' for Active; 'I' for Inactive)
REMARK    1  A    between atoms: C2_2  and  C3_3 
REMARK    2  A    between atoms: C4_6  and  C5_7 
REMARK       I    between atoms: C5_7  and  N2_9 
REMARK    3  A    between atoms: N2_9  and  C6_10 
REMARK    4  A    between atoms: C6_10  and  C7_11 
REMARK    5  A    between atoms: C6_10  and  C8_13 
REMARK       I    between atoms: C7_11  and  N3_14 
REMARK    6  A    between atoms: N3_14  and  C9_15 
REMARK    7  A    between atoms: C9_15  and  C10_16 
REMARK    8  A    between atoms: C9_15  and  C11_18 
REMARK       I    between atoms: C10_16  and  N4_21 
REMARK    9  A    between atoms: C11_18  and  C12_19 
REMARK   10  A    between atoms: C11_18  and  C13_20 
REMARK   11  A    between atoms: N4_21  and  C14_22 
REMARK   12  A    between atoms: C14_22  and  C15_23 
REMARK   13  A    between atoms: C14_22  and  C16_25 
REMARK       I    between atoms: C15_23  and  N6_40 
REMARK   14  A    between atoms: C16_25  and  C17_26 
REMARK   15  A    between atoms: C17_26  and  C18_27 
REMARK   16  A    between atoms: C17_26  and  C19_28 
REMARK   17  A    between atoms: C20_29  and  C21_30 
REMARK   18  A    between atoms: C20_29  and  C24_33 
REMARK   19  A    between atoms: C20_29  and  N6_40 
REMARK   20  A    between atoms: C21_30  and  C22_31 
REMARK   21  A    between atoms: C22_31  and  C23_32 
REMARK   22  A    between atoms: C23_32  and  O8_43 
REMARK   23  A    between atoms: C24_33  and  C25_34 
REMARK   24  A    between atoms: C28_38  and  O6_39 
REMARK   25  A    between atoms: C29_42  and  O8_43 
REMARK   26  A    between atoms: C29_42  and  C35_49 
ROOT
ATOM      1  C14 non d ame      -9.997  10.504  64.240  0.00  0.00     0.089 C 
ATOM      2  H20 non d ame     -10.985  10.066  64.392  0.00  0.00     0.087 H 
ENDROOT
BRANCH   1   3
ATOM      3  N4  non d ame      -9.524  10.977  65.532  0.00  0.00    -0.346 N 
ATOM      4  C10 non d ame      -9.927  10.264  66.799  0.00  0.00     0.241 C 
ATOM      5  O4  non d ame     -10.635   9.312  66.753  0.00  0.00    -0.271 OA
ATOM      6  H19 non d ame      -8.925  11.791  65.551  0.00  0.00     0.163 HD
BRANCH   4   7
ATOM      7  C9  non d ame      -9.424  10.764  68.128  0.00  0.00     0.092 C 
ATOM      8  H11 non d ame      -8.337  10.839  68.095  0.00  0.00     0.088 H 
BRANCH   7   9
ATOM      9  N3  non d ame      -9.944  12.113  68.371  0.00  0.00    -0.346 N 
ATOM     10  C7  non d ame      -9.171  13.265  67.978  0.00  0.00     0.240 C 
ATOM     11  O3  non d ame      -8.127  13.125  67.465  0.00  0.00    -0.271 OA
ATOM     12  H10 non d ame     -10.842  12.250  68.813  0.00  0.00     0.163 HD
BRANCH  10  13
ATOM     13  C6  non d ame      -9.728  14.698  68.242  0.00  0.00     0.086 C 
ATOM     14  H6  non d ame     -10.487  14.996  67.518  0.00  0.00     0.086 H 
BRANCH  13  15
ATOM     15  N2  non d ame     -10.367  14.722  69.548  0.00  0.00    -0.343 N 
ATOM     16  C5  non d ame     -11.568  15.535  69.749  0.00  0.00     0.273 C 
ATOM     17  O2  non d ame     -12.011  16.168  68.855  0.00  0.00    -0.266 OA
ATOM     18  H5  non d ame      -9.979  14.180  70.307  0.00  0.00     0.163 HD
BRANCH  16  19
ATOM     19  C4  non d ame     -12.254  15.569  71.124  0.00  0.00     0.154 A 
ATOM     20  C1  non d ame     -11.621  15.656  72.404  0.00  0.00    -0.017 A 
ATOM     21  C2  non d ame     -12.682  15.653  73.335  0.00  0.00     0.077 A 
ATOM     22  H1  non d ame     -10.554  15.714  72.624  0.00  0.00     0.091 H 
ATOM     23  O1  non d ame     -13.791  15.575  72.659  0.00  0.00    -0.218 OA
ATOM     24  N1  non d ame     -13.567  15.524  71.366  0.00  0.00    -0.123 NA
BRANCH  21  25
ATOM     25  C3  non d ame     -12.552  15.729  74.851  0.00  0.00    -0.029 C 
ATOM     26  H2  non d ame     -13.469  16.139  75.275  0.00  0.00     0.036 H 
ATOM     27  H3  non d ame     -12.380  14.731  75.252  0.00  0.00     0.036 H 
ATOM     28  H4  non d ame     -11.712  16.375  75.112  0.00  0.00     0.036 H 
ENDBRANCH  21  25
ENDBRANCH  16  19
ENDBRANCH  13  15
BRANCH  13  29
ATOM     29  C8  non d ame      -8.598  15.695  68.202  0.00  0.00    -0.049 C 
ATOM     30  H7  non d ame      -8.135  15.679  67.215  0.00  0.00     0.030 H 
ATOM     31  H8  non d ame      -8.985  16.693  68.405  0.00  0.00     0.030 H 
ATOM     32  H9  non d ame      -7.855  15.433  68.955  0.00  0.00     0.030 H 
ENDBRANCH  13  29
ENDBRANCH  10  13
ENDBRANCH   7   9
BRANCH   7  33
ATOM     33  C11 non d ame      -9.911   9.811  69.258  0.00  0.00    -0.033 C 
ATOM     34  H12 non d ame     -10.246   8.887  68.789  0.00  0.00     0.042 H 
BRANCH  33  35
ATOM     35  C12 non d ame      -8.750   9.448  70.236  0.00  0.00    -0.071 C 
ATOM     36  H13 non d ame      -9.136   8.825  71.043  0.00  0.00     0.028 H 
ATOM     37  H14 non d ame      -7.977   8.905  69.695  0.00  0.00     0.028 H 
ATOM     38  H15 non d ame      -8.329  10.363  70.653  0.00  0.00     0.028 H 
ENDBRANCH  33  35
BRANCH  33  39
ATOM     39  C13 non d ame     -11.124  10.429  70.026  0.00  0.00    -0.071 C 
ATOM     40  H16 non d ame     -10.775  10.881  70.954  0.00  0.00     0.028 H 
ATOM     41  H17 non d ame     -11.596  11.193  69.406  0.00  0.00     0.028 H 
ATOM     42  H18 non d ame     -11.848   9.647  70.252  0.00  0.00     0.028 H 
ENDBRANCH  33  39
ENDBRANCH   7  33
ENDBRANCH   4   7
ENDBRANCH   1   3
BRANCH   1  43
ATOM     43  C15 non d ame      -8.975   9.471  63.688  0.00  0.00     0.240 C 
ATOM     44  O5  non d ame      -8.382   9.704  62.685  0.00  0.00    -0.271 OA
ATOM     45  N6  non d ame      -8.727   8.193  64.416  0.00  0.00    -0.355 N 
ATOM     46  H46 non d ame      -9.221   7.987  65.271  0.00  0.00     0.162 HD
BRANCH  45  47
ATOM     47  C20 non d ame      -7.751   7.222  63.878  0.00  0.00     0.013 C 
ATOM     48  H30 non d ame      -7.387   7.603  62.924  0.00  0.00     0.072 H 
BRANCH  47  49
ATOM     49  C21 non d ame      -8.433   5.888  63.674  0.00  0.00    -0.038 C 
ATOM     50  H31 non d ame      -9.480   6.119  63.482  0.00  0.00     0.036 H 
ATOM     51  H32 non d ame      -7.841   5.367  62.920  0.00  0.00     0.036 H 
BRANCH  49  52
ATOM     52  C22 non d ame      -8.406   5.002  64.939  0.00  0.00     0.018 C 
ATOM     53  H33 non d ame      -7.897   4.083  64.646  0.00  0.00     0.048 H 
ATOM     54  H34 non d ame      -7.991   5.627  65.729  0.00  0.00     0.048 H 
BRANCH  52  55
ATOM     55  C23 non d ame      -9.816   4.570  65.431  0.00  0.00     0.259 C 
ATOM     56  O7  non d ame     -10.497   3.862  64.762  0.00  0.00    -0.265 OA
BRANCH  55  57
ATOM     57  O8  non d ame     -10.291   5.043  66.685  0.00  0.00    -0.317 OA
BRANCH  57  58
ATOM     58  C29 non d ame      -9.313   5.760  67.444  0.00  0.00     0.052 C 
ATOM     59  H47 non d ame      -8.443   5.108  67.496  0.00  0.00     0.082 H 
ATOM     60  H48 non d ame      -9.233   6.739  66.972  0.00  0.00     0.082 H 
BRANCH  58  61
ATOM     61  C35 non d ame      -9.869   5.953  68.880  0.00  0.00    -0.034 A 
ATOM     62  C30 non d ame      -9.042   5.757  69.981  0.00  0.00    -0.075 A 
ATOM     63  C31 non d ame      -9.542   5.931  71.271  0.00  0.00    -0.082 A 
ATOM     64  H49 non d ame      -8.001   5.468  69.833  0.00  0.00     0.084 H 
ATOM     65  C32 non d ame     -10.877   6.298  71.458  0.00  0.00    -0.083 A 
ATOM     66  H50 non d ame      -8.890   5.779  72.131  0.00  0.00     0.083 H 
ATOM     67  C33 non d ame     -11.701   6.489  70.356  0.00  0.00    -0.082 A 
ATOM     68  H51 non d ame     -11.276   6.437  72.463  0.00  0.00     0.083 H 
ATOM     69  C34 non d ame     -11.204   6.319  69.066  0.00  0.00    -0.075 A 
ATOM     70  H52 non d ame     -12.743   6.775  70.506  0.00  0.00     0.083 H 
ATOM     71  H53 non d ame     -11.857   6.473  68.205  0.00  0.00     0.084 H 
ENDBRANCH  58  61
ENDBRANCH  57  58
ENDBRANCH  55  57
ENDBRANCH  52  55
ENDBRANCH  49  52
ENDBRANCH  47  49
BRANCH  47  72
ATOM     72  C24 non d ame      -6.592   7.057  64.860  0.00  0.00    -0.039 C 
ATOM     73  H35 non d ame      -7.049   7.056  65.850  0.00  0.00     0.036 H 
ATOM     74  H36 non d ame      -6.040   6.183  64.514  0.00  0.00     0.036 H 
BRANCH  72  75
ATOM     75  C25 non d ame      -5.587   8.303  64.805  0.00  0.00    -0.001 C 
ATOM     76  C26 non d ame      -4.037   7.766  64.689  0.00  0.00    -0.035 C 
ATOM     77  C27 non d ame      -3.293   8.370  65.647  0.00  0.00     0.085 C 
ATOM     78  H38 non d ame      -3.985   6.711  64.954  0.00  0.00     0.036 H 
ATOM     79  H39 non d ame      -3.588   8.118  63.760  0.00  0.00     0.036 H 
ATOM     80  N5  non d ame      -4.258   9.018  66.612  0.00  0.00    -0.049 N 
ATOM     81  H40 non d ame      -2.767   7.563  66.159  0.00  0.00     0.075 H 
ATOM     82  H41 non d ame      -2.731   9.148  65.133  0.00  0.00     0.075 H 
ATOM     83  C28 non d ame      -5.689   9.035  65.864  0.00  0.00     0.193 C 
ATOM     84  H42 non d ame      -4.320   8.404  67.410  0.00  0.00     0.280 HD
ATOM     85  H43 non d ame      -3.947   9.971  66.731  0.00  0.00     0.280 HD
ATOM     86  H44 non d ame      -6.078   9.956  65.432  0.00  0.00     0.129 H 
ATOM     87  H37 non d ame      -5.905   9.059  64.087  0.00  0.00     0.046 H 
BRANCH  83  88
ATOM     88  O6  non d ame      -6.712   8.566  66.745  0.00  0.00    -0.369 OA
ATOM     89  H45 non d ame      -6.312   8.071  67.464  0.00  0.00     0.212 HD
ENDBRANCH  83  88
ENDBRANCH  72  75
ENDBRANCH  47  72
ENDBRANCH  45  47
ENDBRANCH   1  43
BRANCH   1  90
ATOM     90  C16 non d ame     -10.099  11.683  63.287  0.00  0.00    -0.035 C 
ATOM     91  H21 non d ame      -9.250  12.325  63.529  0.00  0.00     0.037 H 
ATOM     92  H22 non d ame     -10.183  11.245  62.293  0.00  0.00     0.037 H 
BRANCH  90  93
ATOM     93  C17 non d ame     -11.380  12.551  63.497  0.00  0.00    -0.059 C 
ATOM     94  H23 non d ame     -11.515  13.163  62.606  0.00  0.00     0.038 H 
BRANCH  93  95
ATOM     95  C18 non d ame     -12.663  11.676  63.672  0.00  0.00    -0.073 C 
ATOM     96  H24 non d ame     -12.392  10.622  63.624  0.00  0.00     0.028 H 
ATOM     97  H25 non d ame     -13.119  11.891  64.638  0.00  0.00     0.028 H 
ATOM     98  H26 non d ame     -13.371  11.907  62.876  0.00  0.00     0.028 H 
ENDBRANCH  93  95
BRANCH  93  99
ATOM     99  C19 non d ame     -11.207  13.506  64.682  0.00  0.00    -0.073 C 
ATOM    100  H27 non d ame     -11.625  14.480  64.426  0.00  0.00     0.028 H 
ATOM    101  H28 non d ame     -11.727  13.103  65.551  0.00  0.00     0.028 H 
ATOM    102  H29 non d ame     -10.147  13.613  64.910  0.00  0.00     0.028 H 
ENDBRANCH  93  99
ENDBRANCH  90  93
ENDBRANCH   1  90
TORSDOF 26
ENDMDL
MODEL 8
REMARK VINA RESULT:      -6.6      4.253      9.948
REMARK  26 active torsions:
REMARK  status: ('A' for Active; 'I' for Inactive)
REMARK    1  A    between atoms: C2_2  and  C3_3 
REMARK    2  A    between atoms: C4_6  and  C5_7 
REMARK       I    between atoms: C5_7  and  N2_9 
REMARK    3  A    between atoms: N2_9  and  C6_10 
REMARK    4  A    between atoms: C6_10  and  C7_11 
REMARK    5  A    between atoms: C6_10  and  C8_13 
REMARK       I    between atoms: C7_11  and  N3_14 
REMARK    6  A    between atoms: N3_14  and  C9_15 
REMARK    7  A    between atoms: C9_15  and  C10_16 
REMARK    8  A    between atoms: C9_15  and  C11_18 
REMARK       I    between atoms: C10_16  and  N4_21 
REMARK    9  A    between atoms: C11_18  and  C12_19 
REMARK   10  A    between atoms: C11_18  and  C13_20 
REMARK   11  A    between atoms: N4_21  and  C14_22 
REMARK   12  A    between atoms: C14_22  and  C15_23 
REMARK   13  A    between atoms: C14_22  and  C16_25 
REMARK       I    between atoms: C15_23  and  N6_40 
REMARK   14  A    between atoms: C16_25  and  C17_26 
REMARK   15  A    between atoms: C17_26  and  C18_27 
REMARK   16  A    between atoms: C17_26  and  C19_28 
REMARK   17  A    between atoms: C20_29  and  C21_30 
REMARK   18  A    between atoms: C20_29  and  C24_33 
REMARK   19  A    between atoms: C20_29  and  N6_40 
REMARK   20  A    between atoms: C21_30  and  C22_31 
REMARK   21  A    between atoms: C22_31  and  C23_32 
REMARK   22  A    between atoms: C23_32  and  O8_43 
REMARK   23  A    between atoms: C24_33  and  C25_34 
REMARK   24  A    between atoms: C28_38  and  O6_39 
REMARK   25  A    between atoms: C29_42  and  O8_43 
REMARK   26  A    between atoms: C29_42  and  C35_49 
ROOT
ATOM      1  C14 non d ame      -8.258   6.054  63.504  0.00  0.00     0.089 C 
ATOM      2  H20 non d ame      -8.789   6.237  62.569  0.00  0.00     0.087 H 
ENDROOT
BRANCH   1   3
ATOM      3  N4  non d ame      -8.113   7.334  64.182  0.00  0.00    -0.346 N 
ATOM      4  C10 non d ame      -8.319   8.624  63.428  0.00  0.00     0.241 C 
ATOM      5  O4  non d ame      -8.598   8.606  62.274  0.00  0.00    -0.271 OA
ATOM      6  H19 non d ame      -7.873   7.328  65.164  0.00  0.00     0.163 HD
BRANCH   4   7
ATOM      7  C9  non d ame      -8.170   9.939  64.147  0.00  0.00     0.092 C 
ATOM      8  H11 non d ame      -7.838  10.699  63.440  0.00  0.00     0.088 H 
BRANCH   7   9
ATOM      9  N3  non d ame      -9.476  10.366  64.659  0.00  0.00    -0.346 N 
ATOM     10  C7  non d ame     -10.263  11.322  63.919  0.00  0.00     0.240 C 
ATOM     11  O3  non d ame      -9.861  11.758  62.910  0.00  0.00    -0.271 OA
ATOM     12  H10 non d ame      -9.836   9.999  65.529  0.00  0.00     0.163 HD
BRANCH  10  13
ATOM     13  C6  non d ame     -11.651  11.775  64.471  0.00  0.00     0.086 C 
ATOM     14  H6  non d ame     -12.095  11.044  65.147  0.00  0.00     0.086 H 
BRANCH  13  15
ATOM     15  N2  non d ame     -11.476  12.997  65.239  0.00  0.00    -0.343 N 
ATOM     16  C5  non d ame     -11.709  12.982  66.684  0.00  0.00     0.273 C 
ATOM     17  O2  non d ame     -12.040  11.982  67.220  0.00  0.00    -0.266 OA
ATOM     18  H5  non d ame     -11.196  13.848  64.772  0.00  0.00     0.163 HD
BRANCH  16  19
ATOM     19  C4  non d ame     -11.527  14.266  67.507  0.00  0.00     0.154 A 
ATOM     20  C1  non d ame     -10.783  15.432  67.138  0.00  0.00    -0.017 A 
ATOM     21  C2  non d ame     -10.930  16.317  68.229  0.00  0.00     0.077 A 
ATOM     22  H1  non d ame     -10.223  15.608  66.220  0.00  0.00     0.091 H 
ATOM     23  O1  non d ame     -11.675  15.722  69.114  0.00  0.00    -0.218 OA
ATOM     24  N1  non d ame     -12.036  14.523  68.716  0.00  0.00    -0.123 NA
BRANCH  21  25
ATOM     25  C3  non d ame     -10.329  17.712  68.345  0.00  0.00    -0.029 C 
ATOM     26  H2  non d ame     -11.129  18.452  68.362  0.00  0.00     0.036 H 
ATOM     27  H3  non d ame      -9.750  17.783  69.265  0.00  0.00     0.036 H 
ATOM     28  H4  non d ame      -9.678  17.900  67.490  0.00  0.00     0.036 H 
ENDBRANCH  21  25
ENDBRANCH  16  19
ENDBRANCH  13  15
BRANCH  13  29
ATOM     29  C8  non d ame     -12.597  12.017  63.323  0.00  0.00    -0.049 C 
ATOM     30  H7  non d ame     -13.616  12.093  63.703  0.00  0.00     0.030 H 
ATOM     31  H8  non d ame     -12.327  12.944  62.818  0.00  0.00     0.030 H 
ATOM     32  H9  non d ame     -12.533  11.187  62.619  0.00  0.00     0.030 H 
ENDBRANCH  13  29
ENDBRANCH  10  13
ENDBRANCH   7   9
BRANCH   7  33
ATOM     33  C11 non d ame      -7.179   9.771  65.335  0.00  0.00    -0.033 C 
ATOM     34  H12 non d ame      -7.110   8.707  65.558  0.00  0.00     0.042 H 
BRANCH  33  35
ATOM     35  C12 non d ame      -5.749  10.267  64.957  0.00  0.00    -0.071 C 
ATOM     36  H13 non d ame      -5.150  10.375  65.861  0.00  0.00     0.028 H 
ATOM     37  H14 non d ame      -5.277   9.542  64.293  0.00  0.00     0.028 H 
ATOM     38  H15 non d ame      -5.821  11.229  64.452  0.00  0.00     0.028 H 
ENDBRANCH  33  35
BRANCH  33  39
ATOM     39  C13 non d ame      -7.710  10.498  66.613  0.00  0.00    -0.071 C 
ATOM     40  H16 non d ame      -8.076  11.488  66.342  0.00  0.00     0.028 H 
ATOM     41  H17 non d ame      -8.523   9.917  67.050  0.00  0.00     0.028 H 
ATOM     42  H18 non d ame      -6.902  10.595  67.338  0.00  0.00     0.028 H 
ENDBRANCH  33  39
ENDBRANCH   7  33
ENDBRANCH   4   7
ENDBRANCH   1   3
BRANCH   1  43
ATOM     43  C15 non d ame      -9.033   5.084  64.439  0.00  0.00     0.240 C 
ATOM     44  O5  non d ame      -9.738   4.249  63.973  0.00  0.00    -0.271 OA
ATOM     45  N6  non d ame      -8.888   5.188  65.920  0.00  0.00    -0.355 N 
ATOM     46  H46 non d ame      -8.288   5.891  66.328  0.00  0.00     0.162 HD
BRANCH  45  47
ATOM     47  C20 non d ame      -9.631   4.258  66.796  0.00  0.00     0.013 C 
ATOM     48  H30 non d ame     -10.550   3.973  66.283  0.00  0.00     0.072 H 
BRANCH  47  49
ATOM     49  C21 non d ame      -9.962   4.952  68.098  0.00  0.00    -0.038 C 
ATOM     50  H31 non d ame     -10.464   4.204  68.711  0.00  0.00     0.036 H 
ATOM     51  H32 non d ame      -9.027   5.398  68.439  0.00  0.00     0.036 H 
BRANCH  49  52
ATOM     52  C22 non d ame     -10.961   6.115  67.919  0.00  0.00     0.018 C 
ATOM     53  H33 non d ame     -11.508   5.897  67.001  0.00  0.00     0.048 H 
ATOM     54  H34 non d ame     -11.496   6.193  68.865  0.00  0.00     0.048 H 
BRANCH  52  55
ATOM     55  C23 non d ame     -10.283   7.496  67.696  0.00  0.00     0.259 C 
ATOM     56  O7  non d ame     -10.161   7.937  66.599  0.00  0.00    -0.265 OA
BRANCH  55  57
ATOM     57  O8  non d ame      -9.796   8.222  68.817  0.00  0.00    -0.317 OA
BRANCH  57  58
ATOM     58  C29 non d ame     -10.327   7.782  70.071  0.00  0.00     0.052 C 
ATOM     59  H47 non d ame     -10.904   6.885  69.848  0.00  0.00     0.082 H 
ATOM     60  H48 non d ame      -9.475   7.727  70.749  0.00  0.00     0.082 H 
BRANCH  58  61
ATOM     61  C35 non d ame     -11.298   8.875  70.590  0.00  0.00    -0.034 A 
ATOM     62  C30 non d ame     -12.300   8.545  71.497  0.00  0.00    -0.075 A 
ATOM     63  C31 non d ame     -13.171   9.529  71.963  0.00  0.00    -0.082 A 
ATOM     64  H49 non d ame     -12.401   7.517  71.844  0.00  0.00     0.084 H 
ATOM     65  C32 non d ame     -13.041  10.846  71.515  0.00  0.00    -0.083 A 
ATOM     66  H50 non d ame     -13.953   9.267  72.677  0.00  0.00     0.083 H 
ATOM     67  C33 non d ame     -12.043  11.170  70.606  0.00  0.00    -0.082 A 
ATOM     68  H51 non d ame     -13.718  11.620  71.875  0.00  0.00     0.083 H 
ATOM     69  C34 non d ame     -11.168  10.191  70.141  0.00  0.00    -0.075 A 
ATOM     70  H52 non d ame     -11.945  12.199  70.258  0.00  0.00     0.083 H 
ATOM     71  H53 non d ame     -10.385  10.454  69.428  0.00  0.00     0.084 H 
ENDBRANCH  58  61
ENDBRANCH  57  58
ENDBRANCH  55  57
ENDBRANCH  52  55
ENDBRANCH  49  52
ENDBRANCH  47  49
BRANCH  47  72
ATOM     72  C24 non d ame      -8.777   3.023  67.079  0.00  0.00    -0.039 C 
ATOM     73  H35 non d ame      -9.477   2.258  67.415  0.00  0.00     0.036 H 
ATOM     74  H36 non d ame      -8.190   2.863  66.174  0.00  0.00     0.036 H 
BRANCH  72  75
ATOM     75  C25 non d ame      -7.743   3.277  68.275  0.00  0.00    -0.001 C 
ATOM     76  C26 non d ame      -6.230   3.497  67.670  0.00  0.00    -0.035 C 
ATOM     77  C27 non d ame      -5.377   2.667  68.318  0.00  0.00     0.085 C 
ATOM     78  H38 non d ame      -6.186   3.151  66.638  0.00  0.00     0.036 H 
ATOM     79  H39 non d ame      -5.864   4.490  67.928  0.00  0.00     0.036 H 
ATOM     80  N5  non d ame      -6.221   1.672  69.078  0.00  0.00    -0.049 N 
ATOM     81  H40 non d ame      -4.829   2.143  67.535  0.00  0.00     0.075 H 
ATOM     82  H41 non d ame      -4.844   3.297  69.029  0.00  0.00     0.075 H 
ATOM     83  C28 non d ame      -7.717   2.278  69.093  0.00  0.00     0.193 C 
ATOM     84  H42 non d ame      -6.223   0.823  68.533  0.00  0.00     0.280 HD
ATOM     85  H43 non d ame      -5.870   1.663  70.025  0.00  0.00     0.280 HD
ATOM     86  H44 non d ame      -8.118   2.746  69.991  0.00  0.00     0.129 H 
ATOM     87  H37 non d ame      -8.107   4.022  68.983  0.00  0.00     0.046 H 
BRANCH  83  88
ATOM     88  O6  non d ame      -8.662   1.267  68.736  0.00  0.00    -0.369 OA
ATOM     89  H45 non d ame      -8.411   0.436  69.147  0.00  0.00     0.212 HD
ENDBRANCH  83  88
ENDBRANCH  72  75
ENDBRANCH  47  72
ENDBRANCH  45  47
ENDBRANCH   1  43
BRANCH   1  90
ATOM     90  C16 non d ame      -6.878   5.490  63.211  0.00  0.00    -0.035 C 
ATOM     91  H21 non d ame      -6.901   4.463  63.581  0.00  0.00     0.037 H 
ATOM     92  H22 non d ame      -6.705   5.683  62.152  0.00  0.00     0.037 H 
BRANCH  90  93
ATOM     93  C17 non d ame      -5.728   6.210  63.984  0.00  0.00    -0.059 C 
ATOM     94  H23 non d ame      -6.187   6.848  64.739  0.00  0.00     0.038 H 
BRANCH  93  95
ATOM     95  C18 non d ame      -4.789   5.201  64.720  0.00  0.00    -0.073 C 
ATOM     96  H24 non d ame      -3.960   4.934  64.065  0.00  0.00     0.028 H 
ATOM     97  H25 non d ame      -4.401   5.663  65.628  0.00  0.00     0.028 H 
ATOM     98  H26 non d ame      -5.352   4.305  64.979  0.00  0.00     0.028 H 
ENDBRANCH  93  95
BRANCH  93  99
ATOM     99  C19 non d ame      -4.925   7.119  63.049  0.00  0.00    -0.073 C 
ATOM    100  H27 non d ame      -5.534   7.980  62.769  0.00  0.00     0.028 H 
ATOM    101  H28 non d ame      -4.025   7.461  63.561  0.00  0.00     0.028 H 
ATOM    102  H29 non d ame      -4.645   6.564  62.154  0.00  0.00     0.028 H 
ENDBRANCH  93  99
ENDBRANCH  90  93
ENDBRANCH   1  90
TORSDOF 26
ENDMDL
MODEL 9
REMARK VINA RESULT:      -6.5      3.100      6.218
REMARK  26 active torsions:
REMARK  status: ('A' for Active; 'I' for Inactive)
REMARK    1  A    between atoms: C2_2  and  C3_3 
REMARK    2  A    between atoms: C4_6  and  C5_7 
REMARK       I    between atoms: C5_7  and  N2_9 
REMARK    3  A    between atoms: N2_9  and  C6_10 
REMARK    4  A    between atoms: C6_10  and  C7_11 
REMARK    5  A    between atoms: C6_10  and  C8_13 
REMARK       I    between atoms: C7_11  and  N3_14 
REMARK    6  A    between atoms: N3_14  and  C9_15 
REMARK    7  A    between atoms: C9_15  and  C10_16 
REMARK    8  A    between atoms: C9_15  and  C11_18 
REMARK       I    between atoms: C10_16  and  N4_21 
REMARK    9  A    between atoms: C11_18  and  C12_19 
REMARK   10  A    between atoms: C11_18  and  C13_20 
REMARK   11  A    between atoms: N4_21  and  C14_22 
REMARK   12  A    between atoms: C14_22  and  C15_23 
REMARK   13  A    between atoms: C14_22  and  C16_25 
REMARK       I    between atoms: C15_23  and  N6_40 
REMARK   14  A    between atoms: C16_25  and  C17_26 
REMARK   15  A    between atoms: C17_26  and  C18_27 
REMARK   16  A    between atoms: C17_26  and  C19_28 
REMARK   17  A    between atoms: C20_29  and  C21_30 
REMARK   18  A    between atoms: C20_29  and  C24_33 
REMARK   19  A    between atoms: C20_29  and  N6_40 
REMARK   20  A    between atoms: C21_30  and  C22_31 
REMARK   21  A    between atoms: C22_31  and  C23_32 
REMARK   22  A    between atoms: C23_32  and  O8_43 
REMARK   23  A    between atoms: C24_33  and  C25_34 
REMARK   24  A    between atoms: C28_38  and  O6_39 
REMARK   25  A    between atoms: C29_42  and  O8_43 
REMARK   26  A    between atoms: C29_42  and  C35_49 
ROOT
ATOM      1  C14 non d ame     -10.181  10.986  66.445  0.00  0.00     0.089 C 
ATOM      2  H20 non d ame      -9.105  11.101  66.585  0.00  0.00     0.087 H 
ENDROOT
BRANCH   1   3
ATOM      3  N4  non d ame     -10.619   9.893  67.301  0.00  0.00    -0.346 N 
ATOM      4  C10 non d ame     -10.225   9.862  68.758  0.00  0.00     0.241 C 
ATOM      5  O4  non d ame      -9.553  10.726  69.216  0.00  0.00    -0.271 OA
ATOM      6  H19 non d ame     -11.188   9.166  66.892  0.00  0.00     0.163 HD
BRANCH   4   7
ATOM      7  C9  non d ame     -10.692   8.727  69.631  0.00  0.00     0.092 C 
ATOM      8  H11 non d ame     -11.707   8.450  69.348  0.00  0.00     0.088 H 
BRANCH   7   9
ATOM      9  N3  non d ame      -9.843   7.553  69.401  0.00  0.00    -0.346 N 
ATOM     10  C7  non d ame     -10.445   6.266  69.156  0.00  0.00     0.240 C 
ATOM     11  O3  non d ame     -11.610   6.155  69.141  0.00  0.00    -0.271 OA
ATOM     12  H10 non d ame      -8.836   7.633  69.412  0.00  0.00     0.163 HD
BRANCH  10  13
ATOM     13  C6  non d ame      -9.536   5.020  68.916  0.00  0.00     0.086 C 
ATOM     14  H6  non d ame     -10.107   4.116  68.705  0.00  0.00     0.086 H 
BRANCH  13  15
ATOM     15  N2  non d ame      -8.699   5.265  67.753  0.00  0.00    -0.343 N 
ATOM     16  C5  non d ame      -9.237   5.022  66.412  0.00  0.00     0.273 C 
ATOM     17  O2  non d ame     -10.343   4.628  66.281  0.00  0.00    -0.266 OA
ATOM     18  H5  non d ame      -7.754   5.599  67.875  0.00  0.00     0.163 HD
BRANCH  16  19
ATOM     19  C4  non d ame      -8.364   5.278  65.174  0.00  0.00     0.154 A 
ATOM     20  C1  non d ame      -7.013   5.752  65.151  0.00  0.00    -0.017 A 
ATOM     21  C2  non d ame      -6.673   5.814  63.782  0.00  0.00     0.077 A 
ATOM     22  H1  non d ame      -6.378   6.011  65.998  0.00  0.00     0.091 H 
ATOM     23  O1  non d ame      -7.712   5.417  63.106  0.00  0.00    -0.218 OA
ATOM     24  N1  non d ame      -8.711   5.099  63.897  0.00  0.00    -0.123 NA
BRANCH  21  25
ATOM     25  C3  non d ame      -5.336   6.260  63.204  0.00  0.00    -0.029 C 
ATOM     26  H2  non d ame      -5.136   7.288  63.504  0.00  0.00     0.036 H 
ATOM     27  H3  non d ame      -4.545   5.611  63.578  0.00  0.00     0.036 H 
ATOM     28  H4  non d ame      -5.372   6.199  62.116  0.00  0.00     0.036 H 
ENDBRANCH  21  25
ENDBRANCH  16  19
ENDBRANCH  13  15
BRANCH  13  29
ATOM     29  C8  non d ame      -8.675   4.780  70.130  0.00  0.00    -0.049 C 
ATOM     30  H7  non d ame      -8.162   3.824  70.028  0.00  0.00     0.030 H 
ATOM     31  H8  non d ame      -7.940   5.579  70.219  0.00  0.00     0.030 H 
ATOM     32  H9  non d ame      -9.302   4.761  71.021  0.00  0.00     0.030 H 
ENDBRANCH  13  29
ENDBRANCH  10  13
ENDBRANCH   7   9
BRANCH   7  33
ATOM     33  C11 non d ame     -10.595   9.149  71.126  0.00  0.00    -0.033 C 
ATOM     34  H12 non d ame     -10.351  10.211  71.153  0.00  0.00     0.042 H 
BRANCH  33  35
ATOM     35  C12 non d ame     -11.960   8.962  71.859  0.00  0.00    -0.071 C 
ATOM     36  H13 non d ame     -11.808   8.381  72.768  0.00  0.00     0.028 H 
ATOM     37  H14 non d ame     -12.371   9.938  72.116  0.00  0.00     0.028 H 
ATOM     38  H15 non d ame     -12.654   8.437  71.203  0.00  0.00     0.028 H 
ENDBRANCH  33  35
BRANCH  33  39
ATOM     39  C13 non d ame      -9.452   8.372  71.854  0.00  0.00    -0.071 C 
ATOM     40  H16 non d ame      -9.819   7.995  72.808  0.00  0.00     0.028 H 
ATOM     41  H17 non d ame      -9.128   7.536  71.233  0.00  0.00     0.028 H 
ATOM     42  H18 non d ame      -8.610   9.042  72.028  0.00  0.00     0.028 H 
ENDBRANCH  33  39
ENDBRANCH   7  33
ENDBRANCH   4   7
ENDBRANCH   1   3
BRANCH   1  43
ATOM     43  C15 non d ame     -10.966  12.269  66.841  0.00  0.00     0.240 C 
ATOM     44  O5  non d ame     -12.118  12.365  66.567  0.00  0.00    -0.271 OA
ATOM     45  N6  non d ame     -10.282  13.375  67.569  0.00  0.00    -0.355 N 
ATOM     46  H46 non d ame      -9.304  13.303  67.810  0.00  0.00     0.162 HD
BRANCH  45  47
ATOM     47  C20 non d ame     -11.042  14.589  67.939  0.00  0.00     0.013 C 
ATOM     48  H30 non d ame     -12.084  14.429  67.664  0.00  0.00     0.072 H 
BRANCH  47  49
ATOM     49  C21 non d ame     -10.486  15.776  67.186  0.00  0.00    -0.038 C 
ATOM     50  H31 non d ame     -11.293  16.118  66.538  0.00  0.00     0.036 H 
ATOM     51  H32 non d ame     -10.078  16.442  67.947  0.00  0.00     0.036 H 
BRANCH  49  52
ATOM     52  C22 non d ame      -9.310  15.400  66.258  0.00  0.00     0.018 C 
ATOM     53  H33 non d ame      -9.341  14.314  66.166  0.00  0.00     0.048 H 
ATOM     54  H34 non d ame      -9.421  16.025  65.373  0.00  0.00     0.048 H 
BRANCH  52  55
ATOM     55  C23 non d ame      -7.913  15.739  66.849  0.00  0.00     0.259 C 
ATOM     56  O7  non d ame      -7.528  15.196  67.834  0.00  0.00    -0.265 OA
BRANCH  55  57
ATOM     57  O8  non d ame      -7.103  16.716  66.208  0.00  0.00    -0.317 OA
BRANCH  57  58
ATOM     58  C29 non d ame      -6.794  17.846  67.029  0.00  0.00     0.052 C 
ATOM     59  H47 non d ame      -6.448  17.435  67.977  0.00  0.00     0.082 H 
ATOM     60  H48 non d ame      -6.131  18.471  66.432  0.00  0.00     0.082 H 
BRANCH  58  61
ATOM     61  C35 non d ame      -8.110  18.628  67.282  0.00  0.00    -0.034 A 
ATOM     62  C30 non d ame      -8.578  18.806  68.580  0.00  0.00    -0.075 A 
ATOM     63  C31 non d ame      -9.760  19.509  68.807  0.00  0.00    -0.082 A 
ATOM     64  H49 non d ame      -8.017  18.396  69.420  0.00  0.00     0.084 H 
ATOM     65  C32 non d ame     -10.478  20.031  67.728  0.00  0.00    -0.083 A 
ATOM     66  H50 non d ame     -10.121  19.649  69.826  0.00  0.00     0.083 H 
ATOM     67  C33 non d ame     -10.011  19.848  66.434  0.00  0.00    -0.082 A 
ATOM     68  H51 non d ame     -11.404  20.583  67.897  0.00  0.00     0.083 H 
ATOM     69  C34 non d ame      -8.828  19.148  66.204  0.00  0.00    -0.075 A 
ATOM     70  H52 non d ame     -10.575  20.256  65.594  0.00  0.00     0.083 H 
ATOM     71  H53 non d ame      -8.466  19.010  65.184  0.00  0.00     0.084 H 
ENDBRANCH  58  61
ENDBRANCH  57  58
ENDBRANCH  55  57
ENDBRANCH  52  55
ENDBRANCH  49  52
ENDBRANCH  47  49
BRANCH  47  72
ATOM     72  C24 non d ame     -10.921  14.835  69.441  0.00  0.00    -0.039 C 
ATOM     73  H35 non d ame     -10.355  13.987  69.829  0.00  0.00     0.036 H 
ATOM     74  H36 non d ame     -10.524  15.845  69.539  0.00  0.00     0.036 H 
BRANCH  72  75
ATOM     75  C25 non d ame     -12.352  14.818  70.162  0.00  0.00    -0.001 C 
ATOM     76  C26 non d ame     -12.368  15.903  71.398  0.00  0.00    -0.035 C 
ATOM     77  C27 non d ame     -12.808  15.281  72.518  0.00  0.00     0.085 C 
ATOM     78  H38 non d ame     -11.351  16.196  71.652  0.00  0.00     0.036 H 
ATOM     79  H39 non d ame     -13.126  16.665  71.216  0.00  0.00     0.036 H 
ATOM     80  N5  non d ame     -12.780  13.797  72.239  0.00  0.00    -0.049 N 
ATOM     81  H40 non d ame     -12.071  15.512  73.288  0.00  0.00     0.075 H 
ATOM     82  H41 non d ame     -13.842  15.600  72.641  0.00  0.00     0.075 H 
ATOM     83  C28 non d ame     -12.623  13.649  70.639  0.00  0.00     0.193 C 
ATOM     84  H42 non d ame     -11.946  13.439  72.679  0.00  0.00     0.280 HD
ATOM     85  H43 non d ame     -13.686  13.439  72.506  0.00  0.00     0.280 HD
ATOM     86  H44 non d ame     -13.477  13.375  70.021  0.00  0.00     0.129 H 
ATOM     87  H37 non d ame     -13.174  14.867  69.448  0.00  0.00     0.046 H 
BRANCH  83  88
ATOM     88  O6  non d ame     -11.606  12.693  70.330  0.00  0.00    -0.369 OA
ATOM     89  H45 non d ame     -10.827  13.150  70.003  0.00  0.00     0.212 HD
ENDBRANCH  83  88
ENDBRANCH  72  75
ENDBRANCH  47  72
ENDBRANCH  45  47
ENDBRANCH   1  43
BRANCH   1  90
ATOM     90  C16 non d ame     -10.477  10.630  64.998  0.00  0.00    -0.035 C 
ATOM     91  H21 non d ame     -10.888   9.620  65.027  0.00  0.00     0.037 H 
ATOM     92  H22 non d ame     -11.081  11.453  64.616  0.00  0.00     0.037 H 
BRANCH  90  93
ATOM     93  C17 non d ame      -9.204  10.562  64.095  0.00  0.00    -0.059 C 
ATOM     94  H23 non d ame      -8.378  10.999  64.656  0.00  0.00     0.038 H 
BRANCH  93  95
ATOM     95  C18 non d ame      -8.812   9.093  63.737  0.00  0.00    -0.073 C 
ATOM     96  H24 non d ame      -7.944   8.795  64.326  0.00  0.00     0.028 H 
ATOM     97  H25 non d ame      -9.648   8.430  63.961  0.00  0.00     0.028 H 
ATOM     98  H26 non d ame      -8.572   9.030  62.676  0.00  0.00     0.028 H 
ENDBRANCH  93  95
BRANCH  93  99
ATOM     99  C19 non d ame      -9.386  11.402  62.828  0.00  0.00    -0.073 C 
ATOM    100  H27 non d ame      -8.555  12.102  62.734  0.00  0.00     0.028 H 
ATOM    101  H28 non d ame      -9.408  10.745  61.958  0.00  0.00     0.028 H 
ATOM    102  H29 non d ame     -10.323  11.954  62.889  0.00  0.00     0.028 H 
ENDBRANCH  93  99
ENDBRANCH  90  93
ENDBRANCH   1  90
TORSDOF 26
ENDMDL
MODEL 10
REMARK VINA RESULT:      -6.4      2.526      4.362
REMARK  26 active torsions:
REMARK  status: ('A' for Active; 'I' for Inactive)
REMARK    1  A    between atoms: C2_2  and  C3_3 
REMARK    2  A    between atoms: C4_6  and  C5_7 
REMARK       I    between atoms: C5_7  and  N2_9 
REMARK    3  A    between atoms: N2_9  and  C6_10 
REMARK    4  A    between atoms: C6_10  and  C7_11 
REMARK    5  A    between atoms: C6_10  and  C8_13 
REMARK       I    between atoms: C7_11  and  N3_14 
REMARK    6  A    between atoms: N3_14  and  C9_15 
REMARK    7  A    between atoms: C9_15  and  C10_16 
REMARK    8  A    between atoms: C9_15  and  C11_18 
REMARK       I    between atoms: C10_16  and  N4_21 
REMARK    9  A    between atoms: C11_18  and  C12_19 
REMARK   10  A    between atoms: C11_18  and  C13_20 
REMARK   11  A    between atoms: N4_21  and  C14_22 
REMARK   12  A    between atoms: C14_22  and  C15_23 
REMARK   13  A    between atoms: C14_22  and  C16_25 
REMARK       I    between atoms: C15_23  and  N6_40 
REMARK   14  A    between atoms: C16_25  and  C17_26 
REMARK   15  A    between atoms: C17_26  and  C18_27 
REMARK   16  A    between atoms: C17_26  and  C19_28 
REMARK   17  A    between atoms: C20_29  and  C21_30 
REMARK   18  A    between atoms: C20_29  and  C24_33 
REMARK   19  A    between atoms: C20_29  and  N6_40 
REMARK   20  A    between atoms: C21_30  and  C22_31 
REMARK   21  A    between atoms: C22_31  and  C23_32 
REMARK   22  A    between atoms: C23_32  and  O8_43 
REMARK   23  A    between atoms: C24_33  and  C25_34 
REMARK   24  A    between atoms: C28_38  and  O6_39 
REMARK   25  A    between atoms: C29_42  and  O8_43 
REMARK   26  A    between atoms: C29_42  and  C35_49 
ROOT
ATOM      1  C14 non d ame     -11.707  14.958  70.162  0.00  0.00     0.089 C 
ATOM      2  H20 non d ame     -12.729  15.024  69.786  0.00  0.00     0.087 H 
ENDROOT
BRANCH   1   3
ATOM      3  N4  non d ame     -11.372  13.547  70.275  0.00  0.00    -0.346 N 
ATOM      4  C10 non d ame     -11.665  12.601  69.137  0.00  0.00     0.241 C 
ATOM      5  O4  non d ame     -12.173  13.000  68.141  0.00  0.00    -0.271 OA
ATOM      6  H19 non d ame     -10.942  13.226  71.131  0.00  0.00     0.163 HD
BRANCH   4   7
ATOM      7  C9  non d ame     -11.307  11.144  69.268  0.00  0.00     0.092 C 
ATOM      8  H11 non d ame     -11.857  10.570  68.522  0.00  0.00     0.088 H 
BRANCH   7   9
ATOM      9  N3  non d ame      -9.879  10.964  68.985  0.00  0.00    -0.346 N 
ATOM     10  C7  non d ame      -9.456  10.477  67.696  0.00  0.00     0.240 C 
ATOM     11  O3  non d ame     -10.249  10.224  66.874  0.00  0.00    -0.271 OA
ATOM     12  H10 non d ame      -9.182  11.177  69.685  0.00  0.00     0.163 HD
BRANCH  10  13
ATOM     13  C6  non d ame      -7.935  10.284  67.402  0.00  0.00     0.086 C 
ATOM     14  H6  non d ame      -7.337  10.207  68.310  0.00  0.00     0.086 H 
BRANCH  13  15
ATOM     15  N2  non d ame      -7.750   9.039  66.675  0.00  0.00    -0.343 N 
ATOM     16  C5  non d ame      -7.666   9.062  65.213  0.00  0.00     0.273 C 
ATOM     17  O2  non d ame      -7.752  10.087  64.632  0.00  0.00    -0.266 OA
ATOM     18  H5  non d ame      -7.680   8.167  67.180  0.00  0.00     0.163 HD
BRANCH  16  19
ATOM     19  C4  non d ame      -7.469   7.754  64.432  0.00  0.00     0.154 A 
ATOM     20  C1  non d ame      -8.334   7.204  63.433  0.00  0.00    -0.017 A 
ATOM     21  C2  non d ame      -7.708   6.004  63.031  0.00  0.00     0.077 A 
ATOM     22  H1  non d ame      -9.271   7.615  63.057  0.00  0.00     0.091 H 
ATOM     23  O1  non d ame      -6.612   5.888  63.723  0.00  0.00    -0.218 OA
ATOM     24  N1  non d ame      -6.451   6.897  64.547  0.00  0.00    -0.123 NA
BRANCH  21  25
ATOM     25  C3  non d ame      -8.221   5.028  61.981  0.00  0.00    -0.029 C 
ATOM     26  H2  non d ame      -9.309   4.987  62.023  0.00  0.00     0.036 H 
ATOM     27  H3  non d ame      -7.908   5.361  60.992  0.00  0.00     0.036 H 
ATOM     28  H4  non d ame      -7.812   4.035  62.176  0.00  0.00     0.036 H 
ENDBRANCH  21  25
ENDBRANCH  16  19
ENDBRANCH  13  15
BRANCH  13  29
ATOM     29  C8  non d ame      -7.428  11.442  66.581  0.00  0.00    -0.049 C 
ATOM     30  H7  non d ame      -7.442  11.172  65.525  0.00  0.00     0.030 H 
ATOM     31  H8  non d ame      -8.066  12.310  66.743  0.00  0.00     0.030 H 
ATOM     32  H9  non d ame      -6.407  11.680  66.880  0.00  0.00     0.030 H 
ENDBRANCH  13  29
ENDBRANCH  10  13
ENDBRANCH   7   9
BRANCH   7  33
ATOM     33  C11 non d ame     -11.611  10.664  70.717  0.00  0.00    -0.033 C 
ATOM     34  H12 non d ame     -11.340  11.472  71.395  0.00  0.00     0.042 H 
BRANCH  33  35
ATOM     35  C12 non d ame     -13.132  10.376  70.913  0.00  0.00    -0.071 C 
ATOM     36  H13 non d ame     -13.486  10.886  71.810  0.00  0.00     0.028 H 
ATOM     37  H14 non d ame     -13.685  10.738  70.047  0.00  0.00     0.028 H 
ATOM     38  H15 non d ame     -13.287   9.304  71.022  0.00  0.00     0.028 H 
ENDBRANCH  33  35
BRANCH  33  39
ATOM     39  C13 non d ame     -10.747   9.414  71.085  0.00  0.00    -0.071 C 
ATOM     40  H16 non d ame     -11.039   8.574  70.456  0.00  0.00     0.028 H 
ATOM     41  H17 non d ame      -9.693   9.641  70.923  0.00  0.00     0.028 H 
ATOM     42  H18 non d ame     -10.906   9.158  72.132  0.00  0.00     0.028 H 
ENDBRANCH  33  39
ENDBRANCH   7  33
ENDBRANCH   4   7
ENDBRANCH   1   3
BRANCH   1  43
ATOM     43  C15 non d ame     -10.684  15.634  69.206  0.00  0.00     0.240 C 
ATOM     44  O5  non d ame      -9.582  15.867  69.586  0.00  0.00    -0.271 OA
ATOM     45  N6  non d ame     -11.075  15.984  67.810  0.00  0.00    -0.355 N 
ATOM     46  H46 non d ame     -12.007  15.787  67.474  0.00  0.00     0.162 HD
BRANCH  45  47
ATOM     47  C20 non d ame     -10.091  16.625  66.912  0.00  0.00     0.013 C 
ATOM     48  H30 non d ame      -9.116  16.581  67.396  0.00  0.00     0.072 H 
BRANCH  47  49
ATOM     49  C21 non d ame     -10.488  18.066  66.682  0.00  0.00    -0.038 C 
ATOM     50  H31 non d ame     -10.173  18.299  65.665  0.00  0.00     0.036 H 
ATOM     51  H32 non d ame     -11.542  18.128  66.954  0.00  0.00     0.036 H 
BRANCH  49  52
ATOM     52  C22 non d ame      -9.739  19.049  67.608  0.00  0.00     0.018 C 
ATOM     53  H33 non d ame     -10.440  19.859  67.808  0.00  0.00     0.048 H 
ATOM     54  H34 non d ame      -9.355  18.446  68.430  0.00  0.00     0.048 H 
BRANCH  52  55
ATOM     55  C23 non d ame      -8.498  19.711  66.946  0.00  0.00     0.259 C 
ATOM     56  O7  non d ame      -8.100  20.763  67.330  0.00  0.00    -0.265 OA
BRANCH  55  57
ATOM     57  O8  non d ame      -7.851  19.053  65.864  0.00  0.00    -0.317 OA
BRANCH  57  58
ATOM     58  C29 non d ame      -6.446  18.859  66.058  0.00  0.00     0.052 C 
ATOM     59  H47 non d ame      -6.075  18.440  65.124  0.00  0.00     0.082 H 
ATOM     60  H48 non d ame      -6.064  19.815  66.417  0.00  0.00     0.082 H 
BRANCH  58  61
ATOM     61  C35 non d ame      -6.260  17.804  67.181  0.00  0.00    -0.034 A 
ATOM     62  C30 non d ame      -6.592  16.473  66.949  0.00  0.00    -0.075 A 
ATOM     63  C31 non d ame      -6.424  15.525  67.958  0.00  0.00    -0.082 A 
ATOM     64  H49 non d ame      -6.983  16.172  65.977  0.00  0.00     0.084 H 
ATOM     65  C32 non d ame      -5.925  15.914  69.204  0.00  0.00    -0.083 A 
ATOM     66  H50 non d ame      -6.682  14.483  67.772  0.00  0.00     0.083 H 
ATOM     67  C33 non d ame      -5.598  17.244  69.432  0.00  0.00    -0.082 A 
ATOM     68  H51 non d ame      -5.789  15.179  69.998  0.00  0.00     0.083 H 
ATOM     69  C34 non d ame      -5.762  18.194  68.426  0.00  0.00    -0.075 A 
ATOM     70  H52 non d ame      -5.210  17.544  70.406  0.00  0.00     0.083 H 
ATOM     71  H53 non d ame      -5.501  19.236  68.612  0.00  0.00     0.084 H 
ENDBRANCH  58  61
ENDBRANCH  57  58
ENDBRANCH  55  57
ENDBRANCH  52  55
ENDBRANCH  49  52
ENDBRANCH  47  49
BRANCH  47  72
ATOM     72  C24 non d ame     -10.054  15.886  65.576  0.00  0.00    -0.039 C 
ATOM     73  H35 non d ame     -10.285  16.639  64.822  0.00  0.00     0.036 H 
ATOM     74  H36 non d ame      -9.092  15.373  65.554  0.00  0.00     0.036 H 
BRANCH  72  75
ATOM     75  C25 non d ame     -11.191  14.762  65.487  0.00  0.00    -0.001 C 
ATOM     76  C26 non d ame     -10.509  13.300  65.169  0.00  0.00    -0.035 C 
ATOM     77  C27 non d ame     -11.147  12.742  64.112  0.00  0.00     0.085 C 
ATOM     78  H38 non d ame      -9.489  13.433  64.810  0.00  0.00     0.036 H 
ATOM     79  H39 non d ame     -10.714  12.607  65.984  0.00  0.00     0.036 H 
ATOM     80  N5  non d ame     -11.981  13.829  63.476  0.00  0.00    -0.049 N 
ATOM     81  H40 non d ame     -10.359  12.448  63.418  0.00  0.00     0.075 H 
ATOM     82  H41 non d ame     -11.809  11.989  64.536  0.00  0.00     0.075 H 
ATOM     83  C28 non d ame     -12.042  15.029  64.553  0.00  0.00     0.193 C 
ATOM     84  H42 non d ame     -11.468  14.147  62.668  0.00  0.00     0.280 HD
ATOM     85  H43 non d ame     -12.911  13.449  63.367  0.00  0.00     0.280 HD
ATOM     86  H44 non d ame     -12.941  15.198  65.146  0.00  0.00     0.129 H 
ATOM     87  H37 non d ame     -11.887  14.813  66.324  0.00  0.00     0.046 H 
BRANCH  83  88
ATOM     88  O6  non d ame     -11.767  16.279  63.916  0.00  0.00    -0.369 OA
ATOM     89  H45 non d ame     -11.615  16.132  62.979  0.00  0.00     0.212 HD
ENDBRANCH  83  88
ENDBRANCH  72  75
ENDBRANCH  47  72
ENDBRANCH  45  47
ENDBRANCH   1  43
BRANCH   1  90
ATOM     90  C16 non d ame     -11.622  15.600  71.538  0.00  0.00    -0.035 C 
ATOM     91  H21 non d ame     -10.616  15.379  71.897  0.00  0.00     0.037 H 
ATOM     92  H22 non d ame     -11.934  16.634  71.394  0.00  0.00     0.037 H 
BRANCH  90  93
ATOM     93  C17 non d ame     -12.608  14.982  72.580  0.00  0.00    -0.059 C 
ATOM     94  H23 non d ame     -12.436  13.906  72.599  0.00  0.00     0.038 H 
BRANCH  93  95
ATOM     95  C18 non d ame     -12.360  15.529  74.022  0.00  0.00    -0.073 C 
ATOM     96  H24 non d ame     -11.301  15.444  74.266  0.00  0.00     0.028 H 
ATOM     97  H25 non d ame     -12.661  16.575  74.069  0.00  0.00     0.028 H 
ATOM     98  H26 non d ame     -12.946  14.949  74.735  0.00  0.00     0.028 H 
ENDBRANCH  93  95
BRANCH  93  99
ATOM     99  C19 non d ame     -14.062  15.202  72.155  0.00  0.00    -0.073 C 
ATOM    100  H27 non d ame     -14.505  15.985  72.772  0.00  0.00     0.028 H 
ATOM    101  H28 non d ame     -14.092  15.504  71.108  0.00  0.00     0.028 H 
ATOM    102  H29 non d ame     -14.623  14.276  72.282  0.00  0.00     0.028 H 
ENDBRANCH  93  99
ENDBRANCH  90  93
ENDBRANCH   1  90
TORSDOF 26
ENDMDL
MODEL 11
REMARK VINA RESULT:      -6.4      3.509      6.274
REMARK  26 active torsions:
REMARK  status: ('A' for Active; 'I' for Inactive)
REMARK    1  A    between atoms: C2_2  and  C3_3 
REMARK    2  A    between atoms: C4_6  and  C5_7 
REMARK       I    between atoms: C5_7  and  N2_9 
REMARK    3  A    between atoms: N2_9  and  C6_10 
REMARK    4  A    between atoms: C6_10  and  C7_11 
REMARK    5  A    between atoms: C6_10  and  C8_13 
REMARK       I    between atoms: C7_11  and  N3_14 
REMARK    6  A    between atoms: N3_14  and  C9_15 
REMARK    7  A    between atoms: C9_15  and  C10_16 
REMARK    8  A    between atoms: C9_15  and  C11_18 
REMARK       I    between atoms: C10_16  and  N4_21 
REMARK    9  A    between atoms: C11_18  and  C12_19 
REMARK   10  A    between atoms: C11_18  and  C13_20 
REMARK   11  A    between atoms: N4_21  and  C14_22 
REMARK   12  A    between atoms: C14_22  and  C15_23 
REMARK   13  A    between atoms: C14_22  and  C16_25 
REMARK       I    between atoms: C15_23  and  N6_40 
REMARK   14  A    between atoms: C16_25  and  C17_26 
REMARK   15  A    between atoms: C17_26  and  C18_27 
REMARK   16  A    between atoms: C17_26  and  C19_28 
REMARK   17  A    between atoms: C20_29  and  C21_30 
REMARK   18  A    between atoms: C20_29  and  C24_33 
REMARK   19  A    between atoms: C20_29  and  N6_40 
REMARK   20  A    between atoms: C21_30  and  C22_31 
REMARK   21  A    between atoms: C22_31  and  C23_32 
REMARK   22  A    between atoms: C23_32  and  O8_43 
REMARK   23  A    between atoms: C24_33  and  C25_34 
REMARK   24  A    between atoms: C28_38  and  O6_39 
REMARK   25  A    between atoms: C29_42  and  O8_43 
REMARK   26  A    between atoms: C29_42  and  C35_49 
ROOT
ATOM      1  C14 non d ame     -10.107  10.681  68.581  0.00  0.00     0.089 C 
ATOM      2  H20 non d ame      -9.401  10.749  69.410  0.00  0.00     0.087 H 
ENDROOT
BRANCH   1   3
ATOM      3  N4  non d ame     -10.677   9.342  68.601  0.00  0.00    -0.346 N 
ATOM      4  C10 non d ame      -9.911   8.196  69.216  0.00  0.00     0.241 C 
ATOM      5  O4  non d ame      -8.836   8.378  69.686  0.00  0.00    -0.271 OA
ATOM      6  H19 non d ame     -11.592   9.207  68.193  0.00  0.00     0.163 HD
BRANCH   4   7
ATOM      7  C9  non d ame     -10.518   6.818  69.232  0.00  0.00     0.092 C 
ATOM      8  H11 non d ame     -11.555   6.878  68.901  0.00  0.00     0.088 H 
BRANCH   7   9
ATOM      9  N3  non d ame      -9.808   5.960  68.278  0.00  0.00    -0.346 N 
ATOM     10  C7  non d ame     -10.284   5.843  66.922  0.00  0.00     0.240 C 
ATOM     11  O3  non d ame     -11.237   6.431  66.581  0.00  0.00    -0.271 OA
ATOM     12  H10 non d ame      -8.985   5.446  68.558  0.00  0.00     0.163 HD
BRANCH  10  13
ATOM     13  C6  non d ame      -9.526   4.926  65.912  0.00  0.00     0.086 C 
ATOM     14  H6  non d ame     -10.107   4.718  65.013  0.00  0.00     0.086 H 
BRANCH  13  15
ATOM     15  N2  non d ame      -8.315   5.603  65.478  0.00  0.00    -0.343 N 
ATOM     16  C5  non d ame      -7.948   5.587  64.060  0.00  0.00     0.273 C 
ATOM     17  O2  non d ame      -8.632   5.025  63.278  0.00  0.00    -0.266 OA
ATOM     18  H5  non d ame      -7.735   6.078  66.155  0.00  0.00     0.163 HD
BRANCH  16  19
ATOM     19  C4  non d ame      -6.671   6.300  63.588  0.00  0.00     0.154 A 
ATOM     20  C1  non d ame      -6.427   7.710  63.563  0.00  0.00    -0.017 A 
ATOM     21  C2  non d ame      -5.118   7.842  63.049  0.00  0.00     0.077 A 
ATOM     22  H1  non d ame      -7.096   8.513  63.871  0.00  0.00     0.091 H 
ATOM     23  O1  non d ame      -4.671   6.643  62.812  0.00  0.00    -0.218 OA
ATOM     24  N1  non d ame      -5.560   5.726  63.119  0.00  0.00    -0.123 NA
BRANCH  21  25
ATOM     25  C3  non d ame      -4.368   9.147  62.817  0.00  0.00    -0.029 C 
ATOM     26  H2  non d ame      -5.082   9.947  62.620  0.00  0.00     0.036 H 
ATOM     27  H3  non d ame      -3.783   9.393  63.703  0.00  0.00     0.036 H 
ATOM     28  H4  non d ame      -3.701   9.036  61.961  0.00  0.00     0.036 H 
ENDBRANCH  21  25
ENDBRANCH  16  19
ENDBRANCH  13  15
BRANCH  13  29
ATOM     29  C8  non d ame      -9.177   3.620  66.579  0.00  0.00    -0.049 C 
ATOM     30  H7  non d ame     -10.086   3.039  66.738  0.00  0.00     0.030 H 
ATOM     31  H8  non d ame      -8.492   3.058  65.944  0.00  0.00     0.030 H 
ATOM     32  H9  non d ame      -8.702   3.819  67.540  0.00  0.00     0.030 H 
ENDBRANCH  13  29
ENDBRANCH  10  13
ENDBRANCH   7   9
BRANCH   7  33
ATOM     33  C11 non d ame     -10.393   6.214  70.661  0.00  0.00    -0.033 C 
ATOM     34  H12 non d ame      -9.564   6.715  71.159  0.00  0.00     0.042 H 
BRANCH  33  35
ATOM     35  C12 non d ame     -11.679   6.482  71.506  0.00  0.00    -0.071 C 
ATOM     36  H13 non d ame     -12.439   6.942  70.874  0.00  0.00     0.028 H 
ATOM     37  H14 non d ame     -12.056   5.539  71.900  0.00  0.00     0.028 H 
ATOM     38  H15 non d ame     -11.437   7.151  72.330  0.00  0.00     0.028 H 
ENDBRANCH  33  35
BRANCH  33  39
ATOM     39  C13 non d ame     -10.067   4.687  70.597  0.00  0.00    -0.071 C 
ATOM     40  H16 non d ame     -10.975   4.131  70.363  0.00  0.00     0.028 H 
ATOM     41  H17 non d ame      -9.321   4.507  69.821  0.00  0.00     0.028 H 
ATOM     42  H18 non d ame      -9.676   4.358  71.559  0.00  0.00     0.028 H 
ENDBRANCH  33  39
ENDBRANCH   7  33
ENDBRANCH   4   7
ENDBRANCH   1   3
BRANCH   1  43
ATOM     43  C15 non d ame     -11.264  11.712  68.708  0.00  0.00     0.240 C 
ATOM     44  O5  non d ame     -12.355  11.426  68.336  0.00  0.00    -0.271 OA
ATOM     45  N6  non d ame     -11.013  13.056  69.304  0.00  0.00    -0.355 N 
ATOM     46  H46 non d ame     -10.091  13.308  69.628  0.00  0.00     0.162 HD
BRANCH  45  47
ATOM     47  C20 non d ame     -12.124  14.025  69.419  0.00  0.00     0.013 C 
ATOM     48  H30 non d ame     -12.887  13.749  68.691  0.00  0.00     0.072 H 
BRANCH  47  49
ATOM     49  C21 non d ame     -11.608  15.415  69.124  0.00  0.00    -0.038 C 
ATOM     50  H31 non d ame     -12.454  15.961  68.708  0.00  0.00     0.036 H 
ATOM     51  H32 non d ame     -11.138  15.757  70.047  0.00  0.00     0.036 H 
BRANCH  49  52
ATOM     52  C22 non d ame     -10.505  15.427  68.042  0.00  0.00     0.018 C 
ATOM     53  H33 non d ame      -9.700  14.805  68.434  0.00  0.00     0.048 H 
ATOM     54  H34 non d ame     -11.001  15.154  67.112  0.00  0.00     0.048 H 
BRANCH  52  55
ATOM     55  C23 non d ame      -9.881  16.830  67.800  0.00  0.00     0.259 C 
ATOM     56  O7  non d ame     -10.562  17.804  67.816  0.00  0.00    -0.265 OA
BRANCH  55  57
ATOM     57  O8  non d ame      -8.486  16.937  67.544  0.00  0.00    -0.317 OA
BRANCH  57  58
ATOM     58  C29 non d ame      -8.169  17.313  66.200  0.00  0.00     0.052 C 
ATOM     59  H47 non d ame      -7.553  16.506  65.806  0.00  0.00     0.082 H 
ATOM     60  H48 non d ame      -9.122  17.551  65.728  0.00  0.00     0.082 H 
BRANCH  58  61
ATOM     61  C35 non d ame      -7.312  18.606  66.254  0.00  0.00    -0.034 A 
ATOM     62  C30 non d ame      -7.645  19.627  67.139  0.00  0.00    -0.075 A 
ATOM     63  C31 non d ame      -6.875  20.788  67.188  0.00  0.00    -0.082 A 
ATOM     64  H49 non d ame      -8.509  19.516  67.795  0.00  0.00     0.084 H 
ATOM     65  C32 non d ame      -5.770  20.927  66.344  0.00  0.00    -0.083 A 
ATOM     66  H50 non d ame      -7.137  21.584  67.885  0.00  0.00     0.083 H 
ATOM     67  C33 non d ame      -5.443  19.908  65.460  0.00  0.00    -0.082 A 
ATOM     68  H51 non d ame      -5.162  21.832  66.376  0.00  0.00     0.083 H 
ATOM     69  C34 non d ame      -6.209  18.745  65.410  0.00  0.00    -0.075 A 
ATOM     70  H52 non d ame      -4.581  20.022  64.802  0.00  0.00     0.083 H 
ATOM     71  H53 non d ame      -5.945  17.948  64.713  0.00  0.00     0.084 H 
ENDBRANCH  58  61
ENDBRANCH  57  58
ENDBRANCH  55  57
ENDBRANCH  52  55
ENDBRANCH  49  52
ENDBRANCH  47  49
BRANCH  47  72
ATOM     72  C24 non d ame     -12.700  13.984  70.833  0.00  0.00    -0.039 C 
ATOM     73  H35 non d ame     -13.685  13.527  70.731  0.00  0.00     0.036 H 
ATOM     74  H36 non d ame     -11.937  13.501  71.444  0.00  0.00     0.036 H 
BRANCH  72  75
ATOM     75  C25 non d ame     -12.920  15.455  71.427  0.00  0.00    -0.001 C 
ATOM     76  C26 non d ame     -11.772  15.779  72.559  0.00  0.00    -0.035 C 
ATOM     77  C27 non d ame     -12.383  16.216  73.687  0.00  0.00     0.085 C 
ATOM     78  H38 non d ame     -11.286  14.856  72.873  0.00  0.00     0.036 H 
ATOM     79  H39 non d ame     -11.171  16.633  72.248  0.00  0.00     0.036 H 
ATOM     80  N5  non d ame     -13.854  15.908  73.539  0.00  0.00    -0.049 N 
ATOM     81  H40 non d ame     -11.972  15.609  74.494  0.00  0.00     0.075 H 
ATOM     82  H41 non d ame     -12.245  17.296  73.693  0.00  0.00     0.075 H 
ATOM     83  C28 non d ame     -14.083  15.569  71.977  0.00  0.00     0.193 C 
ATOM     84  H42 non d ame     -14.027  15.073  74.078  0.00  0.00     0.280 HD
ATOM     85  H43 non d ame     -14.348  16.762  73.758  0.00  0.00     0.280 HD
ATOM     86  H44 non d ame     -14.546  16.299  71.314  0.00  0.00     0.129 H 
ATOM     87  H37 non d ame     -13.067  16.199  70.643  0.00  0.00     0.046 H 
BRANCH  83  88
ATOM     88  O6  non d ame     -14.862  14.380  71.840  0.00  0.00    -0.369 OA
ATOM     89  H45 non d ame     -15.649  14.448  72.386  0.00  0.00     0.212 HD
ENDBRANCH  83  88
ENDBRANCH  72  75
ENDBRANCH  47  72
ENDBRANCH  45  47
ENDBRANCH   1  43
BRANCH   1  90
ATOM     90  C16 non d ame      -9.378  10.890  67.264  0.00  0.00    -0.035 C 
ATOM     91  H21 non d ame      -9.405  11.966  67.087  0.00  0.00     0.037 H 
ATOM     92  H22 non d ame      -8.421  10.381  67.380  0.00  0.00     0.037 H 
BRANCH  90  93
ATOM     93  C17 non d ame     -10.087  10.224  66.042  0.00  0.00    -0.059 C 
ATOM     94  H23 non d ame     -10.975   9.713  66.413  0.00  0.00     0.038 H 
BRANCH  93  95
ATOM     95  C18 non d ame     -10.550  11.276  64.984  0.00  0.00    -0.073 C 
ATOM     96  H24 non d ame      -9.721  11.508  64.316  0.00  0.00     0.028 H 
ATOM     97  H25 non d ame     -11.379  10.869  64.407  0.00  0.00     0.028 H 
ATOM     98  H26 non d ame     -10.873  12.185  65.493  0.00  0.00     0.028 H 
ENDBRANCH  93  95
BRANCH  93  99
ATOM     99  C19 non d ame      -9.188   9.164  65.399  0.00  0.00    -0.073 C 
ATOM    100  H27 non d ame      -9.746   8.234  65.289  0.00  0.00     0.028 H 
ATOM    101  H28 non d ame      -8.864   9.512  64.418  0.00  0.00     0.028 H 
ATOM    102  H29 non d ame      -8.316   8.994  66.030  0.00  0.00     0.028 H 
ENDBRANCH  93  99
ENDBRANCH  90  93
ENDBRANCH   1  90
TORSDOF 26
ENDMDL
MODEL 12
REMARK VINA RESULT:      -6.4      2.301      7.885
REMARK  26 active torsions:
REMARK  status: ('A' for Active; 'I' for Inactive)
REMARK    1  A    between atoms: C2_2  and  C3_3 
REMARK    2  A    between atoms: C4_6  and  C5_7 
REMARK       I    between atoms: C5_7  and  N2_9 
REMARK    3  A    between atoms: N2_9  and  C6_10 
REMARK    4  A    between atoms: C6_10  and  C7_11 
REMARK    5  A    between atoms: C6_10  and  C8_13 
REMARK       I    between atoms: C7_11  and  N3_14 
REMARK    6  A    between atoms: N3_14  and  C9_15 
REMARK    7  A    between atoms: C9_15  and  C10_16 
REMARK    8  A    between atoms: C9_15  and  C11_18 
REMARK       I    between atoms: C10_16  and  N4_21 
REMARK    9  A    between atoms: C11_18  and  C12_19 
REMARK   10  A    between atoms: C11_18  and  C13_20 
REMARK   11  A    between atoms: N4_21  and  C14_22 
REMARK   12  A    between atoms: C14_22  and  C15_23 
REMARK   13  A    between atoms: C14_22  and  C16_25 
REMARK       I    between atoms: C15_23  and  N6_40 
REMARK   14  A    between atoms: C16_25  and  C17_26 
REMARK   15  A    between atoms: C17_26  and  C18_27 
REMARK   16  A    between atoms: C17_26  and  C19_28 
REMARK   17  A    between atoms: C20_29  and  C21_30 
REMARK   18  A    between atoms: C20_29  and  C24_33 
REMARK   19  A    between atoms: C20_29  and  N6_40 
REMARK   20  A    between atoms: C21_30  and  C22_31 
REMARK   21  A    between atoms: C22_31  and  C23_32 
REMARK   22  A    between atoms: C23_32  and  O8_43 
REMARK   23  A    between atoms: C24_33  and  C25_34 
REMARK   24  A    between atoms: C28_38  and  O6_39 
REMARK   25  A    between atoms: C29_42  and  O8_43 
REMARK   26  A    between atoms: C29_42  and  C35_49 
ROOT
ATOM      1  C14 non d ame      -5.570  14.325  68.867  0.00  0.00     0.089 C 
ATOM      2  H20 non d ame      -4.492  14.493  68.852  0.00  0.00     0.087 H 
ENDROOT
BRANCH   1   3
ATOM      3  N4  non d ame      -6.212  15.568  68.465  0.00  0.00    -0.346 N 
ATOM      4  C10 non d ame      -5.385  16.725  67.963  0.00  0.00     0.241 C 
ATOM      5  O4  non d ame      -4.204  16.633  67.894  0.00  0.00    -0.271 OA
ATOM      6  H19 non d ame      -7.218  15.627  68.533  0.00  0.00     0.163 HD
BRANCH   4   7
ATOM      7  C9  non d ame      -6.067  18.002  67.546  0.00  0.00     0.092 C 
ATOM      8  H11 non d ame      -5.849  18.200  66.497  0.00  0.00     0.088 H 
BRANCH   7   9
ATOM      9  N3  non d ame      -7.520  17.841  67.663  0.00  0.00    -0.346 N 
ATOM     10  C7  non d ame      -8.356  17.982  66.497  0.00  0.00     0.240 C 
ATOM     11  O3  non d ame      -7.878  18.224  65.456  0.00  0.00    -0.271 OA
ATOM     12  H10 non d ame      -7.947  17.632  68.554  0.00  0.00     0.163 HD
BRANCH  10  13
ATOM     13  C6  non d ame      -9.902  17.812  66.628  0.00  0.00     0.086 C 
ATOM     14  H6  non d ame     -10.455  18.396  65.892  0.00  0.00     0.086 H 
BRANCH  13  15
ATOM     15  N2  non d ame     -10.245  16.419  66.396  0.00  0.00    -0.343 N 
ATOM     16  C5  non d ame     -10.945  16.043  65.166  0.00  0.00     0.273 C 
ATOM     17  O2  non d ame     -11.231  16.869  64.372  0.00  0.00    -0.266 OA
ATOM     18  H5  non d ame      -9.999  15.719  67.083  0.00  0.00     0.163 HD
BRANCH  16  19
ATOM     19  C4  non d ame     -11.312  14.573  64.908  0.00  0.00     0.154 A 
ATOM     20  C1  non d ame     -10.481  13.562  64.329  0.00  0.00    -0.017 A 
ATOM     21  C2  non d ame     -11.281  12.399  64.314  0.00  0.00     0.077 A 
ATOM     22  H1  non d ame      -9.454  13.659  63.976  0.00  0.00     0.091 H 
ATOM     23  O1  non d ame     -12.433  12.714  64.828  0.00  0.00    -0.218 OA
ATOM     24  N1  non d ame     -12.476  13.978  65.182  0.00  0.00    -0.123 NA
BRANCH  21  25
ATOM     25  C3  non d ame     -10.867  11.028  63.794  0.00  0.00    -0.029 C 
ATOM     26  H2  non d ame     -11.665  10.310  63.987  0.00  0.00     0.036 H 
ATOM     27  H3  non d ame     -10.683  11.086  62.722  0.00  0.00     0.036 H 
ATOM     28  H4  non d ame      -9.957  10.705  64.302  0.00  0.00     0.036 H 
ENDBRANCH  21  25
ENDBRANCH  16  19
ENDBRANCH  13  15
BRANCH  13  29
ATOM     29  C8  non d ame     -10.341  18.229  68.009  0.00  0.00    -0.049 C 
ATOM     30  H7  non d ame     -10.717  19.252  67.977  0.00  0.00     0.030 H 
ATOM     31  H8  non d ame     -11.129  17.563  68.357  0.00  0.00     0.030 H 
ATOM     32  H9  non d ame      -9.492  18.176  68.691  0.00  0.00     0.030 H 
ENDBRANCH  13  29
ENDBRANCH  10  13
ENDBRANCH   7   9
BRANCH   7  33
ATOM     33  C11 non d ame      -5.600  19.164  68.471  0.00  0.00    -0.033 C 
ATOM     34  H12 non d ame      -4.516  19.229  68.395  0.00  0.00     0.042 H 
BRANCH  33  35
ATOM     35  C12 non d ame      -6.186  20.533  68.003  0.00  0.00    -0.071 C 
ATOM     36  H13 non d ame      -7.197  20.385  67.622  0.00  0.00     0.028 H 
ATOM     37  H14 non d ame      -6.213  21.223  68.845  0.00  0.00     0.028 H 
ATOM     38  H15 non d ame      -5.558  20.945  67.214  0.00  0.00     0.028 H 
ENDBRANCH  33  35
BRANCH  33  39
ATOM     39  C13 non d ame      -5.965  18.873  69.962  0.00  0.00    -0.071 C 
ATOM     40  H16 non d ame      -6.904  19.366  70.209  0.00  0.00     0.028 H 
ATOM     41  H17 non d ame      -6.070  17.797  70.107  0.00  0.00     0.028 H 
ATOM     42  H18 non d ame      -5.174  19.251  70.610  0.00  0.00     0.028 H 
ENDBRANCH  33  39
ENDBRANCH   7  33
ENDBRANCH   4   7
ENDBRANCH   1   3
BRANCH   1  43
ATOM     43  C15 non d ame      -6.003  13.204  67.880  0.00  0.00     0.240 C 
ATOM     44  O5  non d ame      -5.309  12.928  66.956  0.00  0.00    -0.271 OA
ATOM     45  N6  non d ame      -7.281  12.465  68.094  0.00  0.00    -0.355 N 
ATOM     46  H46 non d ame      -7.876  12.687  68.878  0.00  0.00     0.162 HD
BRANCH  45  47
ATOM     47  C20 non d ame      -7.678  11.401  67.147  0.00  0.00     0.013 C 
ATOM     48  H30 non d ame      -7.277  11.656  66.167  0.00  0.00     0.072 H 
BRANCH  47  49
ATOM     49  C21 non d ame      -9.187  11.325  67.084  0.00  0.00    -0.038 C 
ATOM     50  H31 non d ame      -9.443  11.434  66.031  0.00  0.00     0.036 H 
ATOM     51  H32 non d ame      -9.459  10.416  67.620  0.00  0.00     0.036 H 
BRANCH  49  52
ATOM     52  C22 non d ame      -9.876  12.492  67.824  0.00  0.00     0.018 C 
ATOM     53  H33 non d ame      -9.283  12.665  68.722  0.00  0.00     0.048 H 
ATOM     54  H34 non d ame      -9.989  13.285  67.085  0.00  0.00     0.048 H 
BRANCH  52  55
ATOM     55  C23 non d ame     -11.312  12.159  68.318  0.00  0.00     0.259 C 
ATOM     56  O7  non d ame     -11.983  11.371  67.734  0.00  0.00    -0.265 OA
BRANCH  55  57
ATOM     57  O8  non d ame     -11.822  12.818  69.471  0.00  0.00    -0.317 OA
BRANCH  57  58
ATOM     58  C29 non d ame     -11.985  14.230  69.310  0.00  0.00     0.052 C 
ATOM     59  H47 non d ame     -10.996  14.614  69.061  0.00  0.00     0.082 H 
ATOM     60  H48 non d ame     -12.809  14.353  68.608  0.00  0.00     0.082 H 
BRANCH  58  61
ATOM     61  C35 non d ame     -12.412  14.822  70.679  0.00  0.00    -0.034 A 
ATOM     62  C30 non d ame     -11.597  15.747  71.324  0.00  0.00    -0.075 A 
ATOM     63  C31 non d ame     -11.982  16.279  72.554  0.00  0.00    -0.082 A 
ATOM     64  H49 non d ame     -10.658  16.056  70.865  0.00  0.00     0.084 H 
ATOM     65  C32 non d ame     -13.186  15.879  73.141  0.00  0.00    -0.083 A 
ATOM     66  H50 non d ame     -11.343  17.006  73.055  0.00  0.00     0.083 H 
ATOM     67  C33 non d ame     -13.994  14.953  72.496  0.00  0.00    -0.082 A 
ATOM     68  H51 non d ame     -13.494  16.290  74.102  0.00  0.00     0.083 H 
ATOM     69  C34 non d ame     -13.614  14.421  71.265  0.00  0.00    -0.075 A 
ATOM     70  H52 non d ame     -14.932  14.642  72.958  0.00  0.00     0.083 H 
ATOM     71  H53 non d ame     -14.256  13.695  70.764  0.00  0.00     0.084 H 
ENDBRANCH  58  61
ENDBRANCH  57  58
ENDBRANCH  55  57
ENDBRANCH  52  55
ENDBRANCH  49  52
ENDBRANCH  47  49
BRANCH  47  72
ATOM     72  C24 non d ame      -7.119  10.059  67.616  0.00  0.00    -0.039 C 
ATOM     73  H35 non d ame      -6.310  10.306  68.304  0.00  0.00     0.036 H 
ATOM     74  H36 non d ame      -7.981   9.493  67.971  0.00  0.00     0.036 H 
BRANCH  72  75
ATOM     75  C25 non d ame      -6.475   9.229  66.407  0.00  0.00    -0.001 C 
ATOM     76  C26 non d ame      -6.491  10.136  65.035  0.00  0.00    -0.035 C 
ATOM     77  C27 non d ame      -7.051   9.408  64.039  0.00  0.00     0.085 C 
ATOM     78  H38 non d ame      -7.173  10.977  65.151  0.00  0.00     0.036 H 
ATOM     79  H39 non d ame      -5.473  10.303  64.686  0.00  0.00     0.036 H 
ATOM     80  N5  non d ame      -7.715   8.215  64.683  0.00  0.00    -0.049 N 
ATOM     81  H40 non d ame      -7.819  10.051  63.606  0.00  0.00     0.075 H 
ATOM     82  H41 non d ame      -6.219   9.064  63.426  0.00  0.00     0.075 H 
ATOM     83  C28 non d ame      -7.130   8.138  66.186  0.00  0.00     0.193 C 
ATOM     84  H42 non d ame      -8.701   8.427  64.732  0.00  0.00     0.280 HD
ATOM     85  H43 non d ame      -7.398   7.402  64.174  0.00  0.00     0.280 HD
ATOM     86  H44 non d ame      -6.376   7.397  66.450  0.00  0.00     0.129 H 
ATOM     87  H37 non d ame      -5.528   8.765  66.684  0.00  0.00     0.046 H 
BRANCH  83  88
ATOM     88  O6  non d ame      -8.194   7.950  67.121  0.00  0.00    -0.369 OA
ATOM     89  H45 non d ame      -7.968   7.238  67.723  0.00  0.00     0.212 HD
ENDBRANCH  83  88
ENDBRANCH  72  75
ENDBRANCH  47  72
ENDBRANCH  45  47
ENDBRANCH   1  43
BRANCH   1  90
ATOM     90  C16 non d ame      -6.017  13.969  70.275  0.00  0.00    -0.035 C 
ATOM     91  H21 non d ame      -6.536  14.854  70.646  0.00  0.00     0.037 H 
ATOM     92  H22 non d ame      -6.552  13.024  70.178  0.00  0.00     0.037 H 
BRANCH  90  93
ATOM     93  C17 non d ame      -4.834  13.707  71.261  0.00  0.00    -0.059 C 
ATOM     94  H23 non d ame      -5.217  13.824  72.274  0.00  0.00     0.038 H 
BRANCH  93  95
ATOM     95  C18 non d ame      -4.267  12.257  71.130  0.00  0.00    -0.073 C 
ATOM     96  H24 non d ame      -4.394  11.909  70.105  0.00  0.00     0.028 H 
ATOM     97  H25 non d ame      -3.208  12.257  71.385  0.00  0.00     0.028 H 
ATOM     98  H26 non d ame      -4.805  11.594  71.809  0.00  0.00     0.028 H 
ENDBRANCH  93  95
BRANCH  93  99
ATOM     99  C19 non d ame      -3.724  14.745  71.072  0.00  0.00    -0.073 C 
ATOM    100  H27 non d ame      -3.178  14.866  72.009  0.00  0.00     0.028 H 
ATOM    101  H28 non d ame      -3.040  14.406  70.293  0.00  0.00     0.028 H 
ATOM    102  H29 non d ame      -4.163  15.698  70.780  0.00  0.00     0.028 H 
ENDBRANCH  93  99
ENDBRANCH  90  93
ENDBRANCH   1  90
TORSDOF 26
ENDMDL
MODEL 13
REMARK VINA RESULT:      -6.4      2.849      6.257
REMARK  26 active torsions:
REMARK  status: ('A' for Active; 'I' for Inactive)
REMARK    1  A    between atoms: C2_2  and  C3_3 
REMARK    2  A    between atoms: C4_6  and  C5_7 
REMARK       I    between atoms: C5_7  and  N2_9 
REMARK    3  A    between atoms: N2_9  and  C6_10 
REMARK    4  A    between atoms: C6_10  and  C7_11 
REMARK    5  A    between atoms: C6_10  and  C8_13 
REMARK       I    between atoms: C7_11  and  N3_14 
REMARK    6  A    between atoms: N3_14  and  C9_15 
REMARK    7  A    between atoms: C9_15  and  C10_16 
REMARK    8  A    between atoms: C9_15  and  C11_18 
REMARK       I    between atoms: C10_16  and  N4_21 
REMARK    9  A    between atoms: C11_18  and  C12_19 
REMARK   10  A    between atoms: C11_18  and  C13_20 
REMARK   11  A    between atoms: N4_21  and  C14_22 
REMARK   12  A    between atoms: C14_22  and  C15_23 
REMARK   13  A    between atoms: C14_22  and  C16_25 
REMARK       I    between atoms: C15_23  and  N6_40 
REMARK   14  A    between atoms: C16_25  and  C17_26 
REMARK   15  A    between atoms: C17_26  and  C18_27 
REMARK   16  A    between atoms: C17_26  and  C19_28 
REMARK   17  A    between atoms: C20_29  and  C21_30 
REMARK   18  A    between atoms: C20_29  and  C24_33 
REMARK   19  A    between atoms: C20_29  and  N6_40 
REMARK   20  A    between atoms: C21_30  and  C22_31 
REMARK   21  A    between atoms: C22_31  and  C23_32 
REMARK   22  A    between atoms: C23_32  and  O8_43 
REMARK   23  A    between atoms: C24_33  and  C25_34 
REMARK   24  A    between atoms: C28_38  and  O6_39 
REMARK   25  A    between atoms: C29_42  and  O8_43 
REMARK   26  A    between atoms: C29_42  and  C35_49 
ROOT
ATOM      1  C14 non d ame     -10.551   9.439  68.790  0.00  0.00     0.089 C 
ATOM      2  H20 non d ame     -11.406   8.761  68.800  0.00  0.00     0.087 H 
ENDROOT
BRANCH   1   3
ATOM      3  N4  non d ame      -9.569   8.892  67.866  0.00  0.00    -0.346 N 
ATOM      4  C10 non d ame      -9.936   7.750  66.952  0.00  0.00     0.241 C 
ATOM      5  O4  non d ame     -11.028   7.286  66.980  0.00  0.00    -0.271 OA
ATOM      6  H19 non d ame      -8.644   9.299  67.859  0.00  0.00     0.163 HD
BRANCH   4   7
ATOM      7  C9  non d ame      -8.908   7.200  65.998  0.00  0.00     0.092 C 
ATOM      8  H11 non d ame      -9.408   6.593  65.243  0.00  0.00     0.088 H 
BRANCH   7   9
ATOM      9  N3  non d ame      -8.250   8.307  65.297  0.00  0.00    -0.346 N 
ATOM     10  C7  non d ame      -7.948   8.191  63.892  0.00  0.00     0.240 C 
ATOM     11  O3  non d ame      -8.227   7.215  63.309  0.00  0.00    -0.271 OA
ATOM     12  H10 non d ame      -8.003   9.155  65.786  0.00  0.00     0.163 HD
BRANCH  10  13
ATOM     13  C6  non d ame      -7.244   9.371  63.152  0.00  0.00     0.086 C 
ATOM     14  H6  non d ame      -7.889   9.853  62.416  0.00  0.00     0.086 H 
BRANCH  13  15
ATOM     15  N2  non d ame      -6.889  10.392  64.124  0.00  0.00    -0.343 N 
ATOM     16  C5  non d ame      -5.728  10.188  64.993  0.00  0.00     0.273 C 
ATOM     17  O2  non d ame      -5.089   9.198  64.904  0.00  0.00    -0.266 OA
ATOM     18  H5  non d ame      -7.442  11.234  64.195  0.00  0.00     0.163 HD
BRANCH  16  19
ATOM     19  C4  non d ame      -5.340  11.259  66.024  0.00  0.00     0.154 A 
ATOM     20  C1  non d ame      -6.162  11.792  67.068  0.00  0.00    -0.017 A 
ATOM     21  C2  non d ame      -5.343  12.735  67.728  0.00  0.00     0.077 A 
ATOM     22  H1  non d ame      -7.193  11.533  67.310  0.00  0.00     0.091 H 
ATOM     23  O1  non d ame      -4.189  12.734  67.128  0.00  0.00    -0.218 OA
ATOM     24  N1  non d ame      -4.163  11.881  66.131  0.00  0.00    -0.123 NA
BRANCH  21  25
ATOM     25  C3  non d ame      -5.740  13.592  68.923  0.00  0.00    -0.029 C 
ATOM     26  H2  non d ame      -5.192  14.534  68.893  0.00  0.00     0.036 H 
ATOM     27  H3  non d ame      -6.810  13.793  68.887  0.00  0.00     0.036 H 
ATOM     28  H4  non d ame      -5.501  13.062  69.846  0.00  0.00     0.036 H 
ENDBRANCH  21  25
ENDBRANCH  16  19
ENDBRANCH  13  15
BRANCH  13  29
ATOM     29  C8  non d ame      -6.006   8.866  62.457  0.00  0.00    -0.049 C 
ATOM     30  H7  non d ame      -5.128   9.360  62.875  0.00  0.00     0.030 H 
ATOM     31  H8  non d ame      -5.921   7.790  62.601  0.00  0.00     0.030 H 
ATOM     32  H9  non d ame      -6.072   9.086  61.392  0.00  0.00     0.030 H 
ENDBRANCH  13  29
ENDBRANCH  10  13
ENDBRANCH   7   9
BRANCH   7  33
ATOM     33  C11 non d ame      -7.845   6.387  66.794  0.00  0.00    -0.033 C 
ATOM     34  H12 non d ame      -8.307   6.065  67.726  0.00  0.00     0.042 H 
BRANCH  33  35
ATOM     35  C12 non d ame      -7.411   5.105  66.017  0.00  0.00    -0.071 C 
ATOM     36  H13 non d ame      -6.653   4.572  66.590  0.00  0.00     0.028 H 
ATOM     37  H14 non d ame      -8.276   4.460  65.869  0.00  0.00     0.028 H 
ATOM     38  H15 non d ame      -7.000   5.391  65.049  0.00  0.00     0.028 H 
ENDBRANCH  33  35
BRANCH  33  39
ATOM     39  C13 non d ame      -6.611   7.278  67.149  0.00  0.00    -0.071 C 
ATOM     40  H16 non d ame      -6.850   7.903  68.008  0.00  0.00     0.028 H 
ATOM     41  H17 non d ame      -5.760   6.640  67.389  0.00  0.00     0.028 H 
ATOM     42  H18 non d ame      -6.362   7.910  66.297  0.00  0.00     0.028 H 
ENDBRANCH  33  39
ENDBRANCH   7  33
ENDBRANCH   4   7
ENDBRANCH   1   3
BRANCH   1  43
ATOM     43  C15 non d ame     -10.940  10.867  68.311  0.00  0.00     0.240 C 
ATOM     44  O5  non d ame     -11.820  11.008  67.526  0.00  0.00    -0.271 OA
ATOM     45  N6  non d ame     -10.218  12.060  68.838  0.00  0.00    -0.355 N 
ATOM     46  H46 non d ame      -9.471  11.953  69.509  0.00  0.00     0.162 HD
BRANCH  45  47
ATOM     47  C20 non d ame     -10.600  13.411  68.374  0.00  0.00     0.013 C 
ATOM     48  H30 non d ame     -10.606  13.402  67.284  0.00  0.00     0.072 H 
BRANCH  47  49
ATOM     49  C21 non d ame      -9.589  14.417  68.875  0.00  0.00    -0.038 C 
ATOM     50  H31 non d ame     -10.157  15.137  69.464  0.00  0.00     0.036 H 
ATOM     51  H32 non d ame      -8.798  13.831  69.345  0.00  0.00     0.036 H 
BRANCH  49  52
ATOM     52  C22 non d ame      -8.921  15.216  67.734  0.00  0.00     0.018 C 
ATOM     53  H33 non d ame      -8.308  15.974  68.223  0.00  0.00     0.048 H 
ATOM     54  H34 non d ame      -8.455  14.473  67.087  0.00  0.00     0.048 H 
BRANCH  52  55
ATOM     55  C23 non d ame      -9.928  15.992  66.840  0.00  0.00     0.259 C 
ATOM     56  O7  non d ame     -10.618  16.840  67.306  0.00  0.00    -0.265 OA
BRANCH  55  57
ATOM     57  O8  non d ame     -10.027  15.667  65.459  0.00  0.00    -0.317 OA
BRANCH  57  58
ATOM     58  C29 non d ame     -11.314  15.181  65.066  0.00  0.00     0.052 C 
ATOM     59  H47 non d ame     -11.927  15.209  65.966  0.00  0.00     0.082 H 
ATOM     60  H48 non d ame     -11.598  15.771  64.195  0.00  0.00     0.082 H 
BRANCH  58  61
ATOM     61  C35 non d ame     -11.154  13.702  64.626  0.00  0.00    -0.034 A 
ATOM     62  C30 non d ame     -12.064  13.135  63.740  0.00  0.00    -0.075 A 
ATOM     63  C31 non d ame     -11.919  11.806  63.345  0.00  0.00    -0.082 A 
ATOM     64  H49 non d ame     -12.891  13.732  63.355  0.00  0.00     0.084 H 
ATOM     65  C32 non d ame     -10.861  11.042  63.842  0.00  0.00    -0.083 A 
ATOM     66  H50 non d ame     -12.633  11.366  62.648  0.00  0.00     0.083 H 
ATOM     67  C33 non d ame      -9.956  11.610  64.729  0.00  0.00    -0.082 A 
ATOM     68  H51 non d ame     -10.740  10.002  63.537  0.00  0.00     0.083 H 
ATOM     69  C34 non d ame     -10.096  12.939  65.124  0.00  0.00    -0.075 A 
ATOM     70  H52 non d ame      -9.132  11.010  65.116  0.00  0.00     0.083 H 
ATOM     71  H53 non d ame      -9.380  13.379  65.820  0.00  0.00     0.084 H 
ENDBRANCH  58  61
ENDBRANCH  57  58
ENDBRANCH  55  57
ENDBRANCH  52  55
ENDBRANCH  49  52
ENDBRANCH  47  49
BRANCH  47  72
ATOM     72  C24 non d ame     -11.985  13.769  68.909  0.00  0.00    -0.039 C 
ATOM     73  H35 non d ame     -12.335  14.588  68.281  0.00  0.00     0.036 H 
ATOM     74  H36 non d ame     -12.537  12.829  68.936  0.00  0.00     0.036 H 
BRANCH  72  75
ATOM     75  C25 non d ame     -11.916  14.321  70.411  0.00  0.00    -0.001 C 
ATOM     76  C26 non d ame     -12.816  13.364  71.400  0.00  0.00    -0.035 C 
ATOM     77  C27 non d ame     -13.660  14.147  72.114  0.00  0.00     0.085 C 
ATOM     78  H38 non d ame     -13.485  12.740  70.810  0.00  0.00     0.036 H 
ATOM     79  H39 non d ame     -12.181  12.913  72.163  0.00  0.00     0.036 H 
ATOM     80  N5  non d ame     -13.649  15.512  71.468  0.00  0.00    -0.049 N 
ATOM     81  H40 non d ame     -14.648  13.702  71.987  0.00  0.00     0.075 H 
ATOM     82  H41 non d ame     -13.219  14.221  73.107  0.00  0.00     0.075 H 
ATOM     83  C28 non d ame     -12.367  15.529  70.488  0.00  0.00     0.193 C 
ATOM     84  H42 non d ame     -14.485  15.569  70.906  0.00  0.00     0.280 HD
ATOM     85  H43 non d ame     -13.493  16.179  72.211  0.00  0.00     0.280 HD
ATOM     86  H44 non d ame     -11.459  16.062  70.770  0.00  0.00     0.129 H 
ATOM     87  H37 non d ame     -10.894  14.537  70.725  0.00  0.00     0.046 H 
BRANCH  83  88
ATOM     88  O6  non d ame     -12.731  16.049  69.208  0.00  0.00    -0.369 OA
ATOM     89  H45 non d ame     -13.623  16.404  69.249  0.00  0.00     0.212 HD
ENDBRANCH  83  88
ENDBRANCH  72  75
ENDBRANCH  47  72
ENDBRANCH  45  47
ENDBRANCH   1  43
BRANCH   1  90
ATOM     90  C16 non d ame      -9.938   9.515  70.179  0.00  0.00    -0.035 C 
ATOM     91  H21 non d ame      -9.012   8.941  70.117  0.00  0.00     0.037 H 
ATOM     92  H22 non d ame      -9.906  10.576  70.423  0.00  0.00     0.037 H 
BRANCH  90  93
ATOM     93  C17 non d ame     -10.805   8.834  71.285  0.00  0.00    -0.059 C 
ATOM     94  H23 non d ame     -10.241   8.872  72.217  0.00  0.00     0.038 H 
BRANCH  93  95
ATOM     95  C18 non d ame     -12.158   9.580  71.517  0.00  0.00    -0.073 C 
ATOM     96  H24 non d ame     -12.099  10.580  71.086  0.00  0.00     0.028 H 
ATOM     97  H25 non d ame     -12.965   9.025  71.038  0.00  0.00     0.028 H 
ATOM     98  H26 non d ame     -12.353   9.655  72.587  0.00  0.00     0.028 H 
ENDBRANCH  93  95
BRANCH  93  99
ATOM     99  C19 non d ame     -11.046   7.357  70.961  0.00  0.00    -0.073 C 
ATOM    100  H27 non d ame     -11.446   6.853  71.841  0.00  0.00     0.028 H 
ATOM    101  H28 non d ame     -11.759   7.278  70.140  0.00  0.00     0.028 H 
ATOM    102  H29 non d ame     -10.105   6.891  70.669  0.00  0.00     0.028 H 
ENDBRANCH  93  99
ENDBRANCH  90  93
ENDBRANCH   1  90
TORSDOF 26
ENDMDL
MODEL 14
REMARK VINA RESULT:      -6.4      2.278      5.818
REMARK  26 active torsions:
REMARK  status: ('A' for Active; 'I' for Inactive)
REMARK    1  A    between atoms: C2_2  and  C3_3 
REMARK    2  A    between atoms: C4_6  and  C5_7 
REMARK       I    between atoms: C5_7  and  N2_9 
REMARK    3  A    between atoms: N2_9  and  C6_10 
REMARK    4  A    between atoms: C6_10  and  C7_11 
REMARK    5  A    between atoms: C6_10  and  C8_13 
REMARK       I    between atoms: C7_11  and  N3_14 
REMARK    6  A    between atoms: N3_14  and  C9_15 
REMARK    7  A    between atoms: C9_15  and  C10_16 
REMARK    8  A    between atoms: C9_15  and  C11_18 
REMARK       I    between atoms: C10_16  and  N4_21 
REMARK    9  A    between atoms: C11_18  and  C12_19 
REMARK   10  A    between atoms: C11_18  and  C13_20 
REMARK   11  A    between atoms: N4_21  and  C14_22 
REMARK   12  A    between atoms: C14_22  and  C15_23 
REMARK   13  A    between atoms: C14_22  and  C16_25 
REMARK       I    between atoms: C15_23  and  N6_40 
REMARK   14  A    between atoms: C16_25  and  C17_26 
REMARK   15  A    between atoms: C17_26  and  C18_27 
REMARK   16  A    between atoms: C17_26  and  C19_28 
REMARK   17  A    between atoms: C20_29  and  C21_30 
REMARK   18  A    between atoms: C20_29  and  C24_33 
REMARK   19  A    between atoms: C20_29  and  N6_40 
REMARK   20  A    between atoms: C21_30  and  C22_31 
REMARK   21  A    between atoms: C22_31  and  C23_32 
REMARK   22  A    between atoms: C23_32  and  O8_43 
REMARK   23  A    between atoms: C24_33  and  C25_34 
REMARK   24  A    between atoms: C28_38  and  O6_39 
REMARK   25  A    between atoms: C29_42  and  O8_43 
REMARK   26  A    between atoms: C29_42  and  C35_49 
ROOT
ATOM      1  C14 non d ame     -10.370   9.814  69.034  0.00  0.00     0.089 C 
ATOM      2  H20 non d ame     -10.626   9.020  68.330  0.00  0.00     0.087 H 
ENDROOT
BRANCH   1   3
ATOM      3  N4  non d ame      -9.009  10.237  68.738  0.00  0.00    -0.346 N 
ATOM      4  C10 non d ame      -8.370   9.884  67.418  0.00  0.00     0.241 C 
ATOM      5  O4  non d ame      -8.971   9.255  66.610  0.00  0.00    -0.271 OA
ATOM      6  H19 non d ame      -8.513  10.770  69.440  0.00  0.00     0.163 HD
BRANCH   4   7
ATOM      7  C9  non d ame      -6.963  10.335  67.127  0.00  0.00     0.092 C 
ATOM      8  H11 non d ame      -6.931  10.795  66.139  0.00  0.00     0.088 H 
BRANCH   7   9
ATOM      9  N3  non d ame      -6.569  11.363  68.096  0.00  0.00    -0.346 N 
ATOM     10  C7  non d ame      -5.699  12.439  67.691  0.00  0.00     0.240 C 
ATOM     11  O3  non d ame      -5.305  12.494  66.590  0.00  0.00    -0.271 OA
ATOM     12  H10 non d ame      -6.900  11.328  69.050  0.00  0.00     0.163 HD
BRANCH  10  13
ATOM     13  C6  non d ame      -5.280  13.528  68.728  0.00  0.00     0.086 C 
ATOM     14  H6  non d ame      -4.199  13.639  68.810  0.00  0.00     0.086 H 
BRANCH  13  15
ATOM     15  N2  non d ame      -5.799  14.815  68.294  0.00  0.00    -0.343 N 
ATOM     16  C5  non d ame      -4.933  15.727  67.543  0.00  0.00     0.273 C 
ATOM     17  O2  non d ame      -3.820  15.416  67.296  0.00  0.00    -0.266 OA
ATOM     18  H5  non d ame      -6.751  15.073  68.512  0.00  0.00     0.163 HD
BRANCH  16  19
ATOM     19  C4  non d ame      -5.469  17.089  67.079  0.00  0.00     0.154 A 
ATOM     20  C1  non d ame      -5.652  18.264  67.875  0.00  0.00    -0.017 A 
ATOM     21  C2  non d ame      -6.163  19.232  66.982  0.00  0.00     0.077 A 
ATOM     22  H1  non d ame      -5.446  18.394  68.938  0.00  0.00     0.091 H 
ATOM     23  O1  non d ame      -6.256  18.671  65.813  0.00  0.00    -0.218 OA
ATOM     24  N1  non d ame      -5.856  17.420  65.844  0.00  0.00    -0.123 NA
BRANCH  21  25
ATOM     25  C3  non d ame      -6.533  20.669  67.327  0.00  0.00    -0.029 C 
ATOM     26  H2  non d ame      -7.617  20.758  67.397  0.00  0.00     0.036 H 
ATOM     27  H3  non d ame      -6.084  20.942  68.281  0.00  0.00     0.036 H 
ATOM     28  H4  non d ame      -6.164  21.337  66.547  0.00  0.00     0.036 H 
ENDBRANCH  21  25
ENDBRANCH  16  19
ENDBRANCH  13  15
BRANCH  13  29
ATOM     29  C8  non d ame      -5.838  13.176  70.083  0.00  0.00    -0.049 C 
ATOM     30  H7  non d ame      -5.464  12.199  70.388  0.00  0.00     0.030 H 
ATOM     31  H8  non d ame      -5.530  13.927  70.810  0.00  0.00     0.030 H 
ATOM     32  H9  non d ame      -6.927  13.147  70.031  0.00  0.00     0.030 H 
ENDBRANCH  13  29
ENDBRANCH  10  13
ENDBRANCH   7   9
BRANCH   7  33
ATOM     33  C11 non d ame      -5.996   9.121  67.239  0.00  0.00    -0.033 C 
ATOM     34  H12 non d ame      -6.553   8.229  66.958  0.00  0.00     0.042 H 
BRANCH  33  35
ATOM     35  C12 non d ame      -4.796   9.257  66.251  0.00  0.00    -0.071 C 
ATOM     36  H13 non d ame      -4.818  10.242  65.785  0.00  0.00     0.028 H 
ATOM     37  H14 non d ame      -3.861   9.133  66.795  0.00  0.00     0.028 H 
ATOM     38  H15 non d ame      -4.873   8.490  65.481  0.00  0.00     0.028 H 
ENDBRANCH  33  35
BRANCH  33  39
ATOM     39  C13 non d ame      -5.499   8.936  68.709  0.00  0.00    -0.071 C 
ATOM     40  H16 non d ame      -5.288   9.911  69.147  0.00  0.00     0.028 H 
ATOM     41  H17 non d ame      -6.272   8.435  69.294  0.00  0.00     0.028 H 
ATOM     42  H18 non d ame      -4.592   8.332  68.714  0.00  0.00     0.028 H 
ENDBRANCH  33  39
ENDBRANCH   7  33
ENDBRANCH   4   7
ENDBRANCH   1   3
BRANCH   1  43
ATOM     43  C15 non d ame     -11.311  11.044  68.900  0.00  0.00     0.240 C 
ATOM     44  O5  non d ame     -12.093  11.097  68.007  0.00  0.00    -0.271 OA
ATOM     45  N6  non d ame     -11.243  12.156  69.892  0.00  0.00    -0.355 N 
ATOM     46  H46 non d ame     -10.585  12.120  70.657  0.00  0.00     0.162 HD
BRANCH  45  47
ATOM     47  C20 non d ame     -12.145  13.319  69.752  0.00  0.00     0.013 C 
ATOM     48  H30 non d ame     -12.880  13.083  68.983  0.00  0.00     0.072 H 
BRANCH  47  49
ATOM     49  C21 non d ame     -11.339  14.530  69.340  0.00  0.00    -0.038 C 
ATOM     50  H31 non d ame     -12.027  15.373  69.393  0.00  0.00     0.036 H 
ATOM     51  H32 non d ame     -10.446  14.516  69.965  0.00  0.00     0.036 H 
BRANCH  49  52
ATOM     52  C22 non d ame     -10.851  14.456  67.877  0.00  0.00     0.018 C 
ATOM     53  H33 non d ame     -11.282  13.542  67.467  0.00  0.00     0.048 H 
ATOM     54  H34 non d ame     -11.096  15.420  67.434  0.00  0.00     0.048 H 
BRANCH  52  55
ATOM     55  C23 non d ame      -9.310  14.300  67.738  0.00  0.00     0.259 C 
ATOM     56  O7  non d ame      -8.779  13.277  68.027  0.00  0.00    -0.265 OA
BRANCH  55  57
ATOM     57  O8  non d ame      -8.538  15.401  67.274  0.00  0.00    -0.317 OA
BRANCH  57  58
ATOM     58  C29 non d ame      -9.195  16.195  66.281  0.00  0.00     0.052 C 
ATOM     59  H47 non d ame      -8.461  16.344  65.491  0.00  0.00     0.082 H 
ATOM     60  H48 non d ame     -10.131  15.681  66.065  0.00  0.00     0.082 H 
BRANCH  58  61
ATOM     61  C35 non d ame      -9.526  17.573  66.912  0.00  0.00    -0.034 A 
ATOM     62  C30 non d ame     -10.106  18.574  66.139  0.00  0.00    -0.075 A 
ATOM     63  C31 non d ame     -10.403  19.812  66.707  0.00  0.00    -0.082 A 
ATOM     64  H49 non d ame     -10.328  18.387  65.088  0.00  0.00     0.084 H 
ATOM     65  C32 non d ame     -10.115  20.049  68.053  0.00  0.00    -0.083 A 
ATOM     66  H50 non d ame     -10.861  20.592  66.098  0.00  0.00     0.083 H 
ATOM     67  C33 non d ame      -9.532  19.049  68.821  0.00  0.00    -0.082 A 
ATOM     68  H51 non d ame     -10.345  21.014  68.505  0.00  0.00     0.083 H 
ATOM     69  C34 non d ame      -9.236  17.810  68.257  0.00  0.00    -0.075 A 
ATOM     70  H52 non d ame      -9.307  19.239  69.871  0.00  0.00     0.083 H 
ATOM     71  H53 non d ame      -8.780  17.029  68.868  0.00  0.00     0.084 H 
ENDBRANCH  58  61
ENDBRANCH  57  58
ENDBRANCH  55  57
ENDBRANCH  52  55
ENDBRANCH  49  52
ENDBRANCH  47  49
BRANCH  47  72
ATOM     72  C24 non d ame     -12.840  13.596  71.083  0.00  0.00    -0.039 C 
ATOM     73  H35 non d ame     -13.871  13.269  70.945  0.00  0.00     0.036 H 
ATOM     74  H36 non d ame     -12.215  13.122  71.841  0.00  0.00     0.036 H 
BRANCH  72  75
ATOM     75  C25 non d ame     -12.881  15.162  71.416  0.00  0.00    -0.001 C 
ATOM     76  C26 non d ame     -11.771  15.517  72.576  0.00  0.00    -0.035 C 
ATOM     77  C27 non d ame     -12.381  16.215  73.565  0.00  0.00     0.085 C 
ATOM     78  H38 non d ame     -11.445  14.604  73.073  0.00  0.00     0.036 H 
ATOM     79  H39 non d ame     -11.035  16.219  72.187  0.00  0.00     0.036 H 
ATOM     80  N5  non d ame     -13.870  16.084  73.343  0.00  0.00    -0.049 N 
ATOM     81  H40 non d ame     -12.114  15.703  74.490  0.00  0.00     0.075 H 
ATOM     82  H41 non d ame     -12.089  17.253  73.411  0.00  0.00     0.075 H 
ATOM     83  C28 non d ame     -14.047  15.521  71.841  0.00  0.00     0.193 C 
ATOM     84  H42 non d ame     -14.195  15.382  73.991  0.00  0.00     0.280 HD
ATOM     85  H43 non d ame     -14.247  17.020  73.381  0.00  0.00     0.280 HD
ATOM     86  H44 non d ame     -14.358  16.182  71.033  0.00  0.00     0.129 H 
ATOM     87  H37 non d ame     -12.870  15.776  70.515  0.00  0.00     0.046 H 
BRANCH  83  88
ATOM     88  O6  non d ame     -14.980  14.439  71.827  0.00  0.00    -0.369 OA
ATOM     89  H45 non d ame     -14.908  13.965  70.995  0.00  0.00     0.212 HD
ENDBRANCH  83  88
ENDBRANCH  72  75
ENDBRANCH  47  72
ENDBRANCH  45  47
ENDBRANCH   1  43
BRANCH   1  90
ATOM     90  C16 non d ame     -10.425   9.279  70.455  0.00  0.00    -0.035 C 
ATOM     91  H21 non d ame      -9.813   9.963  71.045  0.00  0.00     0.037 H 
ATOM     92  H22 non d ame     -11.485   9.166  70.680  0.00  0.00     0.037 H 
BRANCH  90  93
ATOM     93  C17 non d ame      -9.786   7.864  70.619  0.00  0.00    -0.059 C 
ATOM     94  H23 non d ame      -8.720   7.957  70.413  0.00  0.00     0.038 H 
BRANCH  93  95
ATOM     95  C18 non d ame      -9.944   7.309  72.071  0.00  0.00    -0.073 C 
ATOM     96  H24 non d ame     -10.915   6.823  72.170  0.00  0.00     0.028 H 
ATOM     97  H25 non d ame      -9.154   6.586  72.271  0.00  0.00     0.028 H 
ATOM     98  H26 non d ame      -9.874   8.131  72.783  0.00  0.00     0.028 H 
ENDBRANCH  93  95
BRANCH  93  99
ATOM     99  C19 non d ame     -10.361   6.881  69.595  0.00  0.00    -0.073 C 
ATOM    100  H27 non d ame     -11.299   6.471  69.972  0.00  0.00     0.028 H 
ATOM    101  H28 non d ame     -10.544   7.404  68.655  0.00  0.00     0.028 H 
ATOM    102  H29 non d ame      -9.651   6.072  69.427  0.00  0.00     0.028 H 
ENDBRANCH  93  99
ENDBRANCH  90  93
ENDBRANCH   1  90
TORSDOF 26
ENDMDL
MODEL 15
REMARK VINA RESULT:      -6.3      3.035      8.706
REMARK  26 active torsions:
REMARK  status: ('A' for Active; 'I' for Inactive)
REMARK    1  A    between atoms: C2_2  and  C3_3 
REMARK    2  A    between atoms: C4_6  and  C5_7 
REMARK       I    between atoms: C5_7  and  N2_9 
REMARK    3  A    between atoms: N2_9  and  C6_10 
REMARK    4  A    between atoms: C6_10  and  C7_11 
REMARK    5  A    between atoms: C6_10  and  C8_13 
REMARK       I    between atoms: C7_11  and  N3_14 
REMARK    6  A    between atoms: N3_14  and  C9_15 
REMARK    7  A    between atoms: C9_15  and  C10_16 
REMARK    8  A    between atoms: C9_15  and  C11_18 
REMARK       I    between atoms: C10_16  and  N4_21 
REMARK    9  A    between atoms: C11_18  and  C12_19 
REMARK   10  A    between atoms: C11_18  and  C13_20 
REMARK   11  A    between atoms: N4_21  and  C14_22 
REMARK   12  A    between atoms: C14_22  and  C15_23 
REMARK   13  A    between atoms: C14_22  and  C16_25 
REMARK       I    between atoms: C15_23  and  N6_40 
REMARK   14  A    between atoms: C16_25  and  C17_26 
REMARK   15  A    between atoms: C17_26  and  C18_27 
REMARK   16  A    between atoms: C17_26  and  C19_28 
REMARK   17  A    between atoms: C20_29  and  C21_30 
REMARK   18  A    between atoms: C20_29  and  C24_33 
REMARK   19  A    between atoms: C20_29  and  N6_40 
REMARK   20  A    between atoms: C21_30  and  C22_31 
REMARK   21  A    between atoms: C22_31  and  C23_32 
REMARK   22  A    between atoms: C23_32  and  O8_43 
REMARK   23  A    between atoms: C24_33  and  C25_34 
REMARK   24  A    between atoms: C28_38  and  O6_39 
REMARK   25  A    between atoms: C29_42  and  O8_43 
REMARK   26  A    between atoms: C29_42  and  C35_49 
ROOT
ATOM      1  C14 non d ame      -8.887   6.508  67.335  0.00  0.00     0.089 C 
ATOM      2  H20 non d ame      -8.892   5.739  66.562  0.00  0.00     0.087 H 
ENDROOT
BRANCH   1   3
ATOM      3  N4  non d ame      -8.776   7.797  66.670  0.00  0.00    -0.346 N 
ATOM      4  C10 non d ame      -8.426   7.871  65.204  0.00  0.00     0.241 C 
ATOM      5  O4  non d ame      -8.235   6.877  64.583  0.00  0.00    -0.271 OA
ATOM      6  H19 non d ame      -8.940   8.631  67.217  0.00  0.00     0.163 HD
BRANCH   4   7
ATOM      7  C9  non d ame      -8.320   9.213  64.530  0.00  0.00     0.092 C 
ATOM      8  H11 non d ame      -8.381   9.078  63.450  0.00  0.00     0.088 H 
BRANCH   7   9
ATOM      9  N3  non d ame      -9.457  10.050  64.926  0.00  0.00    -0.346 N 
ATOM     10  C7  non d ame     -10.098  10.900  63.954  0.00  0.00     0.240 C 
ATOM     11  O3  non d ame      -9.713  10.926  62.849  0.00  0.00    -0.271 OA
ATOM     12  H10 non d ame      -9.801  10.040  65.876  0.00  0.00     0.163 HD
BRANCH  10  13
ATOM     13  C6  non d ame     -11.306  11.791  64.383  0.00  0.00     0.086 C 
ATOM     14  H6  non d ame     -11.761  11.464  65.318  0.00  0.00     0.086 H 
BRANCH  13  15
ATOM     15  N2  non d ame     -10.836  13.149  64.602  0.00  0.00    -0.343 N 
ATOM     16  C5  non d ame     -11.297  13.892  65.777  0.00  0.00     0.273 C 
ATOM     17  O2  non d ame     -12.048  13.389  66.538  0.00  0.00    -0.266 OA
ATOM     18  H5  non d ame     -10.196  13.572  63.945  0.00  0.00     0.163 HD
BRANCH  16  19
ATOM     19  C4  non d ame     -10.806  15.327  66.022  0.00  0.00     0.154 A 
ATOM     20  C1  non d ame     -10.601  15.968  67.285  0.00  0.00    -0.017 A 
ATOM     21  C2  non d ame     -10.150  17.268  66.964  0.00  0.00     0.077 A 
ATOM     22  H1  non d ame     -10.755  15.553  68.281  0.00  0.00     0.091 H 
ATOM     23  O1  non d ame     -10.103  17.352  65.667  0.00  0.00    -0.218 OA
ATOM     24  N1  non d ame     -10.481  16.232  65.095  0.00  0.00    -0.123 NA
BRANCH  21  25
ATOM     25  C3  non d ame      -9.785  18.365  67.955  0.00  0.00    -0.029 C 
ATOM     26  H2  non d ame      -9.079  19.054  67.491  0.00  0.00     0.036 H 
ATOM     27  H3  non d ame     -10.684  18.907  68.245  0.00  0.00     0.036 H 
ATOM     28  H4  non d ame      -9.328  17.919  68.840  0.00  0.00     0.036 H 
ENDBRANCH  21  25
ENDBRANCH  16  19
ENDBRANCH  13  15
BRANCH  13  29
ATOM     29  C8  non d ame     -12.354  11.777  63.300  0.00  0.00    -0.049 C 
ATOM     30  H7  non d ame     -11.979  11.223  62.439  0.00  0.00     0.030 H 
ATOM     31  H8  non d ame     -13.259  11.298  63.674  0.00  0.00     0.030 H 
ATOM     32  H9  non d ame     -12.581  12.800  63.000  0.00  0.00     0.030 H 
ENDBRANCH  13  29
ENDBRANCH  10  13
ENDBRANCH   7   9
BRANCH   7  33
ATOM     33  C11 non d ame      -6.994   9.906  64.960  0.00  0.00    -0.033 C 
ATOM     34  H12 non d ame      -6.360   9.148  65.417  0.00  0.00     0.042 H 
BRANCH  33  35
ATOM     35  C12 non d ame      -6.227  10.479  63.727  0.00  0.00    -0.071 C 
ATOM     36  H13 non d ame      -5.328   9.888  63.552  0.00  0.00     0.028 H 
ATOM     37  H14 non d ame      -6.868  10.435  62.848  0.00  0.00     0.028 H 
ATOM     38  H15 non d ame      -5.949  11.514  63.924  0.00  0.00     0.028 H 
ENDBRANCH  33  35
BRANCH  33  39
ATOM     39  C13 non d ame      -7.264  11.017  66.025  0.00  0.00    -0.071 C 
ATOM     40  H16 non d ame      -7.888  10.614  66.821  0.00  0.00     0.028 H 
ATOM     41  H17 non d ame      -6.316  11.357  66.443  0.00  0.00     0.028 H 
ATOM     42  H18 non d ame      -7.774  11.857  65.553  0.00  0.00     0.028 H 
ENDBRANCH  33  39
ENDBRANCH   7  33
ENDBRANCH   4   7
ENDBRANCH   1   3
BRANCH   1  43
ATOM     43  C15 non d ame     -10.192   6.499  68.182  0.00  0.00     0.240 C 
ATOM     44  O5  non d ame     -11.227   6.219  67.670  0.00  0.00    -0.271 OA
ATOM     45  N6  non d ame     -10.150   6.833  69.635  0.00  0.00    -0.355 N 
ATOM     46  H46 non d ame      -9.275   7.068  70.081  0.00  0.00     0.162 HD
BRANCH  45  47
ATOM     47  C20 non d ame     -11.398   6.819  70.426  0.00  0.00     0.013 C 
ATOM     48  H30 non d ame     -12.164   6.314  69.837  0.00  0.00     0.072 H 
BRANCH  47  49
ATOM     49  C21 non d ame     -11.824   8.241  70.713  0.00  0.00    -0.038 C 
ATOM     50  H31 non d ame     -12.665   8.437  70.048  0.00  0.00     0.036 H 
ATOM     51  H32 non d ame     -11.959   8.296  71.794  0.00  0.00     0.036 H 
BRANCH  49  52
ATOM     52  C22 non d ame     -10.735   9.276  70.355  0.00  0.00     0.018 C 
ATOM     53  H33 non d ame     -10.642   9.922  71.229  0.00  0.00     0.048 H 
ATOM     54  H34 non d ame      -9.878   8.697  70.013  0.00  0.00     0.048 H 
BRANCH  52  55
ATOM     55  C23 non d ame     -11.122  10.210  69.174  0.00  0.00     0.259 C 
ATOM     56  O7  non d ame     -10.751   9.971  68.071  0.00  0.00    -0.265 OA
BRANCH  55  57
ATOM     57  O8  non d ame     -11.914  11.363  69.428  0.00  0.00    -0.317 OA
BRANCH  57  58
ATOM     58  C29 non d ame     -12.433  11.431  70.760  0.00  0.00     0.052 C 
ATOM     59  H47 non d ame     -13.376  10.887  70.736  0.00  0.00     0.082 H 
ATOM     60  H48 non d ame     -11.625  11.093  71.408  0.00  0.00     0.082 H 
BRANCH  58  61
ATOM     61  C35 non d ame     -12.730  12.919  71.083  0.00  0.00    -0.034 A 
ATOM     62  C30 non d ame     -13.479  13.253  72.206  0.00  0.00    -0.075 A 
ATOM     63  C31 non d ame     -13.746  14.591  72.496  0.00  0.00    -0.082 A 
ATOM     64  H49 non d ame     -13.856  12.467  72.861  0.00  0.00     0.084 H 
ATOM     65  C32 non d ame     -13.264  15.596  71.654  0.00  0.00    -0.083 A 
ATOM     66  H50 non d ame     -14.331  14.849  73.379  0.00  0.00     0.083 H 
ATOM     67  C33 non d ame     -12.520  15.259  70.531  0.00  0.00    -0.082 A 
ATOM     68  H51 non d ame     -13.468  16.644  71.873  0.00  0.00     0.083 H 
ATOM     69  C34 non d ame     -12.249  13.923  70.240  0.00  0.00    -0.075 A 
ATOM     70  H52 non d ame     -12.147  16.046  69.875  0.00  0.00     0.083 H 
ATOM     71  H53 non d ame     -11.663  13.666  69.357  0.00  0.00     0.084 H 
ENDBRANCH  58  61
ENDBRANCH  57  58
ENDBRANCH  55  57
ENDBRANCH  52  55
ENDBRANCH  49  52
ENDBRANCH  47  49
BRANCH  47  72
ATOM     72  C24 non d ame     -11.167   6.080  71.742  0.00  0.00    -0.039 C 
ATOM     73  H35 non d ame     -11.787   6.595  72.477  0.00  0.00     0.036 H 
ATOM     74  H36 non d ame     -11.348   5.028  71.520  0.00  0.00     0.036 H 
BRANCH  72  75
ATOM     75  C25 non d ame      -9.648   6.205  72.234  0.00  0.00    -0.001 C 
ATOM     76  C26 non d ame      -8.965   4.712  72.324  0.00  0.00    -0.035 C 
ATOM     77  C27 non d ame      -8.396   4.566  73.545  0.00  0.00     0.085 C 
ATOM     78  H38 non d ame      -9.738   3.945  72.310  0.00  0.00     0.036 H 
ATOM     79  H39 non d ame      -8.119   4.646  71.640  0.00  0.00     0.036 H 
ATOM     80  N5  non d ame      -8.911   5.692  74.410  0.00  0.00    -0.049 N 
ATOM     81  H40 non d ame      -8.775   3.619  73.932  0.00  0.00     0.075 H 
ATOM     82  H41 non d ame      -7.327   4.701  73.386  0.00  0.00     0.075 H 
ATOM     83  C28 non d ame      -9.577   6.760  73.398  0.00  0.00     0.193 C 
ATOM     84  H42 non d ame      -9.639   5.299  74.988  0.00  0.00     0.280 HD
ATOM     85  H43 non d ame      -8.101   6.118  74.837  0.00  0.00     0.280 HD
ATOM     86  H44 non d ame      -9.057   7.684  73.146  0.00  0.00     0.129 H 
ATOM     87  H37 non d ame      -9.098   6.970  71.685  0.00  0.00     0.046 H 
BRANCH  83  88
ATOM     88  O6  non d ame     -10.860   7.163  73.882  0.00  0.00    -0.369 OA
ATOM     89  H45 non d ame     -11.391   7.484  73.149  0.00  0.00     0.212 HD
ENDBRANCH  83  88
ENDBRANCH  72  75
ENDBRANCH  47  72
ENDBRANCH  45  47
ENDBRANCH   1  43
BRANCH   1  90
ATOM     90  C16 non d ame      -7.686   6.315  68.246  0.00  0.00    -0.035 C 
ATOM     91  H21 non d ame      -7.214   7.296  68.313  0.00  0.00     0.037 H 
ATOM     92  H22 non d ame      -8.077   5.836  69.143  0.00  0.00     0.037 H 
BRANCH  90  93
ATOM     93  C17 non d ame      -6.607   5.346  67.664  0.00  0.00    -0.059 C 
ATOM     94  H23 non d ame      -6.116   4.856  68.504  0.00  0.00     0.038 H 
BRANCH  93  95
ATOM     95  C18 non d ame      -7.236   4.235  66.765  0.00  0.00    -0.073 C 
ATOM     96  H24 non d ame      -6.922   3.255  67.125  0.00  0.00     0.028 H 
ATOM     97  H25 non d ame      -8.323   4.306  66.807  0.00  0.00     0.028 H 
ATOM     98  H26 non d ame      -6.903   4.368  65.735  0.00  0.00     0.028 H 
ENDBRANCH  93  95
BRANCH  93  99
ATOM     99  C19 non d ame      -5.531   6.122  66.899  0.00  0.00    -0.073 C 
ATOM    100  H27 non d ame      -5.780   6.137  65.837  0.00  0.00     0.028 H 
ATOM    101  H28 non d ame      -5.483   7.143  67.277  0.00  0.00     0.028 H 
ATOM    102  H29 non d ame      -4.565   5.638  67.040  0.00  0.00     0.028 H 
ENDBRANCH  93  99
ENDBRANCH  90  93
ENDBRANCH   1  90
TORSDOF 26
ENDMDL
MODEL 16
REMARK VINA RESULT:      -6.3      2.558      5.353
REMARK  26 active torsions:
REMARK  status: ('A' for Active; 'I' for Inactive)
REMARK    1  A    between atoms: C2_2  and  C3_3 
REMARK    2  A    between atoms: C4_6  and  C5_7 
REMARK       I    between atoms: C5_7  and  N2_9 
REMARK    3  A    between atoms: N2_9  and  C6_10 
REMARK    4  A    between atoms: C6_10  and  C7_11 
REMARK    5  A    between atoms: C6_10  and  C8_13 
REMARK       I    between atoms: C7_11  and  N3_14 
REMARK    6  A    between atoms: N3_14  and  C9_15 
REMARK    7  A    between atoms: C9_15  and  C10_16 
REMARK    8  A    between atoms: C9_15  and  C11_18 
REMARK       I    between atoms: C10_16  and  N4_21 
REMARK    9  A    between atoms: C11_18  and  C12_19 
REMARK   10  A    between atoms: C11_18  and  C13_20 
REMARK   11  A    between atoms: N4_21  and  C14_22 
REMARK   12  A    between atoms: C14_22  and  C15_23 
REMARK   13  A    between atoms: C14_22  and  C16_25 
REMARK       I    between atoms: C15_23  and  N6_40 
REMARK   14  A    between atoms: C16_25  and  C17_26 
REMARK   15  A    between atoms: C17_26  and  C18_27 
REMARK   16  A    between atoms: C17_26  and  C19_28 
REMARK   17  A    between atoms: C20_29  and  C21_30 
REMARK   18  A    between atoms: C20_29  and  C24_33 
REMARK   19  A    between atoms: C20_29  and  N6_40 
REMARK   20  A    between atoms: C21_30  and  C22_31 
REMARK   21  A    between atoms: C22_31  and  C23_32 
REMARK   22  A    between atoms: C23_32  and  O8_43 
REMARK   23  A    between atoms: C24_33  and  C25_34 
REMARK   24  A    between atoms: C28_38  and  O6_39 
REMARK   25  A    between atoms: C29_42  and  O8_43 
REMARK   26  A    between atoms: C29_42  and  C35_49 
ROOT
ATOM      1  C14 non d ame     -10.908   9.221  69.789  0.00  0.00     0.089 C 
ATOM      2  H20 non d ame     -11.558   8.398  70.092  0.00  0.00     0.087 H 
ENDROOT
BRANCH   1   3
ATOM      3  N4  non d ame     -10.270   8.837  68.539  0.00  0.00    -0.346 N 
ATOM      4  C10 non d ame     -10.408   7.430  68.013  0.00  0.00     0.241 C 
ATOM      5  O4  non d ame     -11.035   6.623  68.617  0.00  0.00    -0.271 OA
ATOM      6  H19 non d ame      -9.739   9.538  68.041  0.00  0.00     0.163 HD
BRANCH   4   7
ATOM      7  C9  non d ame      -9.746   7.051  66.715  0.00  0.00     0.092 C 
ATOM      8  H11 non d ame     -10.433   7.245  65.891  0.00  0.00     0.088 H 
BRANCH   7   9
ATOM      9  N3  non d ame      -8.567   7.898  66.502  0.00  0.00    -0.346 N 
ATOM     10  C7  non d ame      -8.697   9.149  65.797  0.00  0.00     0.240 C 
ATOM     11  O3  non d ame      -9.741   9.491  65.393  0.00  0.00    -0.271 OA
ATOM     12  H10 non d ame      -7.659   7.616  66.844  0.00  0.00     0.163 HD
BRANCH  10  13
ATOM     13  C6  non d ame      -7.438  10.044  65.571  0.00  0.00     0.086 C 
ATOM     14  H6  non d ame      -7.692  11.063  65.277  0.00  0.00     0.086 H 
BRANCH  13  15
ATOM     15  N2  non d ame      -6.701  10.144  66.820  0.00  0.00    -0.343 N 
ATOM     16  C5  non d ame      -7.293  10.859  67.953  0.00  0.00     0.273 C 
ATOM     17  O2  non d ame      -8.361  11.353  67.848  0.00  0.00    -0.266 OA
ATOM     18  H5  non d ame      -5.787   9.721  66.899  0.00  0.00     0.163 HD
BRANCH  16  19
ATOM     19  C4  non d ame      -6.524  10.971  69.278  0.00  0.00     0.154 A 
ATOM     20  C1  non d ame      -5.857   9.919  69.983  0.00  0.00    -0.017 A 
ATOM     21  C2  non d ame      -5.313  10.538  71.130  0.00  0.00     0.077 A 
ATOM     22  H1  non d ame      -5.779   8.868  69.704  0.00  0.00     0.091 H 
ATOM     23  O1  non d ame      -5.634  11.798  71.080  0.00  0.00    -0.218 OA
ATOM     24  N1  non d ame      -6.341  12.075  70.008  0.00  0.00    -0.123 NA
BRANCH  21  25
ATOM     25  C3  non d ame      -4.499   9.856  72.222  0.00  0.00    -0.029 C 
ATOM     26  H2  non d ame      -4.852   8.833  72.353  0.00  0.00     0.036 H 
ATOM     27  H3  non d ame      -3.448   9.845  71.938  0.00  0.00     0.036 H 
ATOM     28  H4  non d ame      -4.616  10.404  73.158  0.00  0.00     0.036 H 
ENDBRANCH  21  25
ENDBRANCH  16  19
ENDBRANCH  13  15
BRANCH  13  29
ATOM     29  C8  non d ame      -6.567   9.431  64.504  0.00  0.00    -0.049 C 
ATOM     30  H7  non d ame      -5.861   8.740  64.965  0.00  0.00     0.030 H 
ATOM     31  H8  non d ame      -7.190   8.894  63.790  0.00  0.00     0.030 H 
ATOM     32  H9  non d ame      -6.018  10.219  63.988  0.00  0.00     0.030 H 
ENDBRANCH  13  29
ENDBRANCH  10  13
ENDBRANCH   7   9
BRANCH   7  33
ATOM     33  C11 non d ame      -9.306   5.559  66.772  0.00  0.00    -0.033 C 
ATOM     34  H12 non d ame      -9.459   5.211  67.793  0.00  0.00     0.042 H 
BRANCH  33  35
ATOM     35  C12 non d ame     -10.183   4.672  65.835  0.00  0.00    -0.071 C 
ATOM     36  H13 non d ame      -9.616   3.791  65.534  0.00  0.00     0.028 H 
ATOM     37  H14 non d ame     -11.082   4.361  66.366  0.00  0.00     0.028 H 
ATOM     38  H15 non d ame     -10.462   5.244  64.951  0.00  0.00     0.028 H 
ENDBRANCH  33  35
BRANCH  33  39
ATOM     39  C13 non d ame      -7.788   5.411  66.434  0.00  0.00    -0.071 C 
ATOM     40  H16 non d ame      -7.496   6.185  65.725  0.00  0.00     0.028 H 
ATOM     41  H17 non d ame      -7.200   5.514  67.347  0.00  0.00     0.028 H 
ATOM     42  H18 non d ame      -7.607   4.429  65.995  0.00  0.00     0.028 H 
ENDBRANCH  33  39
ENDBRANCH   7  33
ENDBRANCH   4   7
ENDBRANCH   1   3
BRANCH   1  43
ATOM     43  C15 non d ame     -11.699  10.540  69.557  0.00  0.00     0.240 C 
ATOM     44  O5  non d ame     -12.871  10.567  69.745  0.00  0.00    -0.271 OA
ATOM     45  N6  non d ame     -10.990  11.773  69.108  0.00  0.00    -0.355 N 
ATOM     46  H46 non d ame      -9.994  11.762  68.949  0.00  0.00     0.162 HD
BRANCH  45  47
ATOM     47  C20 non d ame     -11.756  13.019  68.893  0.00  0.00     0.013 C 
ATOM     48  H30 non d ame     -12.713  12.919  69.405  0.00  0.00     0.072 H 
BRANCH  47  49
ATOM     49  C21 non d ame     -11.982  13.218  67.411  0.00  0.00    -0.038 C 
ATOM     50  H31 non d ame     -12.079  12.217  66.991  0.00  0.00     0.036 H 
ATOM     51  H32 non d ame     -12.808  13.925  67.331  0.00  0.00     0.036 H 
BRANCH  49  52
ATOM     52  C22 non d ame     -10.776  13.873  66.704  0.00  0.00     0.018 C 
ATOM     53  H33 non d ame     -10.325  14.537  67.442  0.00  0.00     0.048 H 
ATOM     54  H34 non d ame     -10.197  13.051  66.285  0.00  0.00     0.048 H 
BRANCH  52  55
ATOM     55  C23 non d ame     -11.170  14.776  65.501  0.00  0.00     0.259 C 
ATOM     56  O7  non d ame     -12.119  14.514  64.836  0.00  0.00    -0.265 OA
BRANCH  55  57
ATOM     57  O8  non d ame     -10.373  15.914  65.194  0.00  0.00    -0.317 OA
BRANCH  57  58
ATOM     58  C29 non d ame      -9.309  16.146  66.122  0.00  0.00     0.052 C 
ATOM     59  H47 non d ame      -9.372  15.339  66.851  0.00  0.00     0.082 H 
ATOM     60  H48 non d ame      -8.411  16.265  65.516  0.00  0.00     0.082 H 
BRANCH  58  61
ATOM     61  C35 non d ame      -9.592  17.488  66.848  0.00  0.00    -0.034 A 
ATOM     62  C30 non d ame      -9.200  17.662  68.171  0.00  0.00    -0.075 A 
ATOM     63  C31 non d ame      -9.454  18.868  68.823  0.00  0.00    -0.082 A 
ATOM     64  H49 non d ame      -8.692  16.853  68.697  0.00  0.00     0.084 H 
ATOM     65  C32 non d ame     -10.108  19.902  68.147  0.00  0.00    -0.083 A 
ATOM     66  H50 non d ame      -9.143  19.001  69.859  0.00  0.00     0.083 H 
ATOM     67  C33 non d ame     -10.501  19.723  66.827  0.00  0.00    -0.082 A 
ATOM     68  H51 non d ame     -10.309  20.848  68.649  0.00  0.00     0.083 H 
ATOM     69  C34 non d ame     -10.246  18.520  66.172  0.00  0.00    -0.075 A 
ATOM     70  H52 non d ame     -11.012  20.532  66.303  0.00  0.00     0.083 H 
ATOM     71  H53 non d ame     -10.557  18.388  65.134  0.00  0.00     0.084 H 
ENDBRANCH  58  61
ENDBRANCH  57  58
ENDBRANCH  55  57
ENDBRANCH  52  55
ENDBRANCH  49  52
ENDBRANCH  47  49
BRANCH  47  72
ATOM     72  C24 non d ame     -10.976  14.207  69.453  0.00  0.00    -0.039 C 
ATOM     73  H35 non d ame      -9.995  13.811  69.718  0.00  0.00     0.036 H 
ATOM     74  H36 non d ame     -11.061  14.991  68.701  0.00  0.00     0.036 H 
BRANCH  72  75
ATOM     75  C25 non d ame     -11.638  14.769  70.800  0.00  0.00    -0.001 C 
ATOM     76  C26 non d ame     -12.636  13.635  71.448  0.00  0.00    -0.035 C 
ATOM     77  C27 non d ame     -13.841  14.204  71.694  0.00  0.00     0.085 C 
ATOM     78  H38 non d ame     -12.862  12.868  70.708  0.00  0.00     0.036 H 
ATOM     79  H39 non d ame     -12.283  13.349  72.439  0.00  0.00     0.036 H 
ATOM     80  N5  non d ame     -13.858  15.530  70.971  0.00  0.00    -0.049 N 
ATOM     81  H40 non d ame     -14.575  13.540  71.236  0.00  0.00     0.075 H 
ATOM     82  H41 non d ame     -13.864  14.385  72.767  0.00  0.00     0.075 H 
ATOM     83  C28 non d ame     -12.325  15.839  70.573  0.00  0.00     0.193 C 
ATOM     84  H42 non d ame     -14.388  15.387  70.124  0.00  0.00     0.280 HD
ATOM     85  H43 non d ame     -14.160  16.219  71.645  0.00  0.00     0.280 HD
ATOM     86  H44 non d ame     -11.743  16.571  71.133  0.00  0.00     0.129 H 
ATOM     87  H37 non d ame     -10.900  15.219  71.465  0.00  0.00     0.046 H 
BRANCH  83  88
ATOM     88  O6  non d ame     -12.243  16.252  69.207  0.00  0.00    -0.369 OA
ATOM     89  H45 non d ame     -13.124  16.443  68.878  0.00  0.00     0.212 HD
ENDBRANCH  83  88
ENDBRANCH  72  75
ENDBRANCH  47  72
ENDBRANCH  45  47
ENDBRANCH   1  43
BRANCH   1  90
ATOM     90  C16 non d ame      -9.837   9.445  70.844  0.00  0.00    -0.035 C 
ATOM     91  H21 non d ame      -8.887   9.298  70.327  0.00  0.00     0.037 H 
ATOM     92  H22 non d ame     -10.069  10.412  71.290  0.00  0.00     0.037 H 
BRANCH  90  93
ATOM     93  C17 non d ame      -9.872   8.402  72.006  0.00  0.00    -0.059 C 
ATOM     94  H23 non d ame      -9.406   8.862  72.877  0.00  0.00     0.038 H 
BRANCH  93  95
ATOM     95  C18 non d ame     -11.331   8.007  72.399  0.00  0.00    -0.073 C 
ATOM     96  H24 non d ame     -11.343   7.637  73.425  0.00  0.00     0.028 H 
ATOM     97  H25 non d ame     -11.978   8.881  72.321  0.00  0.00     0.028 H 
ATOM     98  H26 non d ame     -11.690   7.227  71.727  0.00  0.00     0.028 H 
ENDBRANCH  93  95
BRANCH  93  99
ATOM     99  C19 non d ame      -9.048   7.161  71.653  0.00  0.00    -0.073 C 
ATOM    100  H27 non d ame      -8.047   7.257  72.076  0.00  0.00     0.028 H 
ATOM    101  H28 non d ame      -9.534   6.275  72.063  0.00  0.00     0.028 H 
ATOM    102  H29 non d ame      -8.978   7.067  70.569  0.00  0.00     0.028 H 
ENDBRANCH  93  99
ENDBRANCH  90  93
ENDBRANCH   1  90
TORSDOF 26
ENDMDL
MODEL 17
REMARK VINA RESULT:      -6.3      2.134      7.899
REMARK  26 active torsions:
REMARK  status: ('A' for Active; 'I' for Inactive)
REMARK    1  A    between atoms: C2_2  and  C3_3 
REMARK    2  A    between atoms: C4_6  and  C5_7 
REMARK       I    between atoms: C5_7  and  N2_9 
REMARK    3  A    between atoms: N2_9  and  C6_10 
REMARK    4  A    between atoms: C6_10  and  C7_11 
REMARK    5  A    between atoms: C6_10  and  C8_13 
REMARK       I    between atoms: C7_11  and  N3_14 
REMARK    6  A    between atoms: N3_14  and  C9_15 
REMARK    7  A    between atoms: C9_15  and  C10_16 
REMARK    8  A    between atoms: C9_15  and  C11_18 
REMARK       I    between atoms: C10_16  and  N4_21 
REMARK    9  A    between atoms: C11_18  and  C12_19 
REMARK   10  A    between atoms: C11_18  and  C13_20 
REMARK   11  A    between atoms: N4_21  and  C14_22 
REMARK   12  A    between atoms: C14_22  and  C15_23 
REMARK   13  A    between atoms: C14_22  and  C16_25 
REMARK       I    between atoms: C15_23  and  N6_40 
REMARK   14  A    between atoms: C16_25  and  C17_26 
REMARK   15  A    between atoms: C17_26  and  C18_27 
REMARK   16  A    between atoms: C17_26  and  C19_28 
REMARK   17  A    between atoms: C20_29  and  C21_30 
REMARK   18  A    between atoms: C20_29  and  C24_33 
REMARK   19  A    between atoms: C20_29  and  N6_40 
REMARK   20  A    between atoms: C21_30  and  C22_31 
REMARK   21  A    between atoms: C22_31  and  C23_32 
REMARK   22  A    between atoms: C23_32  and  O8_43 
REMARK   23  A    between atoms: C24_33  and  C25_34 
REMARK   24  A    between atoms: C28_38  and  O6_39 
REMARK   25  A    between atoms: C29_42  and  O8_43 
REMARK   26  A    between atoms: C29_42  and  C35_49 
ROOT
ATOM      1  C14 non d ame      -6.641  13.564  68.219  0.00  0.00     0.089 C 
ATOM      2  H20 non d ame      -5.808  13.456  67.523  0.00  0.00     0.087 H 
ENDROOT
BRANCH   1   3
ATOM      3  N4  non d ame      -6.930  14.986  68.338  0.00  0.00    -0.346 N 
ATOM      4  C10 non d ame      -6.017  16.005  67.704  0.00  0.00     0.241 C 
ATOM      5  O4  non d ame      -5.053  15.656  67.105  0.00  0.00    -0.271 OA
ATOM      6  H19 non d ame      -7.754  15.262  68.854  0.00  0.00     0.163 HD
BRANCH   4   7
ATOM      7  C9  non d ame      -6.333  17.472  67.833  0.00  0.00     0.092 C 
ATOM      8  H11 non d ame      -5.872  18.013  67.007  0.00  0.00     0.088 H 
BRANCH   7   9
ATOM      9  N3  non d ame      -7.782  17.670  67.724  0.00  0.00    -0.346 N 
ATOM     10  C7  non d ame      -8.367  18.025  66.455  0.00  0.00     0.240 C 
ATOM     11  O3  non d ame      -7.688  18.155  65.510  0.00  0.00    -0.271 OA
ATOM     12  H10 non d ame      -8.382  17.562  68.530  0.00  0.00     0.163 HD
BRANCH  10  13
ATOM     13  C6  non d ame      -9.910  18.238  66.346  0.00  0.00     0.086 C 
ATOM     14  H6  non d ame     -10.177  19.051  65.671  0.00  0.00     0.086 H 
BRANCH  13  15
ATOM     15  N2  non d ame     -10.515  17.032  65.804  0.00  0.00    -0.343 N 
ATOM     16  C5  non d ame     -10.601  15.831  66.637  0.00  0.00     0.273 C 
ATOM     17  O2  non d ame     -10.178  15.844  67.740  0.00  0.00    -0.266 OA
ATOM     18  H5  non d ame     -10.871  17.029  64.859  0.00  0.00     0.163 HD
BRANCH  16  19
ATOM     19  C4  non d ame     -11.239  14.550  66.077  0.00  0.00     0.154 A 
ATOM     20  C1  non d ame     -11.196  14.082  64.725  0.00  0.00    -0.017 A 
ATOM     21  C2  non d ame     -11.927  12.873  64.736  0.00  0.00     0.077 A 
ATOM     22  H1  non d ame     -10.709  14.548  63.869  0.00  0.00     0.091 H 
ATOM     23  O1  non d ame     -12.335  12.678  65.956  0.00  0.00    -0.218 OA
ATOM     24  N1  non d ame     -11.946  13.643  66.757  0.00  0.00    -0.123 NA
BRANCH  21  25
ATOM     25  C3  non d ame     -12.186  11.966  63.540  0.00  0.00    -0.029 C 
ATOM     26  H2  non d ame     -13.222  12.075  63.219  0.00  0.00     0.036 H 
ATOM     27  H3  non d ame     -11.521  12.243  62.723  0.00  0.00     0.036 H 
ATOM     28  H4  non d ame     -12.001  10.929  63.824  0.00  0.00     0.036 H 
ENDBRANCH  21  25
ENDBRANCH  16  19
ENDBRANCH  13  15
BRANCH  13  29
ATOM     29  C8  non d ame     -10.477  18.532  67.711  0.00  0.00    -0.049 C 
ATOM     30  H7  non d ame     -10.111  17.792  68.424  0.00  0.00     0.030 H 
ATOM     31  H8  non d ame     -10.167  19.527  68.028  0.00  0.00     0.030 H 
ATOM     32  H9  non d ame     -11.566  18.486  67.669  0.00  0.00     0.030 H 
ENDBRANCH  13  29
ENDBRANCH  10  13
ENDBRANCH   7   9
BRANCH   7  33
ATOM     33  C11 non d ame      -5.844  17.988  69.218  0.00  0.00    -0.033 C 
ATOM     34  H12 non d ame      -6.161  17.266  69.969  0.00  0.00     0.042 H 
BRANCH  33  35
ATOM     35  C12 non d ame      -4.287  18.073  69.275  0.00  0.00    -0.071 C 
ATOM     36  H13 non d ame      -3.963  19.050  68.917  0.00  0.00     0.028 H 
ATOM     37  H14 non d ame      -3.953  17.933  70.303  0.00  0.00     0.028 H 
ATOM     38  H15 non d ame      -3.859  17.295  68.644  0.00  0.00     0.028 H 
ENDBRANCH  33  35
BRANCH  33  39
ATOM     39  C13 non d ame      -6.499  19.364  69.564  0.00  0.00    -0.071 C 
ATOM     40  H16 non d ame      -6.232  19.647  70.582  0.00  0.00     0.028 H 
ATOM     41  H17 non d ame      -6.137  20.124  68.870  0.00  0.00     0.028 H 
ATOM     42  H18 non d ame      -7.582  19.283  69.481  0.00  0.00     0.028 H 
ENDBRANCH  33  39
ENDBRANCH   7  33
ENDBRANCH   4   7
ENDBRANCH   1   3
BRANCH   1  43
ATOM     43  C15 non d ame      -7.923  12.840  67.718  0.00  0.00     0.240 C 
ATOM     44  O5  non d ame      -8.968  13.058  68.241  0.00  0.00    -0.271 OA
ATOM     45  N6  non d ame      -7.850  11.879  66.580  0.00  0.00    -0.355 N 
ATOM     46  H46 non d ame      -6.968  11.690  66.126  0.00  0.00     0.162 HD
BRANCH  45  47
ATOM     47  C20 non d ame      -9.077  11.199  66.115  0.00  0.00     0.013 C 
ATOM     48  H30 non d ame      -9.895  11.919  66.150  0.00  0.00     0.072 H 
BRANCH  47  49
ATOM     49  C21 non d ame      -9.379  10.032  67.028  0.00  0.00    -0.038 C 
ATOM     50  H31 non d ame      -9.221   9.138  66.425  0.00  0.00     0.036 H 
ATOM     51  H32 non d ame      -8.781  10.197  67.925  0.00  0.00     0.036 H 
BRANCH  49  52
ATOM     52  C22 non d ame     -10.853   9.996  67.487  0.00  0.00     0.018 C 
ATOM     53  H33 non d ame     -11.363  10.763  66.904  0.00  0.00     0.048 H 
ATOM     54  H34 non d ame     -11.163   8.954  67.404  0.00  0.00     0.048 H 
BRANCH  52  55
ATOM     55  C23 non d ame     -11.055  10.385  68.978  0.00  0.00     0.259 C 
ATOM     56  O7  non d ame     -10.426   9.850  69.831  0.00  0.00    -0.265 OA
BRANCH  55  57
ATOM     57  O8  non d ame     -12.013  11.382  69.313  0.00  0.00    -0.317 OA
BRANCH  57  58
ATOM     58  C29 non d ame     -12.355  11.415  70.702  0.00  0.00     0.052 C 
ATOM     59  H47 non d ame     -13.267  10.826  70.795  0.00  0.00     0.082 H 
ATOM     60  H48 non d ame     -11.454  11.112  71.235  0.00  0.00     0.082 H 
BRANCH  58  61
ATOM     61  C35 non d ame     -12.678  12.885  71.081  0.00  0.00    -0.034 A 
ATOM     62  C30 non d ame     -12.154  13.930  70.327  0.00  0.00    -0.075 A 
ATOM     63  C31 non d ame     -12.445  15.251  70.667  0.00  0.00    -0.082 A 
ATOM     64  H49 non d ame     -11.518  13.715  69.468  0.00  0.00     0.084 H 
ATOM     65  C32 non d ame     -13.259  15.524  71.769  0.00  0.00    -0.083 A 
ATOM     66  H50 non d ame     -12.035  16.067  70.072  0.00  0.00     0.083 H 
ATOM     67  C33 non d ame     -13.777  14.478  72.521  0.00  0.00    -0.082 A 
ATOM     68  H51 non d ame     -13.491  16.554  72.041  0.00  0.00     0.083 H 
ATOM     69  C34 non d ame     -13.491  13.157  72.183  0.00  0.00    -0.075 A 
ATOM     70  H52 non d ame     -14.410  14.696  73.381  0.00  0.00     0.083 H 
ATOM     71  H53 non d ame     -13.902  12.341  72.778  0.00  0.00     0.084 H 
ENDBRANCH  58  61
ENDBRANCH  57  58
ENDBRANCH  55  57
ENDBRANCH  52  55
ENDBRANCH  49  52
ENDBRANCH  47  49
BRANCH  47  72
ATOM     72  C24 non d ame      -8.878  10.692  64.688  0.00  0.00    -0.039 C 
ATOM     73  H35 non d ame      -9.838  10.268  64.395  0.00  0.00     0.036 H 
ATOM     74  H36 non d ame      -8.464  11.536  64.136  0.00  0.00     0.036 H 
BRANCH  72  75
ATOM     75  C25 non d ame      -7.799   9.510  64.623  0.00  0.00    -0.001 C 
ATOM     76  C26 non d ame      -6.316  10.125  64.265  0.00  0.00    -0.035 C 
ATOM     77  C27 non d ame      -5.797   9.432  63.223  0.00  0.00     0.085 C 
ATOM     78  H38 non d ame      -6.416  11.137  63.873  0.00  0.00     0.036 H 
ATOM     79  H39 non d ame      -5.620   9.921  65.078  0.00  0.00     0.036 H 
ATOM     80  N5  non d ame      -6.924   8.619  62.629  0.00  0.00    -0.049 N 
ATOM     81  H40 non d ame      -5.483  10.185  62.499  0.00  0.00     0.075 H 
ATOM     82  H41 non d ame      -5.064   8.755  63.660  0.00  0.00     0.075 H 
ATOM     83  C28 non d ame      -8.111   8.640  63.722  0.00  0.00     0.193 C 
ATOM     84  H42 non d ame      -7.234   9.118  61.808  0.00  0.00     0.280 HD
ATOM     85  H43 non d ame      -6.580   7.673  62.546  0.00  0.00     0.280 HD
ATOM     86  H44 non d ame      -8.305   7.768  64.347  0.00  0.00     0.129 H 
ATOM     87  H37 non d ame      -7.864   8.844  65.484  0.00  0.00     0.046 H 
BRANCH  83  88
ATOM     88  O6  non d ame      -9.357   8.941  63.092  0.00  0.00    -0.369 OA
ATOM     89  H45 non d ame      -9.737   9.726  63.494  0.00  0.00     0.212 HD
ENDBRANCH  83  88
ENDBRANCH  72  75
ENDBRANCH  47  72
ENDBRANCH  45  47
ENDBRANCH   1  43
BRANCH   1  90
ATOM     90  C16 non d ame      -6.246  13.022  69.583  0.00  0.00    -0.035 C 
ATOM     91  H21 non d ame      -5.901  13.889  70.149  0.00  0.00     0.037 H 
ATOM     92  H22 non d ame      -7.110  12.455  69.929  0.00  0.00     0.037 H 
BRANCH  90  93
ATOM     93  C17 non d ame      -5.049  12.021  69.537  0.00  0.00    -0.059 C 
ATOM     94  H23 non d ame      -5.460  11.012  69.566  0.00  0.00     0.038 H 
BRANCH  93  95
ATOM     95  C18 non d ame      -4.216  12.157  68.222  0.00  0.00    -0.073 C 
ATOM     96  H24 non d ame      -3.195  11.821  68.402  0.00  0.00     0.028 H 
ATOM     97  H25 non d ame      -4.668  11.543  67.442  0.00  0.00     0.028 H 
ATOM     98  H26 non d ame      -4.207  13.200  67.904  0.00  0.00     0.028 H 
ENDBRANCH  93  95
BRANCH  93  99
ATOM     99  C19 non d ame      -4.153  12.182  70.768  0.00  0.00    -0.073 C 
ATOM    100  H27 non d ame      -3.970  13.242  70.947  0.00  0.00     0.028 H 
ATOM    101  H28 non d ame      -4.648  11.745  71.635  0.00  0.00     0.028 H 
ATOM    102  H29 non d ame      -3.205  11.673  70.597  0.00  0.00     0.028 H 
ENDBRANCH  93  99
ENDBRANCH  90  93
ENDBRANCH   1  90
TORSDOF 26
ENDMDL
MODEL 18
REMARK VINA RESULT:      -6.3      2.344      5.349
REMARK  26 active torsions:
REMARK  status: ('A' for Active; 'I' for Inactive)
REMARK    1  A    between atoms: C2_2  and  C3_3 
REMARK    2  A    between atoms: C4_6  and  C5_7 
REMARK       I    between atoms: C5_7  and  N2_9 
REMARK    3  A    between atoms: N2_9  and  C6_10 
REMARK    4  A    between atoms: C6_10  and  C7_11 
REMARK    5  A    between atoms: C6_10  and  C8_13 
REMARK       I    between atoms: C7_11  and  N3_14 
REMARK    6  A    between atoms: N3_14  and  C9_15 
REMARK    7  A    between atoms: C9_15  and  C10_16 
REMARK    8  A    between atoms: C9_15  and  C11_18 
REMARK       I    between atoms: C10_16  and  N4_21 
REMARK    9  A    between atoms: C11_18  and  C12_19 
REMARK   10  A    between atoms: C11_18  and  C13_20 
REMARK   11  A    between atoms: N4_21  and  C14_22 
REMARK   12  A    between atoms: C14_22  and  C15_23 
REMARK   13  A    between atoms: C14_22  and  C16_25 
REMARK       I    between atoms: C15_23  and  N6_40 
REMARK   14  A    between atoms: C16_25  and  C17_26 
REMARK   15  A    between atoms: C17_26  and  C18_27 
REMARK   16  A    between atoms: C17_26  and  C19_28 
REMARK   17  A    between atoms: C20_29  and  C21_30 
REMARK   18  A    between atoms: C20_29  and  C24_33 
REMARK   19  A    between atoms: C20_29  and  N6_40 
REMARK   20  A    between atoms: C21_30  and  C22_31 
REMARK   21  A    between atoms: C22_31  and  C23_32 
REMARK   22  A    between atoms: C23_32  and  O8_43 
REMARK   23  A    between atoms: C24_33  and  C25_34 
REMARK   24  A    between atoms: C28_38  and  O6_39 
REMARK   25  A    between atoms: C29_42  and  O8_43 
REMARK   26  A    between atoms: C29_42  and  C35_49 
ROOT
ATOM      1  C14 non d ame      -7.796  10.419  69.411  0.00  0.00     0.089 C 
ATOM      2  H20 non d ame      -7.856  10.961  70.356  0.00  0.00     0.087 H 
ENDROOT
BRANCH   1   3
ATOM      3  N4  non d ame      -8.649   9.245  69.524  0.00  0.00    -0.346 N 
ATOM      4  C10 non d ame      -8.965   8.661  70.879  0.00  0.00     0.241 C 
ATOM      5  O4  non d ame      -8.518   9.152  71.863  0.00  0.00    -0.271 OA
ATOM      6  H19 non d ame      -9.017   8.841  68.675  0.00  0.00     0.163 HD
BRANCH   4   7
ATOM      7  C9  non d ame      -9.853   7.449  70.978  0.00  0.00     0.092 C 
ATOM      8  H11 non d ame      -9.637   6.920  71.907  0.00  0.00     0.088 H 
BRANCH   7   9
ATOM      9  N3  non d ame     -11.256   7.875  71.040  0.00  0.00    -0.346 N 
ATOM     10  C7  non d ame     -11.920   7.986  72.314  0.00  0.00     0.240 C 
ATOM     11  O3  non d ame     -11.343   7.738  73.302  0.00  0.00    -0.271 OA
ATOM     12  H10 non d ame     -11.767   8.092  70.196  0.00  0.00     0.163 HD
BRANCH  10  13
ATOM     13  C6  non d ame     -13.413   8.437  72.372  0.00  0.00     0.086 C 
ATOM     14  H6  non d ame     -13.958   7.985  73.201  0.00  0.00     0.086 H 
BRANCH  13  15
ATOM     15  N2  non d ame     -13.463   9.875  72.577  0.00  0.00    -0.343 N 
ATOM     16  C5  non d ame     -13.057  10.774  71.495  0.00  0.00     0.273 C 
ATOM     17  O2  non d ame     -12.688  10.329  70.464  0.00  0.00    -0.266 OA
ATOM     18  H5  non d ame     -13.777  10.246  73.463  0.00  0.00     0.163 HD
BRANCH  16  19
ATOM     19  C4  non d ame     -13.106  12.296  71.698  0.00  0.00     0.154 A 
ATOM     20  C1  non d ame     -12.364  13.289  70.983  0.00  0.00    -0.017 A 
ATOM     21  C2  non d ame     -12.768  14.520  71.545  0.00  0.00     0.077 A 
ATOM     22  H1  non d ame     -11.644  13.139  70.178  0.00  0.00     0.091 H 
ATOM     23  O1  non d ame     -13.642  14.255  72.472  0.00  0.00    -0.218 OA
ATOM     24  N1  non d ame     -13.856  12.963  72.580  0.00  0.00    -0.123 NA
BRANCH  21  25
ATOM     25  C3  non d ame     -12.274  15.902  71.138  0.00  0.00    -0.029 C 
ATOM     26  H2  non d ame     -11.370  15.803  70.537  0.00  0.00     0.036 H 
ATOM     27  H3  non d ame     -13.044  16.407  70.556  0.00  0.00     0.036 H 
ATOM     28  H4  non d ame     -12.053  16.487  72.032  0.00  0.00     0.036 H 
ENDBRANCH  21  25
ENDBRANCH  16  19
ENDBRANCH  13  15
BRANCH  13  29
ATOM     29  C8  non d ame     -14.101   8.075  71.081  0.00  0.00    -0.049 C 
ATOM     30  H7  non d ame     -13.395   8.169  70.255  0.00  0.00     0.030 H 
ATOM     31  H8  non d ame     -14.463   7.049  71.135  0.00  0.00     0.030 H 
ATOM     32  H9  non d ame     -14.941   8.750  70.916  0.00  0.00     0.030 H 
ENDBRANCH  13  29
ENDBRANCH  10  13
ENDBRANCH   7   9
BRANCH   7  33
ATOM     33  C11 non d ame      -9.642   6.547  69.728  0.00  0.00    -0.033 C 
ATOM     34  H12 non d ame      -9.576   7.200  68.858  0.00  0.00     0.042 H 
BRANCH  33  35
ATOM     35  C12 non d ame      -8.302   5.752  69.820  0.00  0.00    -0.071 C 
ATOM     36  H13 non d ame      -7.884   5.626  68.822  0.00  0.00     0.028 H 
ATOM     37  H14 non d ame      -7.596   6.301  70.443  0.00  0.00     0.028 H 
ATOM     38  H15 non d ame      -8.491   4.774  70.261  0.00  0.00     0.028 H 
ENDBRANCH  33  35
BRANCH  33  39
ATOM     39  C13 non d ame     -10.856   5.585  69.520  0.00  0.00    -0.071 C 
ATOM     40  H16 non d ame     -11.499   5.617  70.399  0.00  0.00     0.028 H 
ATOM     41  H17 non d ame     -11.424   5.901  68.643  0.00  0.00     0.028 H 
ATOM     42  H18 non d ame     -10.494   4.569  69.371  0.00  0.00     0.028 H 
ENDBRANCH  33  39
ENDBRANCH   7  33
ENDBRANCH   4   7
ENDBRANCH   1   3
BRANCH   1  43
ATOM     43  C15 non d ame      -8.289  11.274  68.210  0.00  0.00     0.240 C 
ATOM     44  O5  non d ame      -7.775  11.153  67.146  0.00  0.00    -0.271 OA
ATOM     45  N6  non d ame      -9.412  12.241  68.384  0.00  0.00    -0.355 N 
ATOM     46  H46 non d ame      -9.859  12.350  69.282  0.00  0.00     0.162 HD
BRANCH  45  47
ATOM     47  C20 non d ame      -9.870  13.046  67.232  0.00  0.00     0.013 C 
ATOM     48  H30 non d ame      -9.358  12.681  66.342  0.00  0.00     0.072 H 
BRANCH  47  49
ATOM     49  C21 non d ame      -9.522  14.499  67.467  0.00  0.00    -0.038 C 
ATOM     50  H31 non d ame     -10.374  14.923  67.998  0.00  0.00     0.036 H 
ATOM     51  H32 non d ame      -8.537  14.494  67.933  0.00  0.00     0.036 H 
BRANCH  49  52
ATOM     52  C22 non d ame      -9.381  15.301  66.155  0.00  0.00     0.018 C 
ATOM     53  H33 non d ame      -8.342  15.629  66.119  0.00  0.00     0.048 H 
ATOM     54  H34 non d ame      -9.776  14.656  65.371  0.00  0.00     0.048 H 
BRANCH  52  55
ATOM     55  C23 non d ame     -10.240  16.596  66.117  0.00  0.00     0.259 C 
ATOM     56  O7  non d ame     -10.616  17.039  65.081  0.00  0.00    -0.265 OA
BRANCH  55  57
ATOM     57  O8  non d ame     -10.560  17.256  67.335  0.00  0.00    -0.317 OA
BRANCH  57  58
ATOM     58  C29 non d ame     -10.487  18.683  67.261  0.00  0.00     0.052 C 
ATOM     59  H47 non d ame     -10.726  18.937  66.229  0.00  0.00     0.082 H 
ATOM     60  H48 non d ame     -11.114  19.052  68.072  0.00  0.00     0.082 H 
BRANCH  58  61
ATOM     61  C35 non d ame      -9.020  19.102  67.545  0.00  0.00    -0.034 A 
ATOM     62  C30 non d ame      -8.324  18.529  68.604  0.00  0.00    -0.075 A 
ATOM     63  C31 non d ame      -7.006  18.906  68.859  0.00  0.00    -0.082 A 
ATOM     64  H49 non d ame      -8.810  17.784  69.234  0.00  0.00     0.084 H 
ATOM     65  C32 non d ame      -6.386  19.863  68.051  0.00  0.00    -0.083 A 
ATOM     66  H50 non d ame      -6.462  18.452  69.688  0.00  0.00     0.083 H 
ATOM     67  C33 non d ame      -7.086  20.435  66.997  0.00  0.00    -0.082 A 
ATOM     68  H51 non d ame      -5.355  20.162  68.243  0.00  0.00     0.083 H 
ATOM     69  C34 non d ame      -8.402  20.059  66.738  0.00  0.00    -0.075 A 
ATOM     70  H52 non d ame      -6.599  21.183  66.371  0.00  0.00     0.083 H 
ATOM     71  H53 non d ame      -8.945  20.512  65.908  0.00  0.00     0.084 H 
ENDBRANCH  58  61
ENDBRANCH  57  58
ENDBRANCH  55  57
ENDBRANCH  52  55
ENDBRANCH  49  52
ENDBRANCH  47  49
BRANCH  47  72
ATOM     72  C24 non d ame     -11.382  12.903  67.071  0.00  0.00    -0.039 C 
ATOM     73  H35 non d ame     -11.701  12.259  67.891  0.00  0.00     0.036 H 
ATOM     74  H36 non d ame     -11.764  13.922  66.999  0.00  0.00     0.036 H 
BRANCH  72  75
ATOM     75  C25 non d ame     -11.766  12.156  65.707  0.00  0.00    -0.001 C 
ATOM     76  C26 non d ame     -10.399  11.708  64.911  0.00  0.00    -0.035 C 
ATOM     77  C27 non d ame     -10.475  12.147  63.632  0.00  0.00     0.085 C 
ATOM     78  H38 non d ame      -9.539  12.243  65.313  0.00  0.00     0.036 H 
ATOM     79  H39 non d ame     -10.365  10.624  64.806  0.00  0.00     0.036 H 
ATOM     80  N5  non d ame     -11.617  13.133  63.571  0.00  0.00    -0.049 N 
ATOM     81  H40 non d ame      -9.539  12.675  63.448  0.00  0.00     0.075 H 
ATOM     82  H41 non d ame     -10.732  11.270  63.038  0.00  0.00     0.075 H 
ATOM     83  C28 non d ame     -12.459  12.922  64.932  0.00  0.00     0.193 C 
ATOM     84  H42 non d ame     -11.202  14.053  63.589  0.00  0.00     0.280 HD
ATOM     85  H43 non d ame     -12.195  12.855  62.791  0.00  0.00     0.280 HD
ATOM     86  H44 non d ame     -13.408  12.386  64.921  0.00  0.00     0.129 H 
ATOM     87  H37 non d ame     -12.527  11.390  65.857  0.00  0.00     0.046 H 
BRANCH  83  88
ATOM     88  O6  non d ame     -12.742  14.185  65.538  0.00  0.00    -0.369 OA
ATOM     89  H45 non d ame     -12.023  14.795  65.358  0.00  0.00     0.212 HD
ENDBRANCH  83  88
ENDBRANCH  72  75
ENDBRANCH  47  72
ENDBRANCH  45  47
ENDBRANCH   1  43
BRANCH   1  90
ATOM     90  C16 non d ame      -6.365   9.970  69.166  0.00  0.00    -0.035 C 
ATOM     91  H21 non d ame      -6.410   8.881  69.106  0.00  0.00     0.037 H 
ATOM     92  H22 non d ame      -6.023  10.549  68.308  0.00  0.00     0.037 H 
BRANCH  90  93
ATOM     93  C17 non d ame      -5.392  10.306  70.341  0.00  0.00    -0.059 C 
ATOM     94  H23 non d ame      -5.728   9.751  71.216  0.00  0.00     0.038 H 
BRANCH  93  95
ATOM     95  C18 non d ame      -3.924   9.868  70.034  0.00  0.00    -0.073 C 
ATOM     96  H24 non d ame      -3.934   8.956  69.438  0.00  0.00     0.028 H 
ATOM     97  H25 non d ame      -3.418  10.659  69.479  0.00  0.00     0.028 H 
ATOM     98  H26 non d ame      -3.396   9.687  70.971  0.00  0.00     0.028 H 
ENDBRANCH  93  95
BRANCH  93  99
ATOM     99  C19 non d ame      -5.454  11.794  70.695  0.00  0.00    -0.073 C 
ATOM    100  H27 non d ame      -6.497  12.110  70.754  0.00  0.00     0.028 H 
ATOM    101  H28 non d ame      -4.969  11.958  71.657  0.00  0.00     0.028 H 
ATOM    102  H29 non d ame      -4.941  12.372  69.927  0.00  0.00     0.028 H 
ENDBRANCH  93  99
ENDBRANCH  90  93
ENDBRANCH   1  90
TORSDOF 26
ENDMDL
MODEL 19
REMARK VINA RESULT:      -6.3      4.183      7.855
REMARK  26 active torsions:
REMARK  status: ('A' for Active; 'I' for Inactive)
REMARK    1  A    between atoms: C2_2  and  C3_3 
REMARK    2  A    between atoms: C4_6  and  C5_7 
REMARK       I    between atoms: C5_7  and  N2_9 
REMARK    3  A    between atoms: N2_9  and  C6_10 
REMARK    4  A    between atoms: C6_10  and  C7_11 
REMARK    5  A    between atoms: C6_10  and  C8_13 
REMARK       I    between atoms: C7_11  and  N3_14 
REMARK    6  A    between atoms: N3_14  and  C9_15 
REMARK    7  A    between atoms: C9_15  and  C10_16 
REMARK    8  A    between atoms: C9_15  and  C11_18 
REMARK       I    between atoms: C10_16  and  N4_21 
REMARK    9  A    between atoms: C11_18  and  C12_19 
REMARK   10  A    between atoms: C11_18  and  C13_20 
REMARK   11  A    between atoms: N4_21  and  C14_22 
REMARK   12  A    between atoms: C14_22  and  C15_23 
REMARK   13  A    between atoms: C14_22  and  C16_25 
REMARK       I    between atoms: C15_23  and  N6_40 
REMARK   14  A    between atoms: C16_25  and  C17_26 
REMARK   15  A    between atoms: C17_26  and  C18_27 
REMARK   16  A    between atoms: C17_26  and  C19_28 
REMARK   17  A    between atoms: C20_29  and  C21_30 
REMARK   18  A    between atoms: C20_29  and  C24_33 
REMARK   19  A    between atoms: C20_29  and  N6_40 
REMARK   20  A    between atoms: C21_30  and  C22_31 
REMARK   21  A    between atoms: C22_31  and  C23_32 
REMARK   22  A    between atoms: C23_32  and  O8_43 
REMARK   23  A    between atoms: C24_33  and  C25_34 
REMARK   24  A    between atoms: C28_38  and  O6_39 
REMARK   25  A    between atoms: C29_42  and  O8_43 
REMARK   26  A    between atoms: C29_42  and  C35_49 
ROOT
ATOM      1  C14 non d ame      -7.635   9.143  67.664  0.00  0.00     0.089 C 
ATOM      2  H20 non d ame      -8.435   9.823  67.367  0.00  0.00     0.087 H 
ENDROOT
BRANCH   1   3
ATOM      3  N4  non d ame      -8.196   8.197  68.616  0.00  0.00    -0.346 N 
ATOM      4  C10 non d ame      -9.542   8.458  69.247  0.00  0.00     0.241 C 
ATOM      5  O4  non d ame     -10.153   9.438  68.972  0.00  0.00    -0.271 OA
ATOM      6  H19 non d ame      -7.659   7.370  68.839  0.00  0.00     0.163 HD
BRANCH   4   7
ATOM      7  C9  non d ame     -10.110   7.466  70.227  0.00  0.00     0.092 C 
ATOM      8  H11 non d ame      -9.519   7.487  71.143  0.00  0.00     0.088 H 
BRANCH   7   9
ATOM      9  N3  non d ame     -11.476   7.860  70.585  0.00  0.00    -0.346 N 
ATOM     10  C7  non d ame     -11.841   8.014  71.971  0.00  0.00     0.240 C 
ATOM     11  O3  non d ame     -11.050   7.825  72.813  0.00  0.00    -0.271 OA
ATOM     12  H10 non d ame     -12.171   8.025  69.871  0.00  0.00     0.163 HD
BRANCH  10  13
ATOM     13  C6  non d ame     -13.298   8.431  72.346  0.00  0.00     0.086 C 
ATOM     14  H6  non d ame     -13.648   7.961  73.265  0.00  0.00     0.086 H 
BRANCH  13  15
ATOM     15  N2  non d ame     -13.334   9.866  72.573  0.00  0.00    -0.343 N 
ATOM     16  C5  non d ame     -13.080  10.781  71.458  0.00  0.00     0.273 C 
ATOM     17  O2  non d ame     -12.845  10.351  70.382  0.00  0.00    -0.266 OA
ATOM     18  H5  non d ame     -13.533  10.224  73.497  0.00  0.00     0.163 HD
BRANCH  16  19
ATOM     19  C4  non d ame     -13.116  12.300  71.684  0.00  0.00     0.154 A 
ATOM     20  C1  non d ame     -12.370  13.297  70.979  0.00  0.00    -0.017 A 
ATOM     21  C2  non d ame     -12.761  14.523  71.562  0.00  0.00     0.077 A 
ATOM     22  H1  non d ame     -11.656  13.154  70.168  0.00  0.00     0.091 H 
ATOM     23  O1  non d ame     -13.631  14.251  72.490  0.00  0.00    -0.218 OA
ATOM     24  N1  non d ame     -13.854  12.960  72.581  0.00  0.00    -0.123 NA
BRANCH  21  25
ATOM     25  C3  non d ame     -12.258  15.907  71.173  0.00  0.00    -0.029 C 
ATOM     26  H2  non d ame     -12.393  16.592  72.010  0.00  0.00     0.036 H 
ATOM     27  H3  non d ame     -11.201  15.850  70.917  0.00  0.00     0.036 H 
ATOM     28  H4  non d ame     -12.821  16.270  70.312  0.00  0.00     0.036 H 
ENDBRANCH  21  25
ENDBRANCH  16  19
ENDBRANCH  13  15
BRANCH  13  29
ATOM     29  C8  non d ame     -14.234   8.063  71.223  0.00  0.00    -0.049 C 
ATOM     30  H7  non d ame     -14.475   7.001  71.285  0.00  0.00     0.030 H 
ATOM     31  H8  non d ame     -15.149   8.648  71.304  0.00  0.00     0.030 H 
ATOM     32  H9  non d ame     -13.753   8.270  70.267  0.00  0.00     0.030 H 
ENDBRANCH  13  29
ENDBRANCH  10  13
ENDBRANCH   7   9
BRANCH   7  33
ATOM     33  C11 non d ame     -10.133   6.051  69.578  0.00  0.00    -0.033 C 
ATOM     34  H12 non d ame      -9.166   5.890  69.105  0.00  0.00     0.042 H 
BRANCH  33  35
ATOM     35  C12 non d ame     -10.322   4.935  70.654  0.00  0.00    -0.071 C 
ATOM     36  H13 non d ame     -11.249   5.109  71.199  0.00  0.00     0.028 H 
ATOM     37  H14 non d ame     -10.365   3.963  70.164  0.00  0.00     0.028 H 
ATOM     38  H15 non d ame      -9.483   4.957  71.348  0.00  0.00     0.028 H 
ENDBRANCH  33  35
BRANCH  33  39
ATOM     39  C13 non d ame     -11.234   5.961  68.472  0.00  0.00    -0.071 C 
ATOM     40  H16 non d ame     -11.916   5.145  68.704  0.00  0.00     0.028 H 
ATOM     41  H17 non d ame     -11.789   6.900  68.435  0.00  0.00     0.028 H 
ATOM     42  H18 non d ame     -10.764   5.780  67.506  0.00  0.00     0.028 H 
ENDBRANCH  33  39
ENDBRANCH   7  33
ENDBRANCH   4   7
ENDBRANCH   1   3
BRANCH   1  43
ATOM     43  C15 non d ame      -7.062   8.347  66.456  0.00  0.00     0.240 C 
ATOM     44  O5  non d ame      -5.886   8.252  66.315  0.00  0.00    -0.271 OA
ATOM     45  N6  non d ame      -7.981   7.696  65.479  0.00  0.00    -0.355 N 
ATOM     46  H46 non d ame      -8.982   7.767  65.591  0.00  0.00     0.162 HD
BRANCH  45  47
ATOM     47  C20 non d ame      -7.421   6.942  64.337  0.00  0.00     0.013 C 
ATOM     48  H30 non d ame      -6.334   6.989  64.404  0.00  0.00     0.072 H 
BRANCH  47  49
ATOM     49  C21 non d ame      -7.886   7.573  63.045  0.00  0.00    -0.038 C 
ATOM     50  H31 non d ame      -7.553   6.903  62.253  0.00  0.00     0.036 H 
ATOM     51  H32 non d ame      -8.950   7.772  63.180  0.00  0.00     0.036 H 
BRANCH  49  52
ATOM     52  C22 non d ame      -7.218   8.938  62.771  0.00  0.00     0.018 C 
ATOM     53  H33 non d ame      -6.603   9.148  63.646  0.00  0.00     0.048 H 
ATOM     54  H34 non d ame      -6.755   8.849  61.789  0.00  0.00     0.048 H 
BRANCH  52  55
ATOM     55  C23 non d ame      -8.224  10.118  62.664  0.00  0.00     0.259 C 
ATOM     56  O7  non d ame      -8.609  10.488  61.602  0.00  0.00    -0.265 OA
BRANCH  55  57
ATOM     57  O8  non d ame      -8.671  10.762  63.851  0.00  0.00    -0.317 OA
BRANCH  57  58
ATOM     58  C29 non d ame      -9.941  10.300  64.320  0.00  0.00     0.052 C 
ATOM     59  H47 non d ame     -10.396   9.781  63.478  0.00  0.00     0.082 H 
ATOM     60  H48 non d ame      -9.735   9.762  65.245  0.00  0.00     0.082 H 
BRANCH  58  61
ATOM     61  C35 non d ame     -10.807  11.543  64.658  0.00  0.00    -0.034 A 
ATOM     62  C30 non d ame     -11.196  11.786  65.972  0.00  0.00    -0.075 A 
ATOM     63  C31 non d ame     -11.974  12.903  66.274  0.00  0.00    -0.082 A 
ATOM     64  H49 non d ame     -10.890  11.103  66.764  0.00  0.00     0.084 H 
ATOM     65  C32 non d ame     -12.367  13.776  65.257  0.00  0.00    -0.083 A 
ATOM     66  H50 non d ame     -12.274  13.092  67.305  0.00  0.00     0.083 H 
ATOM     67  C33 non d ame     -11.980  13.527  63.946  0.00  0.00    -0.082 A 
ATOM     68  H51 non d ame     -12.975  14.652  65.485  0.00  0.00     0.083 H 
ATOM     69  C34 non d ame     -11.201  12.414  63.640  0.00  0.00    -0.075 A 
ATOM     70  H52 non d ame     -12.291  14.210  63.155  0.00  0.00     0.083 H 
ATOM     71  H53 non d ame     -10.900  12.226  62.608  0.00  0.00     0.084 H 
ENDBRANCH  58  61
ENDBRANCH  57  58
ENDBRANCH  55  57
ENDBRANCH  52  55
ENDBRANCH  49  52
ENDBRANCH  47  49
BRANCH  47  72
ATOM     72  C24 non d ame      -7.894   5.491  64.395  0.00  0.00    -0.039 C 
ATOM     73  H35 non d ame      -8.538   5.361  63.525  0.00  0.00     0.036 H 
ATOM     74  H36 non d ame      -6.987   4.894  64.495  0.00  0.00     0.036 H 
BRANCH  72  75
ATOM     75  C25 non d ame      -8.790   5.210  65.693  0.00  0.00    -0.001 C 
ATOM     76  C26 non d ame      -7.917   4.368  66.804  0.00  0.00    -0.035 C 
ATOM     77  C27 non d ame      -8.632   3.285  67.191  0.00  0.00     0.085 C 
ATOM     78  H38 non d ame      -7.033   3.936  66.336  0.00  0.00     0.036 H 
ATOM     79  H39 non d ame      -7.819   4.949  67.721  0.00  0.00     0.036 H 
ATOM     80  N5  non d ame      -9.768   3.132  66.207  0.00  0.00    -0.049 N 
ATOM     81  H40 non d ame      -7.955   2.436  67.086  0.00  0.00     0.075 H 
ATOM     82  H41 non d ame      -9.041   3.539  68.168  0.00  0.00     0.075 H 
ATOM     83  C28 non d ame      -9.844   4.526  65.396  0.00  0.00     0.193 C 
ATOM     84  H42 non d ame      -9.495   2.401  65.566  0.00  0.00     0.280 HD
ATOM     85  H43 non d ame     -10.610   3.034  66.755  0.00  0.00     0.280 HD
ATOM     86  H44 non d ame     -10.623   5.255  65.617  0.00  0.00     0.129 H 
ATOM     87  H37 non d ame      -9.303   6.106  66.042  0.00  0.00     0.046 H 
BRANCH  83  88
ATOM     88  O6  non d ame      -9.944   4.275  63.993  0.00  0.00    -0.369 OA
ATOM     89  H45 non d ame     -10.246   3.375  63.850  0.00  0.00     0.212 HD
ENDBRANCH  83  88
ENDBRANCH  72  75
ENDBRANCH  47  72
ENDBRANCH  45  47
ENDBRANCH   1  43
BRANCH   1  90
ATOM     90  C16 non d ame      -6.519   9.924  68.338  0.00  0.00    -0.035 C 
ATOM     91  H21 non d ame      -6.503   9.571  69.370  0.00  0.00     0.037 H 
ATOM     92  H22 non d ame      -5.645   9.785  67.702  0.00  0.00     0.037 H 
BRANCH  90  93
ATOM     93  C17 non d ame      -6.779  11.462  68.402  0.00  0.00    -0.059 C 
ATOM     94  H23 non d ame      -7.163  11.691  69.396  0.00  0.00     0.038 H 
BRANCH  93  95
ATOM     95  C18 non d ame      -5.471  12.291  68.194  0.00  0.00    -0.073 C 
ATOM     96  H24 non d ame      -5.536  13.219  68.763  0.00  0.00     0.028 H 
ATOM     97  H25 non d ame      -4.616  11.711  68.541  0.00  0.00     0.028 H 
ATOM     98  H26 non d ame      -5.351  12.520  67.135  0.00  0.00     0.028 H 
ENDBRANCH  93  95
BRANCH  93  99
ATOM     99  C19 non d ame      -7.853  11.878  67.393  0.00  0.00    -0.073 C 
ATOM    100  H27 non d ame      -7.711  12.925  67.122  0.00  0.00     0.028 H 
ATOM    101  H28 non d ame      -7.772  11.257  66.501  0.00  0.00     0.028 H 
ATOM    102  H29 non d ame      -8.840  11.747  67.837  0.00  0.00     0.028 H 
ENDBRANCH  93  99
ENDBRANCH  90  93
ENDBRANCH   1  90
TORSDOF 26
ENDMDL
MODEL 20
REMARK VINA RESULT:      -6.3      3.029      8.350
REMARK  26 active torsions:
REMARK  status: ('A' for Active; 'I' for Inactive)
REMARK    1  A    between atoms: C2_2  and  C3_3 
REMARK    2  A    between atoms: C4_6  and  C5_7 
REMARK       I    between atoms: C5_7  and  N2_9 
REMARK    3  A    between atoms: N2_9  and  C6_10 
REMARK    4  A    between atoms: C6_10  and  C7_11 
REMARK    5  A    between atoms: C6_10  and  C8_13 
REMARK       I    between atoms: C7_11  and  N3_14 
REMARK    6  A    between atoms: N3_14  and  C9_15 
REMARK    7  A    between atoms: C9_15  and  C10_16 
REMARK    8  A    between atoms: C9_15  and  C11_18 
REMARK       I    between atoms: C10_16  and  N4_21 
REMARK    9  A    between atoms: C11_18  and  C12_19 
REMARK   10  A    between atoms: C11_18  and  C13_20 
REMARK   11  A    between atoms: N4_21  and  C14_22 
REMARK   12  A    between atoms: C14_22  and  C15_23 
REMARK   13  A    between atoms: C14_22  and  C16_25 
REMARK       I    between atoms: C15_23  and  N6_40 
REMARK   14  A    between atoms: C16_25  and  C17_26 
REMARK   15  A    between atoms: C17_26  and  C18_27 
REMARK   16  A    between atoms: C17_26  and  C19_28 
REMARK   17  A    between atoms: C20_29  and  C21_30 
REMARK   18  A    between atoms: C20_29  and  C24_33 
REMARK   19  A    between atoms: C20_29  and  N6_40 
REMARK   20  A    between atoms: C21_30  and  C22_31 
REMARK   21  A    between atoms: C22_31  and  C23_32 
REMARK   22  A    between atoms: C23_32  and  O8_43 
REMARK   23  A    between atoms: C24_33  and  C25_34 
REMARK   24  A    between atoms: C28_38  and  O6_39 
REMARK   25  A    between atoms: C29_42  and  O8_43 
REMARK   26  A    between atoms: C29_42  and  C35_49 
ROOT
ATOM      1  C14 non d ame      -9.082   7.021  66.295  0.00  0.00     0.089 C 
ATOM      2  H20 non d ame      -9.488   6.477  65.441  0.00  0.00     0.087 H 
ENDROOT
BRANCH   1   3
ATOM      3  N4  non d ame      -8.673   8.335  65.822  0.00  0.00    -0.346 N 
ATOM      4  C10 non d ame      -8.227   8.526  64.393  0.00  0.00     0.241 C 
ATOM      5  O4  non d ame      -8.204   7.606  63.644  0.00  0.00    -0.271 OA
ATOM      6  H19 non d ame      -8.697   9.105  66.475  0.00  0.00     0.163 HD
BRANCH   4   7
ATOM      7  C9  non d ame      -7.813   9.894  63.918  0.00  0.00     0.092 C 
ATOM      8  H11 non d ame      -7.877   9.931  62.831  0.00  0.00     0.088 H 
BRANCH   7   9
ATOM      9  N3  non d ame      -8.746  10.897  64.441  0.00  0.00    -0.346 N 
ATOM     10  C7  non d ame      -9.886  11.299  63.656  0.00  0.00     0.240 C 
ATOM     11  O3  non d ame     -10.069  10.827  62.600  0.00  0.00    -0.271 OA
ATOM     12  H10 non d ame      -8.601  11.314  65.350  0.00  0.00     0.163 HD
BRANCH  10  13
ATOM     13  C6  non d ame     -10.874  12.369  64.217  0.00  0.00     0.086 C 
ATOM     14  H6  non d ame     -11.297  12.089  65.181  0.00  0.00     0.086 H 
BRANCH  13  15
ATOM     15  N2  non d ame     -10.151  13.614  64.426  0.00  0.00    -0.343 N 
ATOM     16  C5  non d ame     -10.480  14.455  65.579  0.00  0.00     0.273 C 
ATOM     17  O2  non d ame     -11.329  14.123  66.330  0.00  0.00    -0.266 OA
ATOM     18  H5  non d ame      -9.429  13.891  63.776  0.00  0.00     0.163 HD
BRANCH  16  19
ATOM     19  C4  non d ame      -9.723  15.772  65.812  0.00  0.00     0.154 A 
ATOM     20  C1  non d ame      -8.441  15.936  66.425  0.00  0.00    -0.017 A 
ATOM     21  C2  non d ame      -8.199  17.327  66.396  0.00  0.00     0.077 A 
ATOM     22  H1  non d ame      -7.785  15.163  66.828  0.00  0.00     0.091 H 
ATOM     23  O1  non d ame      -9.227  17.887  65.829  0.00  0.00    -0.218 OA
ATOM     24  N1  non d ame     -10.130  17.000  65.479  0.00  0.00    -0.123 NA
BRANCH  21  25
ATOM     25  C3  non d ame      -6.962  18.038  66.928  0.00  0.00    -0.029 C 
ATOM     26  H2  non d ame      -6.159  17.315  67.068  0.00  0.00     0.036 H 
ATOM     27  H3  non d ame      -6.646  18.799  66.216  0.00  0.00     0.036 H 
ATOM     28  H4  non d ame      -7.197  18.510  67.883  0.00  0.00     0.036 H 
ENDBRANCH  21  25
ENDBRANCH  16  19
ENDBRANCH  13  15
BRANCH  13  29
ATOM     29  C8  non d ame     -11.998  12.584  63.236  0.00  0.00    -0.049 C 
ATOM     30  H7  non d ame     -11.599  13.008  62.314  0.00  0.00     0.030 H 
ATOM     31  H8  non d ame     -12.479  11.630  63.019  0.00  0.00     0.030 H 
ATOM     32  H9  non d ame     -12.728  13.271  63.664  0.00  0.00     0.030 H 
ENDBRANCH  13  29
ENDBRANCH  10  13
ENDBRANCH   7   9
BRANCH   7  33
ATOM     33  C11 non d ame      -6.377  10.207  64.432  0.00  0.00    -0.033 C 
ATOM     34  H12 non d ame      -6.369  11.240  64.778  0.00  0.00     0.042 H 
BRANCH  33  35
ATOM     35  C12 non d ame      -5.997   9.302  65.645  0.00  0.00    -0.071 C 
ATOM     36  H13 non d ame      -4.913   9.289  65.764  0.00  0.00     0.028 H 
ATOM     37  H14 non d ame      -6.457   9.697  66.550  0.00  0.00     0.028 H 
ATOM     38  H15 non d ame      -6.355   8.289  65.467  0.00  0.00     0.028 H 
ENDBRANCH  33  35
BRANCH  33  39
ATOM     39  C13 non d ame      -5.330  10.076  63.279  0.00  0.00    -0.071 C 
ATOM     40  H16 non d ame      -5.783   9.560  62.433  0.00  0.00     0.028 H 
ATOM     41  H17 non d ame      -5.006  11.070  62.967  0.00  0.00     0.028 H 
ATOM     42  H18 non d ame      -4.469   9.509  63.632  0.00  0.00     0.028 H 
ENDBRANCH  33  39
ENDBRANCH   7  33
ENDBRANCH   4   7
ENDBRANCH   1   3
BRANCH   1  43
ATOM     43  C15 non d ame     -10.132   7.208  67.427  0.00  0.00     0.240 C 
ATOM     44  O5  non d ame     -11.227   6.766  67.297  0.00  0.00    -0.271 OA
ATOM     45  N6  non d ame      -9.769   7.933  68.679  0.00  0.00    -0.355 N 
ATOM     46  H46 non d ame      -8.841   8.310  68.802  0.00  0.00     0.162 HD
BRANCH  45  47
ATOM     47  C20 non d ame     -10.778   8.102  69.746  0.00  0.00     0.013 C 
ATOM     48  H30 non d ame     -11.748   7.815  69.340  0.00  0.00     0.072 H 
BRANCH  47  49
ATOM     49  C21 non d ame     -10.809   9.550  70.181  0.00  0.00    -0.038 C 
ATOM     50  H31 non d ame     -11.416   9.572  71.085  0.00  0.00     0.036 H 
ATOM     51  H32 non d ame      -9.767   9.869  70.215  0.00  0.00     0.036 H 
BRANCH  49  52
ATOM     52  C22 non d ame     -11.514  10.467  69.158  0.00  0.00     0.018 C 
ATOM     53  H33 non d ame     -12.264   9.845  68.670  0.00  0.00     0.048 H 
ATOM     54  H34 non d ame     -11.820  11.351  69.716  0.00  0.00     0.048 H 
BRANCH  52  55
ATOM     55  C23 non d ame     -10.579  10.977  68.026  0.00  0.00     0.259 C 
ATOM     56  O7  non d ame     -10.610  10.478  66.948  0.00  0.00    -0.265 OA
BRANCH  55  57
ATOM     57  O8  non d ame      -9.674  12.041  68.296  0.00  0.00    -0.317 OA
BRANCH  57  58
ATOM     58  C29 non d ame      -8.404  11.900  67.652  0.00  0.00     0.052 C 
ATOM     59  H47 non d ame      -8.485  11.010  67.030  0.00  0.00     0.082 H 
ATOM     60  H48 non d ame      -8.197  12.868  67.195  0.00  0.00     0.082 H 
BRANCH  58  61
ATOM     61  C35 non d ame      -7.338  11.639  68.749  0.00  0.00    -0.034 A 
ATOM     62  C30 non d ame      -7.240  10.384  69.342  0.00  0.00    -0.075 A 
ATOM     63  C31 non d ame      -6.282  10.150  70.327  0.00  0.00    -0.082 A 
ATOM     64  H49 non d ame      -7.913   9.584  69.033  0.00  0.00     0.084 H 
ATOM     65  C32 non d ame      -5.423  11.178  70.723  0.00  0.00    -0.083 A 
ATOM     66  H50 non d ame      -6.207   9.164  70.787  0.00  0.00     0.083 H 
ATOM     67  C33 non d ame      -5.526  12.430  70.132  0.00  0.00    -0.082 A 
ATOM     68  H51 non d ame      -4.670  11.002  71.492  0.00  0.00     0.083 H 
ATOM     69  C34 non d ame      -6.480  12.667  69.144  0.00  0.00    -0.075 A 
ATOM     70  H52 non d ame      -4.854  13.230  70.444  0.00  0.00     0.083 H 
ATOM     71  H53 non d ame      -6.554  13.653  68.684  0.00  0.00     0.084 H 
ENDBRANCH  58  61
ENDBRANCH  57  58
ENDBRANCH  55  57
ENDBRANCH  52  55
ENDBRANCH  49  52
ENDBRANCH  47  49
BRANCH  47  72
ATOM     72  C24 non d ame     -10.420   7.218  70.939  0.00  0.00    -0.039 C 
ATOM     73  H35 non d ame     -11.284   6.569  71.089  0.00  0.00     0.036 H 
ATOM     74  H36 non d ame      -9.449   6.784  70.698  0.00  0.00     0.036 H 
BRANCH  72  75
ATOM     75  C25 non d ame     -10.235   8.076  72.279  0.00  0.00    -0.001 C 
ATOM     76  C26 non d ame      -8.640   8.172  72.666  0.00  0.00    -0.035 C 
ATOM     77  C27 non d ame      -8.483   7.803  73.960  0.00  0.00     0.085 C 
ATOM     78  H38 non d ame      -8.076   7.419  72.117  0.00  0.00     0.036 H 
ATOM     79  H39 non d ame      -8.314   9.212  72.657  0.00  0.00     0.036 H 
ATOM     80  N5  non d ame      -9.775   7.152  74.394  0.00  0.00    -0.049 N 
ATOM     81  H40 non d ame      -7.691   7.053  73.956  0.00  0.00     0.075 H 
ATOM     82  H41 non d ame      -8.350   8.732  74.514  0.00  0.00     0.075 H 
ATOM     83  C28 non d ame     -10.866   7.540  73.270  0.00  0.00     0.193 C 
ATOM     84  H42 non d ame      -9.618   6.156  74.361  0.00  0.00     0.280 HD
ATOM     85  H43 non d ame     -10.039   7.593  75.263  0.00  0.00     0.280 HD
ATOM     86  H44 non d ame     -11.616   8.306  73.465  0.00  0.00     0.129 H 
ATOM     87  H37 non d ame     -10.795   9.011  72.251  0.00  0.00     0.046 H 
BRANCH  83  88
ATOM     88  O6  non d ame     -11.601   6.379  72.875  0.00  0.00    -0.369 OA
ATOM     89  H45 non d ame     -11.167   5.595  73.218  0.00  0.00     0.212 HD
ENDBRANCH  83  88
ENDBRANCH  72  75
ENDBRANCH  47  72
ENDBRANCH  45  47
ENDBRANCH   1  43
BRANCH   1  90
ATOM     90  C16 non d ame      -7.866   6.290  66.840  0.00  0.00    -0.035 C 
ATOM     91  H21 non d ame      -7.043   7.002  66.764  0.00  0.00     0.037 H 
ATOM     92  H22 non d ame      -8.170   5.913  67.816  0.00  0.00     0.037 H 
BRANCH  90  93
ATOM     93  C17 non d ame      -7.451   5.045  65.994  0.00  0.00    -0.059 C 
ATOM     94  H23 non d ame      -8.250   4.851  65.278  0.00  0.00     0.038 H 
BRANCH  93  95
ATOM     95  C18 non d ame      -6.137   5.292  65.187  0.00  0.00    -0.073 C 
ATOM     96  H24 non d ame      -5.567   6.093  65.657  0.00  0.00     0.028 H 
ATOM     97  H25 non d ame      -5.540   4.380  65.178  0.00  0.00     0.028 H 
ATOM     98  H26 non d ame      -6.387   5.574  64.164  0.00  0.00     0.028 H 
ENDBRANCH  93  95
BRANCH  93  99
ATOM     99  C19 non d ame      -7.323   3.801  66.878  0.00  0.00    -0.073 C 
ATOM    100  H27 non d ame      -6.347   3.341  66.717  0.00  0.00     0.028 H 
ATOM    101  H28 non d ame      -7.422   4.089  67.925  0.00  0.00     0.028 H 
ATOM    102  H29 non d ame      -8.107   3.090  66.621  0.00  0.00     0.028 H 
ENDBRANCH  93  99
ENDBRANCH  90  93
ENDBRANCH   1  90
TORSDOF 26
ENDMDL
