MODEL 1
REMARK VINA RESULT:      -7.7      0.000      0.000
REMARK  26 active torsions:
REMARK  status: ('A' for Active; 'I' for Inactive)
REMARK    1  A    between atoms: C2_2  and  C3_3 
REMARK    2  A    between atoms: C4_6  and  C5_7 
REMARK       I    between atoms: C5_7  and  N2_9 
REMARK    3  A    between atoms: N2_9  and  C6_10 
REMARK    4  A    between atoms: C6_10  and  C7_11 
REMARK    5  A    between atoms: C6_10  and  C8_13 
REMARK       I    between atoms: C7_11  and  N3_14 
REMARK    6  A    between atoms: N3_14  and  C9_15 
REMARK    7  A    between atoms: C9_15  and  C10_16 
REMARK    8  A    between atoms: C9_15  and  C11_18 
REMARK       I    between atoms: C10_16  and  N4_21 
REMARK    9  A    between atoms: C11_18  and  C12_19 
REMARK   10  A    between atoms: C11_18  and  C13_20 
REMARK   11  A    between atoms: N4_21  and  C14_22 
REMARK   12  A    between atoms: C14_22  and  C15_23 
REMARK   13  A    between atoms: C14_22  and  C16_25 
REMARK       I    between atoms: C15_23  and  N6_40 
REMARK   14  A    between atoms: C16_25  and  C17_26 
REMARK   15  A    between atoms: C17_26  and  C18_27 
REMARK   16  A    between atoms: C17_26  and  C19_28 
REMARK   17  A    between atoms: C20_29  and  C21_30 
REMARK   18  A    between atoms: C20_29  and  C24_33 
REMARK   19  A    between atoms: C20_29  and  N6_40 
REMARK   20  A    between atoms: C21_30  and  C22_31 
REMARK   21  A    between atoms: C22_31  and  C23_32 
REMARK   22  A    between atoms: C23_32  and  O8_43 
REMARK   23  A    between atoms: C24_33  and  C25_34 
REMARK   24  A    between atoms: C28_38  and  O6_39 
REMARK   25  A    between atoms: C29_42  and  O8_43 
REMARK   26  A    between atoms: C29_42  and  C35_49 
ROOT
ATOM      1  C14 non d ame     -11.775  13.604  69.488  0.00  0.00     0.089 C 
ATOM      2  H20 non d ame     -12.744  13.512  68.995  0.00  0.00     0.087 H 
ENDROOT
BRANCH   1   3
ATOM      3  N4  non d ame     -11.312  12.261  69.800  0.00  0.00    -0.346 N 
ATOM      4  C10 non d ame     -11.545  11.129  68.829  0.00  0.00     0.241 C 
ATOM      5  O4  non d ame     -12.110  11.326  67.804  0.00  0.00    -0.271 OA
ATOM      6  H19 non d ame     -10.836  12.113  70.679  0.00  0.00     0.163 HD
BRANCH   4   7
ATOM      7  C9  non d ame     -11.055   9.746  69.166  0.00  0.00     0.092 C 
ATOM      8  H11 non d ame     -11.841   9.023  68.946  0.00  0.00     0.088 H 
BRANCH   7   9
ATOM      9  N3  non d ame      -9.909   9.412  68.313  0.00  0.00    -0.346 N 
ATOM     10  C7  non d ame      -9.921   8.200  67.534  0.00  0.00     0.240 C 
ATOM     11  O3  non d ame     -10.842   7.479  67.580  0.00  0.00    -0.271 OA
ATOM     12  H10 non d ame      -9.106  10.023  68.264  0.00  0.00     0.163 HD
BRANCH  10  13
ATOM     13  C6  non d ame      -8.697   7.848  66.631  0.00  0.00     0.086 C 
ATOM     14  H6  non d ame      -7.972   7.208  67.133  0.00  0.00     0.086 H 
BRANCH  13  15
ATOM     15  N2  non d ame      -9.166   7.113  65.467  0.00  0.00    -0.343 N 
ATOM     16  C5  non d ame      -8.582   5.807  65.156  0.00  0.00     0.273 C 
ATOM     17  O2  non d ame      -7.735   5.357  65.845  0.00  0.00    -0.266 OA
ATOM     18  H5  non d ame      -9.889   7.507  64.882  0.00  0.00     0.163 HD
BRANCH  16  19
ATOM     19  C4  non d ame      -9.069   5.019  63.930  0.00  0.00     0.154 A 
ATOM     20  C1  non d ame     -10.119   4.048  63.887  0.00  0.00    -0.017 A 
ATOM     21  C2  non d ame     -10.169   3.626  62.539  0.00  0.00     0.077 A 
ATOM     22  H1  non d ame     -10.748   3.702  64.707  0.00  0.00     0.091 H 
ATOM     23  O1  non d ame      -9.253   4.286  61.892  0.00  0.00    -0.218 OA
ATOM     24  N1  non d ame      -8.598   5.105  62.683  0.00  0.00    -0.123 NA
BRANCH  21  25
ATOM     25  C3  non d ame     -11.122   2.592  61.953  0.00  0.00    -0.029 C 
ATOM     26  H2  non d ame     -11.579   2.991  61.048  0.00  0.00     0.036 H 
ATOM     27  H3  non d ame     -10.570   1.685  61.712  0.00  0.00     0.036 H 
ATOM     28  H4  non d ame     -11.900   2.361  62.682  0.00  0.00     0.036 H 
ENDBRANCH  21  25
ENDBRANCH  16  19
ENDBRANCH  13  15
BRANCH  13  29
ATOM     29  C8  non d ame      -8.008   9.117  66.197  0.00  0.00    -0.049 C 
ATOM     30  H7  non d ame      -7.747   9.707  67.076  0.00  0.00     0.030 H 
ATOM     31  H8  non d ame      -7.103   8.869  65.643  0.00  0.00     0.030 H 
ATOM     32  H9  non d ame      -8.678   9.694  65.560  0.00  0.00     0.030 H 
ENDBRANCH  13  29
ENDBRANCH  10  13
ENDBRANCH   7   9
BRANCH   7  33
ATOM     33  C11 non d ame     -10.618   9.700  70.659  0.00  0.00    -0.033 C 
ATOM     34  H12 non d ame     -10.602  10.724  71.029  0.00  0.00     0.042 H 
BRANCH  33  35
ATOM     35  C12 non d ame     -11.642   8.904  71.527  0.00  0.00    -0.071 C 
ATOM     36  H13 non d ame     -12.007   9.539  72.334  0.00  0.00     0.028 H 
ATOM     37  H14 non d ame     -12.480   8.591  70.904  0.00  0.00     0.028 H 
ATOM     38  H15 non d ame     -11.154   8.026  71.949  0.00  0.00     0.028 H 
ENDBRANCH  33  35
BRANCH  33  39
ATOM     39  C13 non d ame      -9.178   9.111  70.803  0.00  0.00    -0.071 C 
ATOM     40  H16 non d ame      -8.991   8.406  69.993  0.00  0.00     0.028 H 
ATOM     41  H17 non d ame      -8.448   9.920  70.755  0.00  0.00     0.028 H 
ATOM     42  H18 non d ame      -9.088   8.597  71.760  0.00  0.00     0.028 H 
ENDBRANCH  33  39
ENDBRANCH   7  33
ENDBRANCH   4   7
ENDBRANCH   1   3
BRANCH   1  43
ATOM     43  C15 non d ame     -10.717  14.293  68.580  0.00  0.00     0.240 C 
ATOM     44  O5  non d ame      -9.586  13.931  68.611  0.00  0.00    -0.271 OA
ATOM     45  N6  non d ame     -11.117  15.399  67.663  0.00  0.00    -0.355 N 
ATOM     46  H46 non d ame     -12.076  15.711  67.625  0.00  0.00     0.162 HD
BRANCH  45  47
ATOM     47  C20 non d ame     -10.099  16.043  66.805  0.00  0.00     0.013 C 
ATOM     48  H30 non d ame      -9.126  15.902  67.275  0.00  0.00     0.072 H 
BRANCH  47  49
ATOM     49  C21 non d ame     -10.406  17.519  66.687  0.00  0.00    -0.038 C 
ATOM     50  H31 non d ame     -10.622  17.691  65.633  0.00  0.00     0.036 H 
ATOM     51  H32 non d ame     -11.167  17.723  67.440  0.00  0.00     0.036 H 
BRANCH  49  52
ATOM     52  C22 non d ame      -9.195  18.411  67.036  0.00  0.00     0.018 C 
ATOM     53  H33 non d ame      -8.320  17.766  66.960  0.00  0.00     0.048 H 
ATOM     54  H34 non d ame      -9.282  19.290  66.397  0.00  0.00     0.048 H 
BRANCH  52  55
ATOM     55  C23 non d ame      -9.209  18.942  68.497  0.00  0.00     0.259 C 
ATOM     56  O7  non d ame     -10.196  18.873  69.154  0.00  0.00    -0.265 OA
BRANCH  55  57
ATOM     57  O8  non d ame      -8.029  19.525  69.037  0.00  0.00    -0.317 OA
BRANCH  57  58
ATOM     58  C29 non d ame      -6.854  18.727  68.863  0.00  0.00     0.052 C 
ATOM     59  H47 non d ame      -6.494  18.510  69.868  0.00  0.00     0.082 H 
ATOM     60  H48 non d ame      -7.147  17.913  68.201  0.00  0.00     0.082 H 
BRANCH  58  61
ATOM     61  C35 non d ame      -5.792  19.594  68.135  0.00  0.00    -0.034 A 
ATOM     62  C30 non d ame      -4.450  19.229  68.173  0.00  0.00    -0.075 A 
ATOM     63  C31 non d ame      -3.496  20.008  67.519  0.00  0.00    -0.082 A 
ATOM     64  H49 non d ame      -4.145  18.333  68.715  0.00  0.00     0.084 H 
ATOM     65  C32 non d ame      -3.888  21.157  66.829  0.00  0.00    -0.083 A 
ATOM     66  H50 non d ame      -2.445  19.717  67.548  0.00  0.00     0.083 H 
ATOM     67  C33 non d ame      -5.228  21.520  66.796  0.00  0.00    -0.082 A 
ATOM     68  H51 non d ame      -3.149  21.771  66.314  0.00  0.00     0.083 H 
ATOM     69  C34 non d ame      -6.185  20.743  67.447  0.00  0.00    -0.075 A 
ATOM     70  H52 non d ame      -5.530  22.418  66.258  0.00  0.00     0.083 H 
ATOM     71  H53 non d ame      -7.236  21.033  67.415  0.00  0.00     0.084 H 
ENDBRANCH  58  61
ENDBRANCH  57  58
ENDBRANCH  55  57
ENDBRANCH  52  55
ENDBRANCH  49  52
ENDBRANCH  47  49
BRANCH  47  72
ATOM     72  C24 non d ame     -10.116  15.405  65.417  0.00  0.00    -0.039 C 
ATOM     73  H35 non d ame     -10.240  16.234  64.719  0.00  0.00     0.036 H 
ATOM     74  H36 non d ame      -9.221  14.784  65.372  0.00  0.00     0.036 H 
BRANCH  72  75
ATOM     75  C25 non d ame     -11.375  14.433  65.226  0.00  0.00    -0.001 C 
ATOM     76  C26 non d ame     -10.861  12.925  64.819  0.00  0.00    -0.035 C 
ATOM     77  C27 non d ame     -11.530  12.521  63.712  0.00  0.00     0.085 C 
ATOM     78  H38 non d ame      -9.823  12.960  64.491  0.00  0.00     0.036 H 
ATOM     79  H39 non d ame     -11.169  12.208  65.579  0.00  0.00     0.036 H 
ATOM     80  N5  non d ame     -12.211  13.740  63.138  0.00  0.00    -0.049 N 
ATOM     81  H40 non d ame     -10.762  12.182  63.015  0.00  0.00     0.075 H 
ATOM     82  H41 non d ame     -12.288  11.825  64.068  0.00  0.00     0.075 H 
ATOM     83  C28 non d ame     -12.162  14.863  64.296  0.00  0.00     0.193 C 
ATOM     84  H42 non d ame     -11.641  14.049  62.365  0.00  0.00     0.280 HD
ATOM     85  H43 non d ame     -13.175  13.482  62.983  0.00  0.00     0.280 HD
ATOM     86  H44 non d ame     -13.051  15.097  64.881  0.00  0.00     0.129 H 
ATOM     87  H37 non d ame     -12.084  14.510  66.050  0.00  0.00     0.046 H 
BRANCH  83  88
ATOM     88  O6  non d ame     -11.723  16.111  63.755  0.00  0.00    -0.369 OA
ATOM     89  H45 non d ame     -10.764  16.154  63.787  0.00  0.00     0.212 HD
ENDBRANCH  83  88
ENDBRANCH  72  75
ENDBRANCH  47  72
ENDBRANCH  45  47
ENDBRANCH   1  43
BRANCH   1  90
ATOM     90  C16 non d ame     -11.929  14.389  70.781  0.00  0.00    -0.035 C 
ATOM     91  H21 non d ame     -11.269  13.897  71.497  0.00  0.00     0.037 H 
ATOM     92  H22 non d ame     -11.756  15.430  70.509  0.00  0.00     0.037 H 
BRANCH  90  93
ATOM     93  C17 non d ame     -13.366  14.323  71.388  0.00  0.00    -0.059 C 
ATOM     94  H23 non d ame     -14.074  14.316  70.559  0.00  0.00     0.038 H 
BRANCH  93  95
ATOM     95  C18 non d ame     -13.595  13.022  72.222  0.00  0.00    -0.073 C 
ATOM     96  H24 non d ame     -13.579  13.265  73.284  0.00  0.00     0.028 H 
ATOM     97  H25 non d ame     -14.562  12.591  71.962  0.00  0.00     0.028 H 
ATOM     98  H26 non d ame     -12.805  12.305  72.000  0.00  0.00     0.028 H 
ENDBRANCH  93  95
BRANCH  93  99
ATOM     99  C19 non d ame     -13.663  15.569  72.228  0.00  0.00    -0.073 C 
ATOM    100  H27 non d ame     -13.166  16.432  71.785  0.00  0.00     0.028 H 
ATOM    101  H28 non d ame     -14.739  15.741  72.252  0.00  0.00     0.028 H 
ATOM    102  H29 non d ame     -13.297  15.418  73.243  0.00  0.00     0.028 H 
ENDBRANCH  93  99
ENDBRANCH  90  93
ENDBRANCH   1  90
TORSDOF 26
ENDMDL
MODEL 2
REMARK VINA RESULT:      -7.7      3.026      5.434
REMARK  26 active torsions:
REMARK  status: ('A' for Active; 'I' for Inactive)
REMARK    1  A    between atoms: C2_2  and  C3_3 
REMARK    2  A    between atoms: C4_6  and  C5_7 
REMARK       I    between atoms: C5_7  and  N2_9 
REMARK    3  A    between atoms: N2_9  and  C6_10 
REMARK    4  A    between atoms: C6_10  and  C7_11 
REMARK    5  A    between atoms: C6_10  and  C8_13 
REMARK       I    between atoms: C7_11  and  N3_14 
REMARK    6  A    between atoms: N3_14  and  C9_15 
REMARK    7  A    between atoms: C9_15  and  C10_16 
REMARK    8  A    between atoms: C9_15  and  C11_18 
REMARK       I    between atoms: C10_16  and  N4_21 
REMARK    9  A    between atoms: C11_18  and  C12_19 
REMARK   10  A    between atoms: C11_18  and  C13_20 
REMARK   11  A    between atoms: N4_21  and  C14_22 
REMARK   12  A    between atoms: C14_22  and  C15_23 
REMARK   13  A    between atoms: C14_22  and  C16_25 
REMARK       I    between atoms: C15_23  and  N6_40 
REMARK   14  A    between atoms: C16_25  and  C17_26 
REMARK   15  A    between atoms: C17_26  and  C18_27 
REMARK   16  A    between atoms: C17_26  and  C19_28 
REMARK   17  A    between atoms: C20_29  and  C21_30 
REMARK   18  A    between atoms: C20_29  and  C24_33 
REMARK   19  A    between atoms: C20_29  and  N6_40 
REMARK   20  A    between atoms: C21_30  and  C22_31 
REMARK   21  A    between atoms: C22_31  and  C23_32 
REMARK   22  A    between atoms: C23_32  and  O8_43 
REMARK   23  A    between atoms: C24_33  and  C25_34 
REMARK   24  A    between atoms: C28_38  and  O6_39 
REMARK   25  A    between atoms: C29_42  and  O8_43 
REMARK   26  A    between atoms: C29_42  and  C35_49 
ROOT
ATOM      1  C14 non d ame     -11.900  14.094  69.543  0.00  0.00     0.089 C 
ATOM      2  H20 non d ame     -12.392  14.020  68.573  0.00  0.00     0.087 H 
ENDROOT
BRANCH   1   3
ATOM      3  N4  non d ame     -11.559  12.743  69.965  0.00  0.00    -0.346 N 
ATOM      4  C10 non d ame     -11.758  11.579  69.027  0.00  0.00     0.241 C 
ATOM      5  O4  non d ame     -12.196  11.754  67.938  0.00  0.00    -0.271 OA
ATOM      6  H19 non d ame     -11.189  12.615  70.897  0.00  0.00     0.163 HD
BRANCH   4   7
ATOM      7  C9  non d ame     -11.395  10.188  69.478  0.00  0.00     0.092 C 
ATOM      8  H11 non d ame     -12.073   9.472  69.015  0.00  0.00     0.088 H 
BRANCH   7   9
ATOM      9  N3  non d ame     -10.041   9.862  69.017  0.00  0.00    -0.346 N 
ATOM     10  C7  non d ame      -9.823   8.707  68.183  0.00  0.00     0.240 C 
ATOM     11  O3  non d ame     -10.724   8.027  67.873  0.00  0.00    -0.271 OA
ATOM     12  H10 non d ame      -9.253  10.439  69.276  0.00  0.00     0.163 HD
BRANCH  10  13
ATOM     13  C6  non d ame      -8.380   8.364  67.698  0.00  0.00     0.086 C 
ATOM     14  H6  non d ame      -8.210   7.291  67.604  0.00  0.00     0.086 H 
BRANCH  13  15
ATOM     15  N2  non d ame      -8.179   8.934  66.376  0.00  0.00    -0.343 N 
ATOM     16  C5  non d ame      -8.390   8.100  65.191  0.00  0.00     0.273 C 
ATOM     17  O2  non d ame      -8.718   6.972  65.311  0.00  0.00    -0.266 OA
ATOM     18  H5  non d ame      -7.895   9.899  66.283  0.00  0.00     0.163 HD
BRANCH  16  19
ATOM     19  C4  non d ame      -8.182   8.691  63.787  0.00  0.00     0.154 A 
ATOM     20  C1  non d ame      -7.738  10.012  63.462  0.00  0.00    -0.017 A 
ATOM     21  C2  non d ame      -7.714  10.050  62.050  0.00  0.00     0.077 A 
ATOM     22  H1  non d ame      -7.473  10.819  64.146  0.00  0.00     0.091 H 
ATOM     23  O1  non d ame      -8.098   8.882  61.625  0.00  0.00    -0.218 OA
ATOM     24  N1  non d ame      -8.377   8.072  62.620  0.00  0.00    -0.123 NA
BRANCH  21  25
ATOM     25  C3  non d ame      -7.310  11.238  61.187  0.00  0.00    -0.029 C 
ATOM     26  H2  non d ame      -6.826  11.992  61.809  0.00  0.00     0.036 H 
ATOM     27  H3  non d ame      -6.618  10.907  60.414  0.00  0.00     0.036 H 
ATOM     28  H4  non d ame      -8.198  11.667  60.721  0.00  0.00     0.036 H 
ENDBRANCH  21  25
ENDBRANCH  16  19
ENDBRANCH  13  15
BRANCH  13  29
ATOM     29  C8  non d ame      -7.373   8.933  68.665  0.00  0.00    -0.049 C 
ATOM     30  H7  non d ame      -7.539  10.006  68.772  0.00  0.00     0.030 H 
ATOM     31  H8  non d ame      -7.484   8.450  69.634  0.00  0.00     0.030 H 
ATOM     32  H9  non d ame      -6.366   8.759  68.285  0.00  0.00     0.030 H 
ENDBRANCH  13  29
ENDBRANCH  10  13
ENDBRANCH   7   9
BRANCH   7  33
ATOM     33  C11 non d ame     -11.441  10.119  71.032  0.00  0.00    -0.033 C 
ATOM     34  H12 non d ame     -11.112  11.084  71.415  0.00  0.00     0.042 H 
BRANCH  33  35
ATOM     35  C12 non d ame     -12.895   9.881  71.547  0.00  0.00    -0.071 C 
ATOM     36  H13 non d ame     -13.193   8.855  71.334  0.00  0.00     0.028 H 
ATOM     37  H14 non d ame     -12.933  10.055  72.622  0.00  0.00     0.028 H 
ATOM     38  H15 non d ame     -13.574  10.568  71.043  0.00  0.00     0.028 H 
ENDBRANCH  33  35
BRANCH  33  39
ATOM     39  C13 non d ame     -10.464   9.025  71.573  0.00  0.00    -0.071 C 
ATOM     40  H16 non d ame      -9.980   8.525  70.735  0.00  0.00     0.028 H 
ATOM     41  H17 non d ame      -9.708   9.494  72.204  0.00  0.00     0.028 H 
ATOM     42  H18 non d ame     -11.023   8.296  72.158  0.00  0.00     0.028 H 
ENDBRANCH  33  39
ENDBRANCH   7  33
ENDBRANCH   4   7
ENDBRANCH   1   3
BRANCH   1  43
ATOM     43  C15 non d ame     -10.594  14.935  69.477  0.00  0.00     0.240 C 
ATOM     44  O5  non d ame     -10.562  16.018  69.966  0.00  0.00    -0.271 OA
ATOM     45  N6  non d ame      -9.377  14.387  68.811  0.00  0.00    -0.355 N 
ATOM     46  H46 non d ame      -9.391  13.467  68.396  0.00  0.00     0.162 HD
BRANCH  45  47
ATOM     47  C20 non d ame      -8.143  15.199  68.757  0.00  0.00     0.013 C 
ATOM     48  H30 non d ame      -8.235  15.999  69.492  0.00  0.00     0.072 H 
BRANCH  47  49
ATOM     49  C21 non d ame      -7.990  15.786  67.372  0.00  0.00    -0.038 C 
ATOM     50  H31 non d ame      -6.929  16.006  67.261  0.00  0.00     0.036 H 
ATOM     51  H32 non d ame      -8.474  15.080  66.697  0.00  0.00     0.036 H 
BRANCH  49  52
ATOM     52  C22 non d ame      -8.734  17.129  67.205  0.00  0.00     0.018 C 
ATOM     53  H33 non d ame      -9.113  17.383  68.196  0.00  0.00     0.048 H 
ATOM     54  H34 non d ame      -8.032  17.795  66.704  0.00  0.00     0.048 H 
BRANCH  52  55
ATOM     55  C23 non d ame      -9.980  17.045  66.280  0.00  0.00     0.259 C 
ATOM     56  O7  non d ame     -10.320  17.986  65.639  0.00  0.00    -0.265 OA
BRANCH  55  57
ATOM     57  O8  non d ame     -10.720  15.832  66.217  0.00  0.00    -0.317 OA
BRANCH  57  58
ATOM     58  C29 non d ame     -11.168  15.491  64.902  0.00  0.00     0.052 C 
ATOM     59  H47 non d ame     -12.221  15.768  64.868  0.00  0.00     0.082 H 
ATOM     60  H48 non d ame     -10.459  15.959  64.219  0.00  0.00     0.082 H 
BRANCH  58  61
ATOM     61  C35 non d ame     -11.059  13.951  64.743  0.00  0.00    -0.034 A 
ATOM     62  C30 non d ame     -11.870  13.285  63.830  0.00  0.00    -0.075 A 
ATOM     63  C31 non d ame     -11.771  11.901  63.688  0.00  0.00    -0.082 A 
ATOM     64  H49 non d ame     -12.582  13.847  63.225  0.00  0.00     0.084 H 
ATOM     65  C32 non d ame     -10.859  11.183  64.466  0.00  0.00    -0.083 A 
ATOM     66  H50 non d ame     -12.406  11.383  62.969  0.00  0.00     0.083 H 
ATOM     67  C33 non d ame     -10.055  11.852  65.379  0.00  0.00    -0.082 A 
ATOM     68  H51 non d ame     -10.775  10.102  64.360  0.00  0.00     0.083 H 
ATOM     69  C34 non d ame     -10.149  13.235  65.522  0.00  0.00    -0.075 A 
ATOM     70  H52 non d ame      -9.346  11.288  65.986  0.00  0.00     0.083 H 
ATOM     71  H53 non d ame      -9.512  13.753  66.241  0.00  0.00     0.084 H 
ENDBRANCH  58  61
ENDBRANCH  57  58
ENDBRANCH  55  57
ENDBRANCH  52  55
ENDBRANCH  49  52
ENDBRANCH  47  49
BRANCH  47  72
ATOM     72  C24 non d ame      -6.934  14.322  69.076  0.00  0.00    -0.039 C 
ATOM     73  H35 non d ame      -6.273  14.947  69.677  0.00  0.00     0.036 H 
ATOM     74  H36 non d ame      -7.345  13.404  69.496  0.00  0.00     0.036 H 
BRANCH  72  75
ATOM     75  C25 non d ame      -6.128  13.918  67.752  0.00  0.00    -0.001 C 
ATOM     76  C26 non d ame      -6.577  12.414  67.261  0.00  0.00    -0.035 C 
ATOM     77  C27 non d ame      -5.463  11.666  67.075  0.00  0.00     0.085 C 
ATOM     78  H38 non d ame      -7.098  11.898  68.066  0.00  0.00     0.036 H 
ATOM     79  H39 non d ame      -7.020  12.461  66.267  0.00  0.00     0.036 H 
ATOM     80  N5  non d ame      -4.315  12.418  67.707  0.00  0.00    -0.049 N 
ATOM     81  H40 non d ame      -5.634  10.744  67.633  0.00  0.00     0.075 H 
ATOM     82  H41 non d ame      -5.313  11.630  65.997  0.00  0.00     0.075 H 
ATOM     83  C28 non d ame      -4.854  13.918  67.961  0.00  0.00     0.193 C 
ATOM     84  H42 non d ame      -4.146  11.981  68.601  0.00  0.00     0.280 HD
ATOM     85  H43 non d ame      -3.581  12.453  67.015  0.00  0.00     0.280 HD
ATOM     86  H44 non d ame      -4.546  14.735  67.309  0.00  0.00     0.129 H 
ATOM     87  H37 non d ame      -6.143  14.709  67.002  0.00  0.00     0.046 H 
BRANCH  83  88
ATOM     88  O6  non d ame      -4.525  14.343  69.285  0.00  0.00    -0.369 OA
ATOM     89  H45 non d ame      -3.861  15.035  69.243  0.00  0.00     0.212 HD
ENDBRANCH  83  88
ENDBRANCH  72  75
ENDBRANCH  47  72
ENDBRANCH  45  47
ENDBRANCH   1  43
BRANCH   1  90
ATOM     90  C16 non d ame     -12.852  14.705  70.558  0.00  0.00    -0.035 C 
ATOM     91  H21 non d ame     -12.567  15.756  70.624  0.00  0.00     0.037 H 
ATOM     92  H22 non d ame     -13.850  14.432  70.218  0.00  0.00     0.037 H 
BRANCH  90  93
ATOM     93  C17 non d ame     -12.698  14.116  71.996  0.00  0.00    -0.059 C 
ATOM     94  H23 non d ame     -11.880  13.396  71.973  0.00  0.00     0.038 H 
BRANCH  93  95
ATOM     95  C18 non d ame     -12.337  15.213  73.048  0.00  0.00    -0.073 C 
ATOM     96  H24 non d ame     -12.181  16.165  72.540  0.00  0.00     0.028 H 
ATOM     97  H25 non d ame     -13.153  15.312  73.764  0.00  0.00     0.028 H 
ATOM     98  H26 non d ame     -11.425  14.927  73.573  0.00  0.00     0.028 H 
ENDBRANCH  93  95
BRANCH  93  99
ATOM     99  C19 non d ame     -13.960  13.355  72.414  0.00  0.00    -0.073 C 
ATOM    100  H27 non d ame     -14.211  13.607  73.445  0.00  0.00     0.028 H 
ATOM    101  H28 non d ame     -14.785  13.635  71.759  0.00  0.00     0.028 H 
ATOM    102  H29 non d ame     -13.781  12.283  72.334  0.00  0.00     0.028 H 
ENDBRANCH  93  99
ENDBRANCH  90  93
ENDBRANCH   1  90
TORSDOF 26
ENDMDL
MODEL 3
REMARK VINA RESULT:      -7.5      2.343      5.046
REMARK  26 active torsions:
REMARK  status: ('A' for Active; 'I' for Inactive)
REMARK    1  A    between atoms: C2_2  and  C3_3 
REMARK    2  A    between atoms: C4_6  and  C5_7 
REMARK       I    between atoms: C5_7  and  N2_9 
REMARK    3  A    between atoms: N2_9  and  C6_10 
REMARK    4  A    between atoms: C6_10  and  C7_11 
REMARK    5  A    between atoms: C6_10  and  C8_13 
REMARK       I    between atoms: C7_11  and  N3_14 
REMARK    6  A    between atoms: N3_14  and  C9_15 
REMARK    7  A    between atoms: C9_15  and  C10_16 
REMARK    8  A    between atoms: C9_15  and  C11_18 
REMARK       I    between atoms: C10_16  and  N4_21 
REMARK    9  A    between atoms: C11_18  and  C12_19 
REMARK   10  A    between atoms: C11_18  and  C13_20 
REMARK   11  A    between atoms: N4_21  and  C14_22 
REMARK   12  A    between atoms: C14_22  and  C15_23 
REMARK   13  A    between atoms: C14_22  and  C16_25 
REMARK       I    between atoms: C15_23  and  N6_40 
REMARK   14  A    between atoms: C16_25  and  C17_26 
REMARK   15  A    between atoms: C17_26  and  C18_27 
REMARK   16  A    between atoms: C17_26  and  C19_28 
REMARK   17  A    between atoms: C20_29  and  C21_30 
REMARK   18  A    between atoms: C20_29  and  C24_33 
REMARK   19  A    between atoms: C20_29  and  N6_40 
REMARK   20  A    between atoms: C21_30  and  C22_31 
REMARK   21  A    between atoms: C22_31  and  C23_32 
REMARK   22  A    between atoms: C23_32  and  O8_43 
REMARK   23  A    between atoms: C24_33  and  C25_34 
REMARK   24  A    between atoms: C28_38  and  O6_39 
REMARK   25  A    between atoms: C29_42  and  O8_43 
REMARK   26  A    between atoms: C29_42  and  C35_49 
ROOT
ATOM      1  C14 non d ame      -9.881  10.471  67.624  0.00  0.00     0.089 C 
ATOM      2  H20 non d ame      -9.160  10.610  68.430  0.00  0.00     0.087 H 
ENDROOT
BRANCH   1   3
ATOM      3  N4  non d ame     -10.425   9.127  67.750  0.00  0.00    -0.346 N 
ATOM      4  C10 non d ame     -10.022   8.247  68.907  0.00  0.00     0.241 C 
ATOM      5  O4  non d ame      -9.256   8.643  69.723  0.00  0.00    -0.271 OA
ATOM      6  H19 non d ame     -11.074   8.808  67.044  0.00  0.00     0.163 HD
BRANCH   4   7
ATOM      7  C9  non d ame     -10.599   6.861  69.025  0.00  0.00     0.092 C 
ATOM      8  H11 non d ame     -11.610   6.857  68.617  0.00  0.00     0.088 H 
BRANCH   7   9
ATOM      9  N3  non d ame      -9.803   5.930  68.218  0.00  0.00    -0.346 N 
ATOM     10  C7  non d ame     -10.166   5.674  66.847  0.00  0.00     0.240 C 
ATOM     11  O3  non d ame     -11.095   6.206  66.375  0.00  0.00    -0.271 OA
ATOM     12  H10 non d ame      -8.999   5.462  68.612  0.00  0.00     0.163 HD
BRANCH  10  13
ATOM     13  C6  non d ame      -9.316   4.679  65.995  0.00  0.00     0.086 C 
ATOM     14  H6  non d ame      -9.839   4.336  65.102  0.00  0.00     0.086 H 
BRANCH  13  15
ATOM     15  N2  non d ame      -8.114   5.357  65.539  0.00  0.00    -0.343 N 
ATOM     16  C5  non d ame      -7.873   5.512  64.103  0.00  0.00     0.273 C 
ATOM     17  O2  non d ame      -8.651   5.085  63.323  0.00  0.00    -0.266 OA
ATOM     18  H5  non d ame      -7.453   5.717  66.213  0.00  0.00     0.163 HD
BRANCH  16  19
ATOM     19  C4  non d ame      -6.607   6.228  63.607  0.00  0.00     0.154 A 
ATOM     20  C1  non d ame      -6.305   7.623  63.711  0.00  0.00    -0.017 A 
ATOM     21  C2  non d ame      -5.034   7.765  63.111  0.00  0.00     0.077 A 
ATOM     22  H1  non d ame      -6.914   8.411  64.154  0.00  0.00     0.091 H 
ATOM     23  O1  non d ame      -4.658   6.585  62.714  0.00  0.00    -0.218 OA
ATOM     24  N1  non d ame      -5.559   5.671  62.993  0.00  0.00    -0.123 NA
BRANCH  21  25
ATOM     25  C3  non d ame      -4.250   9.062  62.958  0.00  0.00    -0.029 C 
ATOM     26  H2  non d ame      -3.616   9.208  63.833  0.00  0.00     0.036 H 
ATOM     27  H3  non d ame      -3.629   9.008  62.065  0.00  0.00     0.036 H 
ATOM     28  H4  non d ame      -4.944   9.899  62.869  0.00  0.00     0.036 H 
ENDBRANCH  21  25
ENDBRANCH  16  19
ENDBRANCH  13  15
BRANCH  13  29
ATOM     29  C8  non d ame      -8.947   3.482  66.834  0.00  0.00    -0.049 C 
ATOM     30  H7  non d ame      -9.255   3.653  67.866  0.00  0.00     0.030 H 
ATOM     31  H8  non d ame      -9.451   2.597  66.446  0.00  0.00     0.030 H 
ATOM     32  H9  non d ame      -7.868   3.333  66.797  0.00  0.00     0.030 H 
ENDBRANCH  13  29
ENDBRANCH  10  13
ENDBRANCH   7   9
BRANCH   7  33
ATOM     33  C11 non d ame     -10.567   6.412  70.515  0.00  0.00    -0.033 C 
ATOM     34  H12 non d ame      -9.826   7.023  71.027  0.00  0.00     0.042 H 
BRANCH  33  35
ATOM     35  C12 non d ame     -11.942   6.656  71.212  0.00  0.00    -0.071 C 
ATOM     36  H13 non d ame     -12.259   5.746  71.721  0.00  0.00     0.028 H 
ATOM     37  H14 non d ame     -11.842   7.462  71.938  0.00  0.00     0.028 H 
ATOM     38  H15 non d ame     -12.684   6.930  70.463  0.00  0.00     0.028 H 
ENDBRANCH  33  35
BRANCH  33  39
ATOM     39  C13 non d ame     -10.129   4.917  70.638  0.00  0.00    -0.071 C 
ATOM     40  H16 non d ame     -10.450   4.370  69.753  0.00  0.00     0.028 H 
ATOM     41  H17 non d ame      -9.043   4.862  70.725  0.00  0.00     0.028 H 
ATOM     42  H18 non d ame     -10.586   4.476  71.524  0.00  0.00     0.028 H 
ENDBRANCH  33  39
ENDBRANCH   7  33
ENDBRANCH   4   7
ENDBRANCH   1   3
BRANCH   1  43
ATOM     43  C15 non d ame     -11.054  11.489  67.701  0.00  0.00     0.240 C 
ATOM     44  O5  non d ame     -12.130  11.126  68.052  0.00  0.00    -0.271 OA
ATOM     45  N6  non d ame     -10.834  12.921  67.348  0.00  0.00    -0.355 N 
ATOM     46  H46 non d ame      -9.923  13.241  67.053  0.00  0.00     0.162 HD
BRANCH  45  47
ATOM     47  C20 non d ame     -11.959  13.876  67.427  0.00  0.00     0.013 C 
ATOM     48  H30 non d ame     -12.796  13.371  67.911  0.00  0.00     0.072 H 
BRANCH  47  49
ATOM     49  C21 non d ame     -12.353  14.304  66.032  0.00  0.00    -0.038 C 
ATOM     50  H31 non d ame     -12.851  13.442  65.589  0.00  0.00     0.036 H 
ATOM     51  H32 non d ame     -12.894  15.243  66.153  0.00  0.00     0.036 H 
BRANCH  49  52
ATOM     52  C22 non d ame     -11.135  14.614  65.134  0.00  0.00     0.018 C 
ATOM     53  H33 non d ame     -10.258  14.328  65.717  0.00  0.00     0.048 H 
ATOM     54  H34 non d ame     -11.338  14.126  64.182  0.00  0.00     0.048 H 
BRANCH  52  55
ATOM     55  C23 non d ame     -10.961  16.125  64.814  0.00  0.00     0.259 C 
ATOM     56  O7  non d ame     -11.572  16.627  63.928  0.00  0.00    -0.265 OA
BRANCH  55  57
ATOM     57  O8  non d ame     -10.050  16.899  65.584  0.00  0.00    -0.317 OA
BRANCH  57  58
ATOM     58  C29 non d ame      -8.902  16.172  66.032  0.00  0.00     0.052 C 
ATOM     59  H47 non d ame      -9.270  15.472  66.781  0.00  0.00     0.082 H 
ATOM     60  H48 non d ame      -8.418  15.800  65.129  0.00  0.00     0.082 H 
BRANCH  58  61
ATOM     61  C35 non d ame      -7.941  17.174  66.726  0.00  0.00    -0.034 A 
ATOM     62  C30 non d ame      -8.305  17.769  67.930  0.00  0.00    -0.075 A 
ATOM     63  C31 non d ame      -7.441  18.669  68.553  0.00  0.00    -0.082 A 
ATOM     64  H49 non d ame      -9.265  17.529  68.386  0.00  0.00     0.084 H 
ATOM     65  C32 non d ame      -6.212  18.977  67.965  0.00  0.00    -0.083 A 
ATOM     66  H50 non d ame      -7.728  19.131  69.498  0.00  0.00     0.083 H 
ATOM     67  C33 non d ame      -5.854  18.384  66.761  0.00  0.00    -0.082 A 
ATOM     68  H51 non d ame      -5.531  19.680  68.446  0.00  0.00     0.083 H 
ATOM     69  C34 non d ame      -6.714  17.482  66.137  0.00  0.00    -0.075 A 
ATOM     70  H52 non d ame      -4.895  18.628  66.305  0.00  0.00     0.083 H 
ATOM     71  H53 non d ame      -6.425  17.020  65.192  0.00  0.00     0.084 H 
ENDBRANCH  58  61
ENDBRANCH  57  58
ENDBRANCH  55  57
ENDBRANCH  52  55
ENDBRANCH  49  52
ENDBRANCH  47  49
BRANCH  47  72
ATOM     72  C24 non d ame     -11.539  15.101  68.237  0.00  0.00    -0.039 C 
ATOM     73  H35 non d ame     -10.580  15.409  67.820  0.00  0.00     0.036 H 
ATOM     74  H36 non d ame     -12.392  15.780  68.200  0.00  0.00     0.036 H 
BRANCH  72  75
ATOM     75  C25 non d ame     -11.291  14.738  69.778  0.00  0.00    -0.001 C 
ATOM     76  C26 non d ame     -12.574  13.896  70.367  0.00  0.00    -0.035 C 
ATOM     77  C27 non d ame     -12.993  14.485  71.513  0.00  0.00     0.085 C 
ATOM     78  H38 non d ame     -13.429  14.000  69.700  0.00  0.00     0.036 H 
ATOM     79  H39 non d ame     -12.254  12.906  70.693  0.00  0.00     0.036 H 
ATOM     80  N5  non d ame     -12.324  15.837  71.584  0.00  0.00    -0.049 N 
ATOM     81  H40 non d ame     -14.068  14.626  71.393  0.00  0.00     0.075 H 
ATOM     82  H41 non d ame     -12.612  13.859  72.319  0.00  0.00     0.075 H 
ATOM     83  C28 non d ame     -11.137  15.803  70.491  0.00  0.00     0.193 C 
ATOM     84  H42 non d ame     -13.014  16.513  71.289  0.00  0.00     0.280 HD
ATOM     85  H43 non d ame     -11.912  15.905  72.504  0.00  0.00     0.280 HD
ATOM     86  H44 non d ame     -10.099  15.685  70.803  0.00  0.00     0.129 H 
ATOM     87  H37 non d ame     -10.300  14.316  69.947  0.00  0.00     0.046 H 
BRANCH  83  88
ATOM     88  O6  non d ame     -11.163  16.991  69.697  0.00  0.00    -0.369 OA
ATOM     89  H45 non d ame     -11.985  17.027  69.203  0.00  0.00     0.212 HD
ENDBRANCH  83  88
ENDBRANCH  72  75
ENDBRANCH  47  72
ENDBRANCH  45  47
ENDBRANCH   1  43
BRANCH   1  90
ATOM     90  C16 non d ame      -9.181  10.599  66.280  0.00  0.00    -0.035 C 
ATOM     91  H21 non d ame      -9.123  11.671  66.086  0.00  0.00     0.037 H 
ATOM     92  H22 non d ame      -8.268  10.012  66.374  0.00  0.00     0.037 H 
BRANCH  90  93
ATOM     93  C17 non d ame      -9.984   9.979  65.093  0.00  0.00    -0.059 C 
ATOM     94  H23 non d ame     -10.788   9.376  65.517  0.00  0.00     0.038 H 
BRANCH  93  95
ATOM     95  C18 non d ame     -10.636  11.072  64.187  0.00  0.00    -0.073 C 
ATOM     96  H24 non d ame     -11.007  10.611  63.272  0.00  0.00     0.028 H 
ATOM     97  H25 non d ame     -11.464  11.539  64.721  0.00  0.00     0.028 H 
ATOM     98  H26 non d ame      -9.891  11.828  63.938  0.00  0.00     0.028 H 
ENDBRANCH  93  95
BRANCH  93  99
ATOM     99  C19 non d ame      -9.102   9.040  64.266  0.00  0.00    -0.073 C 
ATOM    100  H27 non d ame      -8.632   9.603  63.458  0.00  0.00     0.028 H 
ATOM    101  H28 non d ame      -8.331   8.610  64.906  0.00  0.00     0.028 H 
ATOM    102  H29 non d ame      -9.713   8.241  63.847  0.00  0.00     0.028 H 
ENDBRANCH  93  99
ENDBRANCH  90  93
ENDBRANCH   1  90
TORSDOF 26
ENDMDL
MODEL 4
REMARK VINA RESULT:      -7.4      3.515      6.377
REMARK  26 active torsions:
REMARK  status: ('A' for Active; 'I' for Inactive)
REMARK    1  A    between atoms: C2_2  and  C3_3 
REMARK    2  A    between atoms: C4_6  and  C5_7 
REMARK       I    between atoms: C5_7  and  N2_9 
REMARK    3  A    between atoms: N2_9  and  C6_10 
REMARK    4  A    between atoms: C6_10  and  C7_11 
REMARK    5  A    between atoms: C6_10  and  C8_13 
REMARK       I    between atoms: C7_11  and  N3_14 
REMARK    6  A    between atoms: N3_14  and  C9_15 
REMARK    7  A    between atoms: C9_15  and  C10_16 
REMARK    8  A    between atoms: C9_15  and  C11_18 
REMARK       I    between atoms: C10_16  and  N4_21 
REMARK    9  A    between atoms: C11_18  and  C12_19 
REMARK   10  A    between atoms: C11_18  and  C13_20 
REMARK   11  A    between atoms: N4_21  and  C14_22 
REMARK   12  A    between atoms: C14_22  and  C15_23 
REMARK   13  A    between atoms: C14_22  and  C16_25 
REMARK       I    between atoms: C15_23  and  N6_40 
REMARK   14  A    between atoms: C16_25  and  C17_26 
REMARK   15  A    between atoms: C17_26  and  C18_27 
REMARK   16  A    between atoms: C17_26  and  C19_28 
REMARK   17  A    between atoms: C20_29  and  C21_30 
REMARK   18  A    between atoms: C20_29  and  C24_33 
REMARK   19  A    between atoms: C20_29  and  N6_40 
REMARK   20  A    between atoms: C21_30  and  C22_31 
REMARK   21  A    between atoms: C22_31  and  C23_32 
REMARK   22  A    between atoms: C23_32  and  O8_43 
REMARK   23  A    between atoms: C24_33  and  C25_34 
REMARK   24  A    between atoms: C28_38  and  O6_39 
REMARK   25  A    between atoms: C29_42  and  O8_43 
REMARK   26  A    between atoms: C29_42  and  C35_49 
ROOT
ATOM      1  C14 non d ame     -10.184  10.392  68.665  0.00  0.00     0.089 C 
ATOM      2  H20 non d ame      -9.423  10.489  69.440  0.00  0.00     0.087 H 
ENDROOT
BRANCH   1   3
ATOM      3  N4  non d ame     -10.767   9.064  68.787  0.00  0.00    -0.346 N 
ATOM      4  C10 non d ame      -9.985   7.945  69.429  0.00  0.00     0.241 C 
ATOM      5  O4  non d ame      -8.887   8.138  69.838  0.00  0.00    -0.271 OA
ATOM      6  H19 non d ame     -11.701   8.920  68.430  0.00  0.00     0.163 HD
BRANCH   4   7
ATOM      7  C9  non d ame     -10.605   6.578  69.552  0.00  0.00     0.092 C 
ATOM      8  H11 non d ame     -11.676   6.651  69.362  0.00  0.00     0.088 H 
BRANCH   7   9
ATOM      9  N3  non d ame     -10.044   5.693  68.526  0.00  0.00    -0.346 N 
ATOM     10  C7  non d ame     -10.567   5.725  67.183  0.00  0.00     0.240 C 
ATOM     11  O3  non d ame     -11.439   6.456  66.908  0.00  0.00    -0.271 OA
ATOM     12  H10 non d ame      -9.292   5.056  68.747  0.00  0.00     0.163 HD
BRANCH  10  13
ATOM     13  C6  non d ame      -9.968   4.778  66.096  0.00  0.00     0.086 C 
ATOM     14  H6  non d ame     -10.720   4.142  65.629  0.00  0.00     0.086 H 
BRANCH  13  15
ATOM     15  N2  non d ame      -9.388   5.585  65.035  0.00  0.00    -0.343 N 
ATOM     16  C5  non d ame      -8.359   6.574  65.361  0.00  0.00     0.273 C 
ATOM     17  O2  non d ame      -8.006   6.715  66.480  0.00  0.00    -0.266 OA
ATOM     18  H5  non d ame      -9.698   5.460  64.082  0.00  0.00     0.163 HD
BRANCH  16  19
ATOM     19  C4  non d ame      -7.737   7.434  64.249  0.00  0.00     0.154 A 
ATOM     20  C1  non d ame      -8.407   8.382  63.412  0.00  0.00    -0.017 A 
ATOM     21  C2  non d ame      -7.400   8.895  62.566  0.00  0.00     0.077 A 
ATOM     22  H1  non d ame      -9.463   8.656  63.419  0.00  0.00     0.091 H 
ATOM     23  O1  non d ame      -6.286   8.307  62.888  0.00  0.00    -0.218 OA
ATOM     24  N1  non d ame      -6.457   7.449  63.868  0.00  0.00    -0.123 NA
BRANCH  21  25
ATOM     25  C3  non d ame      -7.585   9.946  61.479  0.00  0.00    -0.029 C 
ATOM     26  H2  non d ame      -6.947  10.804  61.690  0.00  0.00     0.036 H 
ATOM     27  H3  non d ame      -7.314   9.521  60.513  0.00  0.00     0.036 H 
ATOM     28  H4  non d ame      -8.628  10.265  61.456  0.00  0.00     0.036 H 
ENDBRANCH  21  25
ENDBRANCH  16  19
ENDBRANCH  13  15
BRANCH  13  29
ATOM     29  C8  non d ame      -8.908   3.903  66.717  0.00  0.00    -0.049 C 
ATOM     30  H7  non d ame      -8.134   4.530  67.161  0.00  0.00     0.030 H 
ATOM     31  H8  non d ame      -9.357   3.279  67.488  0.00  0.00     0.030 H 
ATOM     32  H9  non d ame      -8.465   3.270  65.948  0.00  0.00     0.030 H 
ENDBRANCH  13  29
ENDBRANCH  10  13
ENDBRANCH   7   9
BRANCH   7  33
ATOM     33  C11 non d ame     -10.298   5.994  70.962  0.00  0.00    -0.033 C 
ATOM     34  H12 non d ame      -9.357   6.426  71.298  0.00  0.00     0.042 H 
BRANCH  33  35
ATOM     35  C12 non d ame     -11.396   6.397  71.995  0.00  0.00    -0.071 C 
ATOM     36  H13 non d ame     -11.544   5.583  72.705  0.00  0.00     0.028 H 
ATOM     37  H14 non d ame     -11.080   7.292  72.530  0.00  0.00     0.028 H 
ATOM     38  H15 non d ame     -12.330   6.596  71.472  0.00  0.00     0.028 H 
ENDBRANCH  33  35
BRANCH  33  39
ATOM     39  C13 non d ame     -10.124   4.443  70.898  0.00  0.00    -0.071 C 
ATOM     40  H16 non d ame     -10.759   3.975  71.649  0.00  0.00     0.028 H 
ATOM     41  H17 non d ame     -10.408   4.085  69.908  0.00  0.00     0.028 H 
ATOM     42  H18 non d ame      -9.082   4.186  71.092  0.00  0.00     0.028 H 
ENDBRANCH  33  39
ENDBRANCH   7  33
ENDBRANCH   4   7
ENDBRANCH   1   3
BRANCH   1  43
ATOM     43  C15 non d ame     -11.318  11.445  68.819  0.00  0.00     0.240 C 
ATOM     44  O5  non d ame     -12.413  11.196  68.433  0.00  0.00    -0.271 OA
ATOM     45  N6  non d ame     -11.039  12.764  69.458  0.00  0.00    -0.355 N 
ATOM     46  H46 non d ame     -10.113  12.985  69.793  0.00  0.00     0.162 HD
BRANCH  45  47
ATOM     47  C20 non d ame     -12.128  13.755  69.598  0.00  0.00     0.013 C 
ATOM     48  H30 non d ame     -12.941  13.455  68.937  0.00  0.00     0.072 H 
BRANCH  47  49
ATOM     49  C21 non d ame     -11.616  15.120  69.200  0.00  0.00    -0.038 C 
ATOM     50  H31 non d ame     -12.138  15.373  68.277  0.00  0.00     0.036 H 
ATOM     51  H32 non d ame     -11.735  15.749  70.083  0.00  0.00     0.036 H 
BRANCH  49  52
ATOM     52  C22 non d ame     -10.109  15.121  68.864  0.00  0.00     0.018 C 
ATOM     53  H33 non d ame      -9.698  16.007  69.348  0.00  0.00     0.048 H 
ATOM     54  H34 non d ame      -9.745  14.132  69.139  0.00  0.00     0.048 H 
BRANCH  52  55
ATOM     55  C23 non d ame      -9.805  15.283  67.348  0.00  0.00     0.259 C 
ATOM     56  O7  non d ame      -8.684  15.376  66.965  0.00  0.00    -0.265 OA
BRANCH  55  57
ATOM     57  O8  non d ame     -10.884  15.333  66.422  0.00  0.00    -0.317 OA
BRANCH  57  58
ATOM     58  C29 non d ame     -10.476  15.292  65.051  0.00  0.00     0.052 C 
ATOM     59  H47 non d ame     -11.115  16.005  64.533  0.00  0.00     0.082 H 
ATOM     60  H48 non d ame      -9.396  15.434  65.061  0.00  0.00     0.082 H 
BRANCH  58  61
ATOM     61  C35 non d ame     -10.779  13.871  64.505  0.00  0.00    -0.034 A 
ATOM     62  C30 non d ame      -9.760  12.930  64.406  0.00  0.00    -0.075 A 
ATOM     63  C31 non d ame     -10.033  11.654  63.915  0.00  0.00    -0.082 A 
ATOM     64  H49 non d ame      -8.748  13.191  64.715  0.00  0.00     0.084 H 
ATOM     65  C32 non d ame     -11.331  11.322  63.517  0.00  0.00    -0.083 A 
ATOM     66  H50 non d ame      -9.232  10.918  63.842  0.00  0.00     0.083 H 
ATOM     67  C33 non d ame     -12.344  12.266  63.614  0.00  0.00    -0.082 A 
ATOM     68  H51 non d ame     -11.552  10.327  63.133  0.00  0.00     0.083 H 
ATOM     69  C34 non d ame     -12.076  13.542  64.107  0.00  0.00    -0.075 A 
ATOM     70  H52 non d ame     -13.356  12.004  63.301  0.00  0.00     0.083 H 
ATOM     71  H53 non d ame     -12.879  14.277  64.180  0.00  0.00     0.084 H 
ENDBRANCH  58  61
ENDBRANCH  57  58
ENDBRANCH  55  57
ENDBRANCH  52  55
ENDBRANCH  49  52
ENDBRANCH  47  49
BRANCH  47  72
ATOM     72  C24 non d ame     -12.608  13.792  71.047  0.00  0.00    -0.039 C 
ATOM     73  H35 non d ame     -13.584  13.306  71.042  0.00  0.00     0.036 H 
ATOM     74  H36 non d ame     -11.792  13.368  71.634  0.00  0.00     0.036 H 
BRANCH  72  75
ATOM     75  C25 non d ame     -12.829  15.293  71.561  0.00  0.00    -0.001 C 
ATOM     76  C26 non d ame     -11.748  15.643  72.749  0.00  0.00    -0.035 C 
ATOM     77  C27 non d ame     -12.419  16.144  73.815  0.00  0.00     0.085 C 
ATOM     78  H38 non d ame     -11.306  14.725  73.135  0.00  0.00     0.036 H 
ATOM     79  H39 non d ame     -11.108  16.469  72.441  0.00  0.00     0.036 H 
ATOM     80  N5  non d ame     -13.884  15.861  73.586  0.00  0.00    -0.049 N 
ATOM     81  H40 non d ame     -12.075  15.565  74.673  0.00  0.00     0.075 H 
ATOM     82  H41 non d ame     -12.255  17.220  73.782  0.00  0.00     0.075 H 
ATOM     83  C28 non d ame     -14.021  15.457  72.029  0.00  0.00     0.193 C 
ATOM     84  H42 non d ame     -14.112  15.055  74.149  0.00  0.00     0.280 HD
ATOM     85  H43 non d ame     -14.370  16.734  73.734  0.00  0.00     0.280 HD
ATOM     86  H44 non d ame     -14.423  16.165  71.305  0.00  0.00     0.129 H 
ATOM     87  H37 non d ame     -12.908  16.003  70.737  0.00  0.00     0.046 H 
BRANCH  83  88
ATOM     88  O6  non d ame     -14.819  14.279  71.894  0.00  0.00    -0.369 OA
ATOM     89  H45 non d ame     -15.088  14.179  70.978  0.00  0.00     0.212 HD
ENDBRANCH  83  88
ENDBRANCH  72  75
ENDBRANCH  47  72
ENDBRANCH  45  47
ENDBRANCH   1  43
BRANCH   1  90
ATOM     90  C16 non d ame      -9.542  10.528  67.294  0.00  0.00    -0.035 C 
ATOM     91  H21 non d ame      -9.333   9.507  66.971  0.00  0.00     0.037 H 
ATOM     92  H22 non d ame     -10.224  11.153  66.717  0.00  0.00     0.037 H 
BRANCH  90  93
ATOM     93  C17 non d ame      -8.170  11.274  67.315  0.00  0.00    -0.059 C 
ATOM     94  H23 non d ame      -8.344  12.295  66.977  0.00  0.00     0.038 H 
BRANCH  93  95
ATOM     95  C18 non d ame      -7.559  11.345  68.751  0.00  0.00    -0.073 C 
ATOM     96  H24 non d ame      -6.768  12.094  68.772  0.00  0.00     0.028 H 
ATOM     97  H25 non d ame      -8.337  11.618  69.463  0.00  0.00     0.028 H 
ATOM     98  H26 non d ame      -7.147  10.371  69.019  0.00  0.00     0.028 H 
ENDBRANCH  93  95
BRANCH  93  99
ATOM     99  C19 non d ame      -7.184  10.633  66.334  0.00  0.00    -0.073 C 
ATOM    100  H27 non d ame      -6.616   9.855  66.847  0.00  0.00     0.028 H 
ATOM    101  H28 non d ame      -7.734  10.193  65.502  0.00  0.00     0.028 H 
ATOM    102  H29 non d ame      -6.501  11.393  65.956  0.00  0.00     0.028 H 
ENDBRANCH  93  99
ENDBRANCH  90  93
ENDBRANCH   1  90
TORSDOF 26
ENDMDL
MODEL 5
REMARK VINA RESULT:      -7.4      3.136      6.445
REMARK  26 active torsions:
REMARK  status: ('A' for Active; 'I' for Inactive)
REMARK    1  A    between atoms: C2_2  and  C3_3 
REMARK    2  A    between atoms: C4_6  and  C5_7 
REMARK       I    between atoms: C5_7  and  N2_9 
REMARK    3  A    between atoms: N2_9  and  C6_10 
REMARK    4  A    between atoms: C6_10  and  C7_11 
REMARK    5  A    between atoms: C6_10  and  C8_13 
REMARK       I    between atoms: C7_11  and  N3_14 
REMARK    6  A    between atoms: N3_14  and  C9_15 
REMARK    7  A    between atoms: C9_15  and  C10_16 
REMARK    8  A    between atoms: C9_15  and  C11_18 
REMARK       I    between atoms: C10_16  and  N4_21 
REMARK    9  A    between atoms: C11_18  and  C12_19 
REMARK   10  A    between atoms: C11_18  and  C13_20 
REMARK   11  A    between atoms: N4_21  and  C14_22 
REMARK   12  A    between atoms: C14_22  and  C15_23 
REMARK   13  A    between atoms: C14_22  and  C16_25 
REMARK       I    between atoms: C15_23  and  N6_40 
REMARK   14  A    between atoms: C16_25  and  C17_26 
REMARK   15  A    between atoms: C17_26  and  C18_27 
REMARK   16  A    between atoms: C17_26  and  C19_28 
REMARK   17  A    between atoms: C20_29  and  C21_30 
REMARK   18  A    between atoms: C20_29  and  C24_33 
REMARK   19  A    between atoms: C20_29  and  N6_40 
REMARK   20  A    between atoms: C21_30  and  C22_31 
REMARK   21  A    between atoms: C22_31  and  C23_32 
REMARK   22  A    between atoms: C23_32  and  O8_43 
REMARK   23  A    between atoms: C24_33  and  C25_34 
REMARK   24  A    between atoms: C28_38  and  O6_39 
REMARK   25  A    between atoms: C29_42  and  O8_43 
REMARK   26  A    between atoms: C29_42  and  C35_49 
ROOT
ATOM      1  C14 non d ame     -11.887  14.199  69.927  0.00  0.00     0.089 C 
ATOM      2  H20 non d ame     -12.900  13.814  69.798  0.00  0.00     0.087 H 
ENDROOT
BRANCH   1   3
ATOM      3  N4  non d ame     -10.969  13.084  69.753  0.00  0.00    -0.346 N 
ATOM      4  C10 non d ame     -11.443  11.797  69.126  0.00  0.00     0.241 C 
ATOM      5  O4  non d ame     -12.571  11.682  68.772  0.00  0.00    -0.271 OA
ATOM      6  H19 non d ame     -10.014  13.201  70.063  0.00  0.00     0.163 HD
BRANCH   4   7
ATOM      7  C9  non d ame     -10.478  10.655  68.948  0.00  0.00     0.092 C 
ATOM      8  H11 non d ame      -9.568  10.862  69.511  0.00  0.00     0.088 H 
BRANCH   7   9
ATOM      9  N3  non d ame     -11.061   9.430  69.505  0.00  0.00    -0.346 N 
ATOM     10  C7  non d ame     -10.472   8.816  70.669  0.00  0.00     0.240 C 
ATOM     11  O3  non d ame      -9.528   9.293  71.171  0.00  0.00    -0.271 OA
ATOM     12  H10 non d ame     -11.875   9.006  69.083  0.00  0.00     0.163 HD
BRANCH  10  13
ATOM     13  C6  non d ame     -11.096   7.511  71.255  0.00  0.00     0.086 C 
ATOM     14  H6  non d ame     -12.048   7.252  70.790  0.00  0.00     0.086 H 
BRANCH  13  15
ATOM     15  N2  non d ame     -10.193   6.401  70.999  0.00  0.00    -0.343 N 
ATOM     16  C5  non d ame     -10.356   5.603  69.782  0.00  0.00     0.273 C 
ATOM     17  O2  non d ame     -11.219   5.860  69.018  0.00  0.00    -0.266 OA
ATOM     18  H5  non d ame      -9.460   6.187  71.661  0.00  0.00     0.163 HD
BRANCH  16  19
ATOM     19  C4  non d ame      -9.408   4.428  69.500  0.00  0.00     0.154 A 
ATOM     20  C1  non d ame      -9.420   3.561  68.360  0.00  0.00    -0.017 A 
ATOM     21  C2  non d ame      -8.356   2.658  68.579  0.00  0.00     0.077 A 
ATOM     22  H1  non d ame     -10.096   3.586  67.505  0.00  0.00     0.091 H 
ATOM     23  O1  non d ame      -7.804   2.978  69.713  0.00  0.00    -0.218 OA
ATOM     24  N1  non d ame      -8.400   4.007  70.269  0.00  0.00    -0.123 NA
BRANCH  21  25
ATOM     25  C3  non d ame      -7.934   1.522  67.657  0.00  0.00    -0.029 C 
ATOM     26  H2  non d ame      -8.467   0.612  67.934  0.00  0.00     0.036 H 
ATOM     27  H3  non d ame      -8.172   1.783  66.627  0.00  0.00     0.036 H 
ATOM     28  H4  non d ame      -6.860   1.357  67.751  0.00  0.00     0.036 H 
ENDBRANCH  21  25
ENDBRANCH  16  19
ENDBRANCH  13  15
BRANCH  13  29
ATOM     29  C8  non d ame     -11.307   7.674  72.739  0.00  0.00    -0.049 C 
ATOM     30  H7  non d ame     -12.140   7.046  73.058  0.00  0.00     0.030 H 
ATOM     31  H8  non d ame     -10.404   7.377  73.270  0.00  0.00     0.030 H 
ATOM     32  H9  non d ame     -11.534   8.717  72.961  0.00  0.00     0.030 H 
ENDBRANCH  13  29
ENDBRANCH  10  13
ENDBRANCH   7   9
BRANCH   7  33
ATOM     33  C11 non d ame     -10.193  10.448  67.432  0.00  0.00    -0.033 C 
ATOM     34  H12 non d ame     -10.853  11.114  66.879  0.00  0.00     0.042 H 
BRANCH  33  35
ATOM     35  C12 non d ame      -8.725  10.835  67.071  0.00  0.00    -0.071 C 
ATOM     36  H13 non d ame      -8.717  11.401  66.139  0.00  0.00     0.028 H 
ATOM     37  H14 non d ame      -8.303  11.444  67.869  0.00  0.00     0.028 H 
ATOM     38  H15 non d ame      -8.131   9.929  66.951  0.00  0.00     0.028 H 
ENDBRANCH  33  35
BRANCH  33  39
ATOM     39  C13 non d ame     -10.514   8.981  66.998  0.00  0.00    -0.071 C 
ATOM     40  H16 non d ame      -9.882   8.705  66.154  0.00  0.00     0.028 H 
ATOM     41  H17 non d ame     -10.322   8.305  67.832  0.00  0.00     0.028 H 
ATOM     42  H18 non d ame     -11.561   8.909  66.706  0.00  0.00     0.028 H 
ENDBRANCH  33  39
ENDBRANCH   7  33
ENDBRANCH   4   7
ENDBRANCH   1   3
BRANCH   1  43
ATOM     43  C15 non d ame     -11.538  15.296  68.882  0.00  0.00     0.240 C 
ATOM     44  O5  non d ame     -12.095  16.344  68.915  0.00  0.00    -0.271 OA
ATOM     45  N6  non d ame     -10.499  15.042  67.843  0.00  0.00    -0.355 N 
ATOM     46  H46 non d ame     -10.015  14.157  67.807  0.00  0.00     0.162 HD
BRANCH  45  47
ATOM     47  C20 non d ame     -10.177  16.095  66.856  0.00  0.00     0.013 C 
ATOM     48  H30 non d ame     -10.987  16.824  66.866  0.00  0.00     0.072 H 
BRANCH  47  49
ATOM     49  C21 non d ame     -10.057  15.475  65.483  0.00  0.00    -0.038 C 
ATOM     50  H31 non d ame     -10.941  15.800  64.935  0.00  0.00     0.036 H 
ATOM     51  H32 non d ame      -9.063  15.743  65.124  0.00  0.00     0.036 H 
BRANCH  49  52
ATOM     52  C22 non d ame     -10.108  13.932  65.516  0.00  0.00     0.018 C 
ATOM     53  H33 non d ame      -9.121  13.596  65.198  0.00  0.00     0.048 H 
ATOM     54  H34 non d ame     -10.480  13.670  66.506  0.00  0.00     0.048 H 
BRANCH  52  55
ATOM     55  C23 non d ame     -11.115  13.316  64.504  0.00  0.00     0.259 C 
ATOM     56  O7  non d ame     -12.276  13.550  64.591  0.00  0.00    -0.265 OA
BRANCH  55  57
ATOM     57  O8  non d ame     -10.633  12.456  63.479  0.00  0.00    -0.317 OA
BRANCH  57  58
ATOM     58  C29 non d ame     -10.621  11.071  63.839  0.00  0.00     0.052 C 
ATOM     59  H47 non d ame     -10.522  11.050  64.923  0.00  0.00     0.082 H 
ATOM     60  H48 non d ame     -11.499  10.635  63.363  0.00  0.00     0.082 H 
BRANCH  58  61
ATOM     61  C35 non d ame      -9.355  10.426  63.216  0.00  0.00    -0.034 A 
ATOM     62  C30 non d ame      -8.861   9.228  63.723  0.00  0.00    -0.075 A 
ATOM     63  C31 non d ame      -7.723   8.649  63.163  0.00  0.00    -0.082 A 
ATOM     64  H49 non d ame      -9.366   8.743  64.558  0.00  0.00     0.084 H 
ATOM     65  C32 non d ame      -7.076   9.275  62.094  0.00  0.00    -0.083 A 
ATOM     66  H50 non d ame      -7.341   7.709  63.560  0.00  0.00     0.083 H 
ATOM     67  C33 non d ame      -7.570  10.472  61.593  0.00  0.00    -0.082 A 
ATOM     68  H51 non d ame      -6.186   8.828  61.650  0.00  0.00     0.083 H 
ATOM     69  C34 non d ame      -8.708  11.053  62.149  0.00  0.00    -0.075 A 
ATOM     70  H52 non d ame      -7.061  10.958  60.760  0.00  0.00     0.083 H 
ATOM     71  H53 non d ame      -9.091  11.993  61.749  0.00  0.00     0.084 H 
ENDBRANCH  58  61
ENDBRANCH  57  58
ENDBRANCH  55  57
ENDBRANCH  52  55
ENDBRANCH  49  52
ENDBRANCH  47  49
BRANCH  47  72
ATOM     72  C24 non d ame      -8.856  16.766  67.230  0.00  0.00    -0.039 C 
ATOM     73  H35 non d ame      -8.413  16.127  67.994  0.00  0.00     0.036 H 
ATOM     74  H36 non d ame      -8.335  16.926  66.286  0.00  0.00     0.036 H 
BRANCH  72  75
ATOM     75  C25 non d ame      -9.088  18.205  67.893  0.00  0.00    -0.001 C 
ATOM     76  C26 non d ame     -10.437  18.901  67.261  0.00  0.00    -0.035 C 
ATOM     77  C27 non d ame     -10.126  20.151  66.840  0.00  0.00     0.085 C 
ATOM     78  H38 non d ame     -10.729  18.389  66.346  0.00  0.00     0.036 H 
ATOM     79  H39 non d ame     -11.172  19.074  68.047  0.00  0.00     0.036 H 
ATOM     80  N5  non d ame      -8.619  20.250  66.826  0.00  0.00    -0.049 N 
ATOM     81  H40 non d ame     -10.496  20.213  65.816  0.00  0.00     0.075 H 
ATOM     82  H41 non d ame     -10.519  20.821  67.603  0.00  0.00     0.075 H 
ATOM     83  C28 non d ame      -8.084  18.988  67.678  0.00  0.00     0.193 C 
ATOM     84  H42 non d ame      -8.334  20.134  65.865  0.00  0.00     0.280 HD
ATOM     85  H43 non d ame      -8.384  21.096  67.325  0.00  0.00     0.280 HD
ATOM     86  H44 non d ame      -7.715  19.121  68.695  0.00  0.00     0.129 H 
ATOM     87  H37 non d ame      -9.008  18.176  68.980  0.00  0.00     0.046 H 
BRANCH  83  88
ATOM     88  O6  non d ame      -7.030  18.328  66.974  0.00  0.00    -0.369 OA
ATOM     89  H45 non d ame      -6.507  18.979  66.498  0.00  0.00     0.212 HD
ENDBRANCH  83  88
ENDBRANCH  72  75
ENDBRANCH  47  72
ENDBRANCH  45  47
ENDBRANCH   1  43
BRANCH   1  90
ATOM     90  C16 non d ame     -11.726  14.760  71.331  0.00  0.00    -0.035 C 
ATOM     91  H21 non d ame     -10.989  14.117  71.815  0.00  0.00     0.037 H 
ATOM     92  H22 non d ame     -11.518  15.821  71.196  0.00  0.00     0.037 H 
BRANCH  90  93
ATOM     93  C17 non d ame     -13.024  14.671  72.195  0.00  0.00    -0.059 C 
ATOM     94  H23 non d ame     -13.770  15.321  71.738  0.00  0.00     0.038 H 
BRANCH  93  95
ATOM     95  C18 non d ame     -13.611  13.224  72.230  0.00  0.00    -0.073 C 
ATOM     96  H24 non d ame     -12.921  12.565  72.758  0.00  0.00     0.028 H 
ATOM     97  H25 non d ame     -14.570  13.234  72.747  0.00  0.00     0.028 H 
ATOM     98  H26 non d ame     -13.751  12.864  71.210  0.00  0.00     0.028 H 
ENDBRANCH  93  95
BRANCH  93  99
ATOM     99  C19 non d ame     -12.774  15.192  73.613  0.00  0.00    -0.073 C 
ATOM    100  H27 non d ame     -11.748  15.551  73.692  0.00  0.00     0.028 H 
ATOM    101  H28 non d ame     -13.464  16.009  73.825  0.00  0.00     0.028 H 
ATOM    102  H29 non d ame     -12.935  14.387  74.330  0.00  0.00     0.028 H 
ENDBRANCH  93  99
ENDBRANCH  90  93
ENDBRANCH   1  90
TORSDOF 26
ENDMDL
MODEL 6
REMARK VINA RESULT:      -7.4      3.383      7.696
REMARK  26 active torsions:
REMARK  status: ('A' for Active; 'I' for Inactive)
REMARK    1  A    between atoms: C2_2  and  C3_3 
REMARK    2  A    between atoms: C4_6  and  C5_7 
REMARK       I    between atoms: C5_7  and  N2_9 
REMARK    3  A    between atoms: N2_9  and  C6_10 
REMARK    4  A    between atoms: C6_10  and  C7_11 
REMARK    5  A    between atoms: C6_10  and  C8_13 
REMARK       I    between atoms: C7_11  and  N3_14 
REMARK    6  A    between atoms: N3_14  and  C9_15 
REMARK    7  A    between atoms: C9_15  and  C10_16 
REMARK    8  A    between atoms: C9_15  and  C11_18 
REMARK       I    between atoms: C10_16  and  N4_21 
REMARK    9  A    between atoms: C11_18  and  C12_19 
REMARK   10  A    between atoms: C11_18  and  C13_20 
REMARK   11  A    between atoms: N4_21  and  C14_22 
REMARK   12  A    between atoms: C14_22  and  C15_23 
REMARK   13  A    between atoms: C14_22  and  C16_25 
REMARK       I    between atoms: C15_23  and  N6_40 
REMARK   14  A    between atoms: C16_25  and  C17_26 
REMARK   15  A    between atoms: C17_26  and  C18_27 
REMARK   16  A    between atoms: C17_26  and  C19_28 
REMARK   17  A    between atoms: C20_29  and  C21_30 
REMARK   18  A    between atoms: C20_29  and  C24_33 
REMARK   19  A    between atoms: C20_29  and  N6_40 
REMARK   20  A    between atoms: C21_30  and  C22_31 
REMARK   21  A    between atoms: C22_31  and  C23_32 
REMARK   22  A    between atoms: C23_32  and  O8_43 
REMARK   23  A    between atoms: C24_33  and  C25_34 
REMARK   24  A    between atoms: C28_38  and  O6_39 
REMARK   25  A    between atoms: C29_42  and  O8_43 
REMARK   26  A    between atoms: C29_42  and  C35_49 
ROOT
ATOM      1  C14 non d ame     -12.034  14.125  69.556  0.00  0.00     0.089 C 
ATOM      2  H20 non d ame     -12.969  13.851  69.066  0.00  0.00     0.087 H 
ENDROOT
BRANCH   1   3
ATOM      3  N4  non d ame     -11.408  12.896  70.022  0.00  0.00    -0.346 N 
ATOM      4  C10 non d ame     -11.624  11.601  69.279  0.00  0.00     0.241 C 
ATOM      5  O4  non d ame     -12.310  11.573  68.310  0.00  0.00    -0.271 OA
ATOM      6  H19 non d ame     -10.830  12.941  70.850  0.00  0.00     0.163 HD
BRANCH   4   7
ATOM      7  C9  non d ame     -10.964  10.340  69.772  0.00  0.00     0.092 C 
ATOM      8  H11 non d ame     -11.101   9.551  69.032  0.00  0.00     0.088 H 
BRANCH   7   9
ATOM      9  N3  non d ame      -9.521  10.564  69.904  0.00  0.00    -0.346 N 
ATOM     10  C7  non d ame      -8.707  10.735  68.727  0.00  0.00     0.240 C 
ATOM     11  O3  non d ame      -9.195  10.696  67.664  0.00  0.00    -0.271 OA
ATOM     12  H10 non d ame      -9.085  10.599  70.815  0.00  0.00     0.163 HD
BRANCH  10  13
ATOM     13  C6  non d ame      -7.171  10.970  68.875  0.00  0.00     0.086 C 
ATOM     14  H6  non d ame      -6.612  10.674  67.988  0.00  0.00     0.086 H 
BRANCH  13  15
ATOM     15  N2  non d ame      -6.927  12.390  69.066  0.00  0.00    -0.343 N 
ATOM     16  C5  non d ame      -6.305  13.167  67.992  0.00  0.00     0.273 C 
ATOM     17  O2  non d ame      -6.001  12.638  66.979  0.00  0.00    -0.266 OA
ATOM     18  H5  non d ame      -7.188  12.833  69.936  0.00  0.00     0.163 HD
BRANCH  16  19
ATOM     19  C4  non d ame      -6.043  14.669  68.180  0.00  0.00     0.154 A 
ATOM     20  C1  non d ame      -6.105  15.412  69.401  0.00  0.00    -0.017 A 
ATOM     21  C2  non d ame      -5.783  16.737  69.037  0.00  0.00     0.077 A 
ATOM     22  H1  non d ame      -6.347  15.044  70.399  0.00  0.00     0.091 H 
ATOM     23  O1  non d ame      -5.560  16.744  67.756  0.00  0.00    -0.218 OA
ATOM     24  N1  non d ame      -5.706  15.549  67.233  0.00  0.00    -0.123 NA
BRANCH  21  25
ATOM     25  C3  non d ame      -5.707  17.936  69.974  0.00  0.00    -0.029 C 
ATOM     26  H2  non d ame      -6.283  17.730  70.876  0.00  0.00     0.036 H 
ATOM     27  H3  non d ame      -4.668  18.124  70.241  0.00  0.00     0.036 H 
ATOM     28  H4  non d ame      -6.118  18.815  69.474  0.00  0.00     0.036 H 
ENDBRANCH  21  25
ENDBRANCH  16  19
ENDBRANCH  13  15
BRANCH  13  29
ATOM     29  C8  non d ame      -6.653  10.194  70.059  0.00  0.00    -0.049 C 
ATOM     30  H7  non d ame      -7.322  10.339  70.909  0.00  0.00     0.030 H 
ATOM     31  H8  non d ame      -6.608   9.134  69.809  0.00  0.00     0.030 H 
ATOM     32  H9  non d ame      -5.656  10.549  70.318  0.00  0.00     0.030 H 
ENDBRANCH  13  29
ENDBRANCH  10  13
ENDBRANCH   7   9
BRANCH   7  33
ATOM     33  C11 non d ame     -11.557   9.953  71.158  0.00  0.00    -0.033 C 
ATOM     34  H12 non d ame     -11.264  10.725  71.868  0.00  0.00     0.042 H 
BRANCH  33  35
ATOM     35  C12 non d ame     -13.117   9.917  71.119  0.00  0.00    -0.071 C 
ATOM     36  H13 non d ame     -13.447   8.985  70.661  0.00  0.00     0.028 H 
ATOM     37  H14 non d ame     -13.507   9.981  72.134  0.00  0.00     0.028 H 
ATOM     38  H15 non d ame     -13.484  10.759  70.534  0.00  0.00     0.028 H 
ENDBRANCH  33  35
BRANCH  33  39
ATOM     39  C13 non d ame     -10.972   8.592  71.655  0.00  0.00    -0.071 C 
ATOM     40  H16 non d ame     -10.474   8.087  70.828  0.00  0.00     0.028 H 
ATOM     41  H17 non d ame     -10.253   8.775  72.455  0.00  0.00     0.028 H 
ATOM     42  H18 non d ame     -11.780   7.964  72.030  0.00  0.00     0.028 H 
ENDBRANCH  33  39
ENDBRANCH   7  33
ENDBRANCH   4   7
ENDBRANCH   1   3
BRANCH   1  43
ATOM     43  C15 non d ame     -11.052  14.844  68.588  0.00  0.00     0.240 C 
ATOM     44  O5  non d ame      -9.883  14.805  68.795  0.00  0.00    -0.271 OA
ATOM     45  N6  non d ame     -11.570  15.574  67.395  0.00  0.00    -0.355 N 
ATOM     46  H46 non d ame     -12.561  15.610  67.207  0.00  0.00     0.162 HD
BRANCH  45  47
ATOM     47  C20 non d ame     -10.624  16.252  66.484  0.00  0.00     0.013 C 
ATOM     48  H30 non d ame     -11.046  17.223  66.223  0.00  0.00     0.072 H 
BRANCH  47  49
ATOM     49  C21 non d ame     -10.444  15.416  65.237  0.00  0.00    -0.038 C 
ATOM     50  H31 non d ame     -11.421  15.391  64.756  0.00  0.00     0.036 H 
ATOM     51  H32 non d ame      -9.589  15.846  64.715  0.00  0.00     0.036 H 
BRANCH  49  52
ATOM     52  C22 non d ame     -10.072  13.950  65.548  0.00  0.00     0.018 C 
ATOM     53  H33 non d ame      -9.261  13.698  64.864  0.00  0.00     0.048 H 
ATOM     54  H34 non d ame      -9.909  13.908  66.625  0.00  0.00     0.048 H 
BRANCH  52  55
ATOM     55  C23 non d ame     -11.213  12.937  65.249  0.00  0.00     0.259 C 
ATOM     56  O7  non d ame     -12.339  13.200  65.521  0.00  0.00    -0.265 OA
BRANCH  55  57
ATOM     57  O8  non d ame     -10.895  11.684  64.657  0.00  0.00    -0.317 OA
BRANCH  57  58
ATOM     58  C29 non d ame     -10.454  11.777  63.299  0.00  0.00     0.052 C 
ATOM     59  H47 non d ame     -11.305  11.471  62.691  0.00  0.00     0.082 H 
ATOM     60  H48 non d ame     -10.040  12.779  63.192  0.00  0.00     0.082 H 
BRANCH  58  61
ATOM     61  C35 non d ame      -9.309  10.749  63.095  0.00  0.00    -0.034 A 
ATOM     62  C30 non d ame      -8.389  10.924  62.067  0.00  0.00    -0.075 A 
ATOM     63  C31 non d ame      -7.361  10.000  61.884  0.00  0.00    -0.082 A 
ATOM     64  H49 non d ame      -8.473  11.786  61.404  0.00  0.00     0.084 H 
ATOM     65  C32 non d ame      -7.258   8.896  62.734  0.00  0.00    -0.083 A 
ATOM     66  H50 non d ame      -6.640  10.143  61.079  0.00  0.00     0.083 H 
ATOM     67  C33 non d ame      -8.180   8.722  63.757  0.00  0.00    -0.082 A 
ATOM     68  H51 non d ame      -6.456   8.169  62.598  0.00  0.00     0.083 H 
ATOM     69  C34 non d ame      -9.208   9.645  63.943  0.00  0.00    -0.075 A 
ATOM     70  H52 non d ame      -8.097   7.858  64.416  0.00  0.00     0.083 H 
ATOM     71  H53 non d ame      -9.928   9.502  64.750  0.00  0.00     0.084 H 
ENDBRANCH  58  61
ENDBRANCH  57  58
ENDBRANCH  55  57
ENDBRANCH  52  55
ENDBRANCH  49  52
ENDBRANCH  47  49
BRANCH  47  72
ATOM     72  C24 non d ame      -9.276  16.429  67.179  0.00  0.00    -0.039 C 
ATOM     73  H35 non d ame      -9.351  15.863  68.107  0.00  0.00     0.036 H 
ATOM     74  H36 non d ame      -8.527  16.157  66.434  0.00  0.00     0.036 H 
BRANCH  72  75
ATOM     75  C25 non d ame      -9.010  17.958  67.578  0.00  0.00    -0.001 C 
ATOM     76  C26 non d ame     -10.420  18.803  67.526  0.00  0.00    -0.035 C 
ATOM     77  C27 non d ame     -10.234  19.914  66.774  0.00  0.00     0.085 C 
ATOM     78  H38 non d ame     -11.171  18.243  66.971  0.00  0.00     0.036 H 
ATOM     79  H39 non d ame     -10.655  19.200  68.513  0.00  0.00     0.036 H 
ATOM     80  N5  non d ame      -8.925  19.737  66.041  0.00  0.00    -0.049 N 
ATOM     81  H40 non d ame     -11.049  19.916  66.049  0.00  0.00     0.075 H 
ATOM     82  H41 non d ame     -10.134  20.733  67.484  0.00  0.00     0.075 H 
ATOM     83  C28 non d ame      -8.168  18.514  66.773  0.00  0.00     0.193 C 
ATOM     84  H42 non d ame      -9.160  19.454  65.101  0.00  0.00     0.280 HD
ATOM     85  H43 non d ame      -8.394  20.582  66.196  0.00  0.00     0.280 HD
ATOM     86  H44 non d ame      -7.338  18.702  67.452  0.00  0.00     0.129 H 
ATOM     87  H37 non d ame      -8.411  18.049  68.485  0.00  0.00     0.046 H 
BRANCH  83  88
ATOM     88  O6  non d ame      -7.665  17.593  65.802  0.00  0.00    -0.369 OA
ATOM     89  H45 non d ame      -7.315  18.080  65.052  0.00  0.00     0.212 HD
ENDBRANCH  83  88
ENDBRANCH  72  75
ENDBRANCH  47  72
ENDBRANCH  45  47
ENDBRANCH   1  43
BRANCH   1  90
ATOM     90  C16 non d ame     -12.321  15.019  70.751  0.00  0.00    -0.035 C 
ATOM     91  H21 non d ame     -11.367  15.121  71.271  0.00  0.00     0.037 H 
ATOM     92  H22 non d ame     -12.815  15.900  70.341  0.00  0.00     0.037 H 
BRANCH  90  93
ATOM     93  C17 non d ame     -13.318  14.393  71.778  0.00  0.00    -0.059 C 
ATOM     94  H23 non d ame     -13.305  13.313  71.634  0.00  0.00     0.038 H 
BRANCH  93  95
ATOM     95  C18 non d ame     -12.901  14.682  73.255  0.00  0.00    -0.073 C 
ATOM     96  H24 non d ame     -13.775  14.603  73.901  0.00  0.00     0.028 H 
ATOM     97  H25 non d ame     -12.150  13.956  73.569  0.00  0.00     0.028 H 
ATOM     98  H26 non d ame     -12.486  15.687  73.326  0.00  0.00     0.028 H 
ENDBRANCH  93  95
BRANCH  93  99
ATOM     99  C19 non d ame     -14.748  14.869  71.513  0.00  0.00    -0.073 C 
ATOM    100  H27 non d ame     -14.740  15.624  70.725  0.00  0.00     0.028 H 
ATOM    101  H28 non d ame     -15.360  14.023  71.199  0.00  0.00     0.028 H 
ATOM    102  H29 non d ame     -15.164  15.298  72.424  0.00  0.00     0.028 H 
ENDBRANCH  93  99
ENDBRANCH  90  93
ENDBRANCH   1  90
TORSDOF 26
ENDMDL
MODEL 7
REMARK VINA RESULT:      -7.3      2.574      6.967
REMARK  26 active torsions:
REMARK  status: ('A' for Active; 'I' for Inactive)
REMARK    1  A    between atoms: C2_2  and  C3_3 
REMARK    2  A    between atoms: C4_6  and  C5_7 
REMARK       I    between atoms: C5_7  and  N2_9 
REMARK    3  A    between atoms: N2_9  and  C6_10 
REMARK    4  A    between atoms: C6_10  and  C7_11 
REMARK    5  A    between atoms: C6_10  and  C8_13 
REMARK       I    between atoms: C7_11  and  N3_14 
REMARK    6  A    between atoms: N3_14  and  C9_15 
REMARK    7  A    between atoms: C9_15  and  C10_16 
REMARK    8  A    between atoms: C9_15  and  C11_18 
REMARK       I    between atoms: C10_16  and  N4_21 
REMARK    9  A    between atoms: C11_18  and  C12_19 
REMARK   10  A    between atoms: C11_18  and  C13_20 
REMARK   11  A    between atoms: N4_21  and  C14_22 
REMARK   12  A    between atoms: C14_22  and  C15_23 
REMARK   13  A    between atoms: C14_22  and  C16_25 
REMARK       I    between atoms: C15_23  and  N6_40 
REMARK   14  A    between atoms: C16_25  and  C17_26 
REMARK   15  A    between atoms: C17_26  and  C18_27 
REMARK   16  A    between atoms: C17_26  and  C19_28 
REMARK   17  A    between atoms: C20_29  and  C21_30 
REMARK   18  A    between atoms: C20_29  and  C24_33 
REMARK   19  A    between atoms: C20_29  and  N6_40 
REMARK   20  A    between atoms: C21_30  and  C22_31 
REMARK   21  A    between atoms: C22_31  and  C23_32 
REMARK   22  A    between atoms: C23_32  and  O8_43 
REMARK   23  A    between atoms: C24_33  and  C25_34 
REMARK   24  A    between atoms: C28_38  and  O6_39 
REMARK   25  A    between atoms: C29_42  and  O8_43 
REMARK   26  A    between atoms: C29_42  and  C35_49 
ROOT
ATOM      1  C14 non d ame      -8.970   9.728  65.137  0.00  0.00     0.089 C 
ATOM      2  H20 non d ame      -7.969   9.969  65.497  0.00  0.00     0.087 H 
ENDROOT
BRANCH   1   3
ATOM      3  N4  non d ame      -9.148   8.290  65.270  0.00  0.00    -0.346 N 
ATOM      4  C10 non d ame      -8.086   7.448  65.933  0.00  0.00     0.241 C 
ATOM      5  O4  non d ame      -7.095   7.952  66.350  0.00  0.00    -0.271 OA
ATOM      6  H19 non d ame      -9.997   7.879  64.906  0.00  0.00     0.163 HD
BRANCH   4   7
ATOM      7  C9  non d ame      -8.289   5.962  66.067  0.00  0.00     0.092 C 
ATOM      8  H11 non d ame      -7.317   5.467  66.081  0.00  0.00     0.088 H 
BRANCH   7   9
ATOM      9  N3  non d ame      -8.941   5.670  67.348  0.00  0.00    -0.346 N 
ATOM     10  C7  non d ame      -8.198   5.033  68.406  0.00  0.00     0.240 C 
ATOM     11  O3  non d ame      -7.075   4.745  68.245  0.00  0.00    -0.271 OA
ATOM     12  H10 non d ame      -9.910   5.912  67.501  0.00  0.00     0.163 HD
BRANCH  10  13
ATOM     13  C6  non d ame      -8.899   4.722  69.765  0.00  0.00     0.086 C 
ATOM     14  H6  non d ame      -8.249   4.894  70.624  0.00  0.00     0.086 H 
BRANCH  13  15
ATOM     15  N2  non d ame     -10.038   5.612  69.922  0.00  0.00    -0.343 N 
ATOM     16  C5  non d ame     -10.205   6.358  71.171  0.00  0.00     0.273 C 
ATOM     17  O2  non d ame      -9.419   6.234  72.044  0.00  0.00    -0.266 OA
ATOM     18  H5  non d ame     -10.707   5.710  69.171  0.00  0.00     0.163 HD
BRANCH  16  19
ATOM     19  C4  non d ame     -11.404   7.302  71.349  0.00  0.00     0.154 A 
ATOM     20  C1  non d ame     -11.366   8.716  71.570  0.00  0.00    -0.017 A 
ATOM     21  C2  non d ame     -12.721   9.105  71.664  0.00  0.00     0.077 A 
ATOM     22  H1  non d ame     -10.490   9.360  71.649  0.00  0.00     0.091 H 
ATOM     23  O1  non d ame     -13.443   8.034  71.512  0.00  0.00    -0.218 OA
ATOM     24  N1  non d ame     -12.697   6.969  71.326  0.00  0.00    -0.123 NA
BRANCH  21  25
ATOM     25  C3  non d ame     -13.238  10.518  71.898  0.00  0.00    -0.029 C 
ATOM     26  H2  non d ame     -12.415  11.160  72.212  0.00  0.00     0.036 H 
ATOM     27  H3  non d ame     -13.670  10.905  70.976  0.00  0.00     0.036 H 
ATOM     28  H4  non d ame     -14.002  10.501  72.677  0.00  0.00     0.036 H 
ENDBRANCH  21  25
ENDBRANCH  16  19
ENDBRANCH  13  15
BRANCH  13  29
ATOM     29  C8  non d ame      -9.358   3.287  69.781  0.00  0.00    -0.049 C 
ATOM     30  H7  non d ame      -8.545   2.642  69.447  0.00  0.00     0.030 H 
ATOM     31  H8  non d ame      -9.650   3.009  70.793  0.00  0.00     0.030 H 
ATOM     32  H9  non d ame     -10.211   3.171  69.112  0.00  0.00     0.030 H 
ENDBRANCH  13  29
ENDBRANCH  10  13
ENDBRANCH   7   9
BRANCH   7  33
ATOM     33  C11 non d ame      -9.188   5.455  64.902  0.00  0.00    -0.033 C 
ATOM     34  H12 non d ame      -9.950   6.211  64.721  0.00  0.00     0.042 H 
BRANCH  33  35
ATOM     35  C12 non d ame      -8.370   5.286  63.584  0.00  0.00    -0.071 C 
ATOM     36  H13 non d ame      -7.855   6.219  63.354  0.00  0.00     0.028 H 
ATOM     37  H14 non d ame      -7.638   4.489  63.710  0.00  0.00     0.028 H 
ATOM     38  H15 non d ame      -9.046   5.034  62.768  0.00  0.00     0.028 H 
ENDBRANCH  33  35
BRANCH  33  39
ATOM     39  C13 non d ame      -9.911   4.125  65.292  0.00  0.00    -0.071 C 
ATOM     40  H16 non d ame      -9.305   3.581  66.016  0.00  0.00     0.028 H 
ATOM     41  H17 non d ame     -10.882   4.355  65.732  0.00  0.00     0.028 H 
ATOM     42  H18 non d ame     -10.051   3.513  64.402  0.00  0.00     0.028 H 
ENDBRANCH  33  39
ENDBRANCH   7  33
ENDBRANCH   4   7
ENDBRANCH   1   3
BRANCH   1  43
ATOM     43  C15 non d ame     -10.079  10.441  65.962  0.00  0.00     0.240 C 
ATOM     44  O5  non d ame     -10.657   9.847  66.814  0.00  0.00    -0.271 OA
ATOM     45  N6  non d ame     -10.415  11.869  65.695  0.00  0.00    -0.355 N 
ATOM     46  H46 non d ame      -9.928  12.385  64.977  0.00  0.00     0.162 HD
BRANCH  45  47
ATOM     47  C20 non d ame     -11.471  12.534  66.489  0.00  0.00     0.013 C 
ATOM     48  H30 non d ame     -12.174  11.769  66.820  0.00  0.00     0.072 H 
BRANCH  47  49
ATOM     49  C21 non d ame     -12.184  13.548  65.624  0.00  0.00    -0.038 C 
ATOM     50  H31 non d ame     -12.902  12.980  65.034  0.00  0.00     0.036 H 
ATOM     51  H32 non d ame     -12.530  14.325  66.306  0.00  0.00     0.036 H 
BRANCH  49  52
ATOM     52  C22 non d ame     -11.242  14.241  64.615  0.00  0.00     0.018 C 
ATOM     53  H33 non d ame     -10.240  13.883  64.851  0.00  0.00     0.048 H 
ATOM     54  H34 non d ame     -11.671  14.051  63.631  0.00  0.00     0.048 H 
BRANCH  52  55
ATOM     55  C23 non d ame     -11.189  15.787  64.767  0.00  0.00     0.259 C 
ATOM     56  O7  non d ame     -11.595  16.492  63.900  0.00  0.00    -0.265 OA
BRANCH  55  57
ATOM     57  O8  non d ame     -10.637  16.353  65.949  0.00  0.00    -0.317 OA
BRANCH  57  58
ATOM     58  C29 non d ame      -9.215  16.225  66.046  0.00  0.00     0.052 C 
ATOM     59  H47 non d ame      -9.037  15.249  66.495  0.00  0.00     0.082 H 
ATOM     60  H48 non d ame      -8.831  16.444  65.050  0.00  0.00     0.082 H 
BRANCH  58  61
ATOM     61  C35 non d ame      -8.701  17.317  67.021  0.00  0.00    -0.034 A 
ATOM     62  C30 non d ame      -9.587  18.248  67.555  0.00  0.00    -0.075 A 
ATOM     63  C31 non d ame      -9.125  19.229  68.431  0.00  0.00    -0.082 A 
ATOM     64  H49 non d ame     -10.643  18.208  67.287  0.00  0.00     0.084 H 
ATOM     65  C32 non d ame      -7.770  19.279  68.770  0.00  0.00    -0.083 A 
ATOM     66  H50 non d ame      -9.822  19.955  68.850  0.00  0.00     0.083 H 
ATOM     67  C33 non d ame      -6.889  18.351  68.232  0.00  0.00    -0.082 A 
ATOM     68  H51 non d ame      -7.401  20.042  69.455  0.00  0.00     0.083 H 
ATOM     69  C34 non d ame      -7.348  17.367  67.358  0.00  0.00    -0.075 A 
ATOM     70  H52 non d ame      -5.832  18.394  68.498  0.00  0.00     0.083 H 
ATOM     71  H53 non d ame      -6.649  16.640  66.941  0.00  0.00     0.084 H 
ENDBRANCH  58  61
ENDBRANCH  57  58
ENDBRANCH  55  57
ENDBRANCH  52  55
ENDBRANCH  49  52
ENDBRANCH  47  49
BRANCH  47  72
ATOM     72  C24 non d ame     -10.847  13.237  67.692  0.00  0.00    -0.039 C 
ATOM     73  H35 non d ame     -10.321  12.457  68.243  0.00  0.00     0.036 H 
ATOM     74  H36 non d ame     -10.292  14.080  67.280  0.00  0.00     0.036 H 
BRANCH  72  75
ATOM     75  C25 non d ame     -11.961  13.839  68.672  0.00  0.00    -0.001 C 
ATOM     76  C26 non d ame     -11.673  15.437  68.933  0.00  0.00    -0.035 C 
ATOM     77  C27 non d ame     -11.673  15.668  70.268  0.00  0.00     0.085 C 
ATOM     78  H38 non d ame     -10.657  15.688  68.631  0.00  0.00     0.036 H 
ATOM     79  H39 non d ame     -12.511  16.032  68.572  0.00  0.00     0.036 H 
ATOM     80  N5  non d ame     -11.608  14.321  70.948  0.00  0.00    -0.049 N 
ATOM     81  H40 non d ame     -10.749  16.212  70.469  0.00  0.00     0.075 H 
ATOM     82  H41 non d ame     -12.636  16.129  70.484  0.00  0.00     0.075 H 
ATOM     83  C28 non d ame     -11.962  13.231  69.811  0.00  0.00     0.193 C 
ATOM     84  H42 non d ame     -10.648  14.190  71.232  0.00  0.00     0.280 HD
ATOM     85  H43 non d ame     -12.345  14.314  71.639  0.00  0.00     0.280 HD
ATOM     86  H44 non d ame     -12.943  12.758  69.783  0.00  0.00     0.129 H 
ATOM     87  H37 non d ame     -12.971  13.561  68.369  0.00  0.00     0.046 H 
BRANCH  83  88
ATOM     88  O6  non d ame     -11.021  12.157  69.848  0.00  0.00    -0.369 OA
ATOM     89  H45 non d ame     -10.479  12.179  69.055  0.00  0.00     0.212 HD
ENDBRANCH  83  88
ENDBRANCH  72  75
ENDBRANCH  47  72
ENDBRANCH  45  47
ENDBRANCH   1  43
BRANCH   1  90
ATOM     90  C16 non d ame      -9.097  10.110  63.671  0.00  0.00    -0.035 C 
ATOM     91  H21 non d ame      -9.919   9.504  63.285  0.00  0.00     0.037 H 
ATOM     92  H22 non d ame      -9.171  11.197  63.662  0.00  0.00     0.037 H 
BRANCH  90  93
ATOM     93  C17 non d ame      -7.842   9.745  62.817  0.00  0.00    -0.059 C 
ATOM     94  H23 non d ame      -7.854   8.667  62.655  0.00  0.00     0.038 H 
BRANCH  93  95
ATOM     95  C18 non d ame      -7.860  10.437  61.417  0.00  0.00    -0.073 C 
ATOM     96  H24 non d ame      -8.599  11.239  61.418  0.00  0.00     0.028 H 
ATOM     97  H25 non d ame      -6.875  10.852  61.204  0.00  0.00     0.028 H 
ATOM     98  H26 non d ame      -8.119   9.704  60.653  0.00  0.00     0.028 H 
ENDBRANCH  93  95
BRANCH  93  99
ATOM     99  C19 non d ame      -6.551  10.076  63.572  0.00  0.00    -0.073 C 
ATOM    100  H27 non d ame      -5.708   9.592  63.077  0.00  0.00     0.028 H 
ATOM    101  H28 non d ame      -6.401  11.156  63.576  0.00  0.00     0.028 H 
ATOM    102  H29 non d ame      -6.627   9.716  64.598  0.00  0.00     0.028 H 
ENDBRANCH  93  99
ENDBRANCH  90  93
ENDBRANCH   1  90
TORSDOF 26
ENDMDL
MODEL 8
REMARK VINA RESULT:      -7.3      3.073     10.537
REMARK  26 active torsions:
REMARK  status: ('A' for Active; 'I' for Inactive)
REMARK    1  A    between atoms: C2_2  and  C3_3 
REMARK    2  A    between atoms: C4_6  and  C5_7 
REMARK       I    between atoms: C5_7  and  N2_9 
REMARK    3  A    between atoms: N2_9  and  C6_10 
REMARK    4  A    between atoms: C6_10  and  C7_11 
REMARK    5  A    between atoms: C6_10  and  C8_13 
REMARK       I    between atoms: C7_11  and  N3_14 
REMARK    6  A    between atoms: N3_14  and  C9_15 
REMARK    7  A    between atoms: C9_15  and  C10_16 
REMARK    8  A    between atoms: C9_15  and  C11_18 
REMARK       I    between atoms: C10_16  and  N4_21 
REMARK    9  A    between atoms: C11_18  and  C12_19 
REMARK   10  A    between atoms: C11_18  and  C13_20 
REMARK   11  A    between atoms: N4_21  and  C14_22 
REMARK   12  A    between atoms: C14_22  and  C15_23 
REMARK   13  A    between atoms: C14_22  and  C16_25 
REMARK       I    between atoms: C15_23  and  N6_40 
REMARK   14  A    between atoms: C16_25  and  C17_26 
REMARK   15  A    between atoms: C17_26  and  C18_27 
REMARK   16  A    between atoms: C17_26  and  C19_28 
REMARK   17  A    between atoms: C20_29  and  C21_30 
REMARK   18  A    between atoms: C20_29  and  C24_33 
REMARK   19  A    between atoms: C20_29  and  N6_40 
REMARK   20  A    between atoms: C21_30  and  C22_31 
REMARK   21  A    between atoms: C22_31  and  C23_32 
REMARK   22  A    between atoms: C23_32  and  O8_43 
REMARK   23  A    between atoms: C24_33  and  C25_34 
REMARK   24  A    between atoms: C28_38  and  O6_39 
REMARK   25  A    between atoms: C29_42  and  O8_43 
REMARK   26  A    between atoms: C29_42  and  C35_49 
ROOT
ATOM      1  C14 non d ame      -8.646   5.660  65.262  0.00  0.00     0.089 C 
ATOM      2  H20 non d ame      -8.988   5.297  64.292  0.00  0.00     0.087 H 
ENDROOT
BRANCH   1   3
ATOM      3  N4  non d ame      -8.416   7.091  65.138  0.00  0.00    -0.346 N 
ATOM      4  C10 non d ame      -8.212   7.715  63.779  0.00  0.00     0.241 C 
ATOM      5  O4  non d ame      -8.234   7.043  62.801  0.00  0.00    -0.271 OA
ATOM      6  H19 non d ame      -8.398   7.646  65.982  0.00  0.00     0.163 HD
BRANCH   4   7
ATOM      7  C9  non d ame      -7.980   9.199  63.668  0.00  0.00     0.092 C 
ATOM      8  H11 non d ame      -7.982   9.485  62.616  0.00  0.00     0.088 H 
BRANCH   7   9
ATOM      9  N3  non d ame      -9.086   9.916  64.312  0.00  0.00    -0.346 N 
ATOM     10  C7  non d ame      -9.793  10.945  63.592  0.00  0.00     0.240 C 
ATOM     11  O3  non d ame      -9.487  11.212  62.494  0.00  0.00    -0.271 OA
ATOM     12  H10 non d ame      -9.361   9.698  65.259  0.00  0.00     0.163 HD
BRANCH  10  13
ATOM     13  C6  non d ame     -10.967  11.707  64.285  0.00  0.00     0.086 C 
ATOM     14  H6  non d ame     -11.267  11.251  65.228  0.00  0.00     0.086 H 
BRANCH  13  15
ATOM     15  N2  non d ame     -10.533  13.059  64.595  0.00  0.00    -0.343 N 
ATOM     16  C5  non d ame     -11.175  13.790  65.689  0.00  0.00     0.273 C 
ATOM     17  O2  non d ame     -12.042  13.283  66.311  0.00  0.00    -0.266 OA
ATOM     18  H5  non d ame      -9.793  13.486  64.056  0.00  0.00     0.163 HD
BRANCH  16  19
ATOM     19  C4  non d ame     -10.726  15.220  66.028  0.00  0.00     0.154 A 
ATOM     20  C1  non d ame     -10.760  15.857  67.310  0.00  0.00    -0.017 A 
ATOM     21  C2  non d ame     -10.242  17.151  67.086  0.00  0.00     0.077 A 
ATOM     22  H1  non d ame     -11.107  15.442  68.256  0.00  0.00     0.091 H 
ATOM     23  O1  non d ame      -9.945  17.237  65.822  0.00  0.00    -0.218 OA
ATOM     24  N1  non d ame     -10.219  16.123  65.184  0.00  0.00    -0.123 NA
BRANCH  21  25
ATOM     25  C3  non d ame     -10.061  18.243  68.133  0.00  0.00    -0.029 C 
ATOM     26  H2  non d ame      -9.134  18.782  67.940  0.00  0.00     0.036 H 
ATOM     27  H3  non d ame     -10.901  18.935  68.084  0.00  0.00     0.036 H 
ATOM     28  H4  non d ame     -10.019  17.792  69.125  0.00  0.00     0.036 H 
ENDBRANCH  21  25
ENDBRANCH  16  19
ENDBRANCH  13  15
BRANCH  13  29
ATOM     29  C8  non d ame     -12.158  11.746  63.362  0.00  0.00    -0.049 C 
ATOM     30  H7  non d ame     -12.487  12.778  63.238  0.00  0.00     0.030 H 
ATOM     31  H8  non d ame     -11.882  11.333  62.392  0.00  0.00     0.030 H 
ATOM     32  H9  non d ame     -12.969  11.156  63.790  0.00  0.00     0.030 H 
ENDBRANCH  13  29
ENDBRANCH  10  13
ENDBRANCH   7   9
BRANCH   7  33
ATOM     33  C11 non d ame      -6.644   9.570  64.374  0.00  0.00    -0.033 C 
ATOM     34  H12 non d ame      -6.123   8.640  64.601  0.00  0.00     0.042 H 
BRANCH  33  35
ATOM     35  C12 non d ame      -5.719  10.408  63.437  0.00  0.00    -0.071 C 
ATOM     36  H13 non d ame      -4.677  10.241  63.710  0.00  0.00     0.028 H 
ATOM     37  H14 non d ame      -5.878  10.104  62.403  0.00  0.00     0.028 H 
ATOM     38  H15 non d ame      -5.958  11.466  63.546  0.00  0.00     0.028 H 
ENDBRANCH  33  35
BRANCH  33  39
ATOM     39  C13 non d ame      -6.911  10.316  65.720  0.00  0.00    -0.071 C 
ATOM     40  H16 non d ame      -5.961  10.560  66.195  0.00  0.00     0.028 H 
ATOM     41  H17 non d ame      -7.465  11.235  65.523  0.00  0.00     0.028 H 
ATOM     42  H18 non d ame      -7.494   9.676  66.382  0.00  0.00     0.028 H 
ENDBRANCH  33  39
ENDBRANCH   7  33
ENDBRANCH   4   7
ENDBRANCH   1   3
BRANCH   1  43
ATOM     43  C15 non d ame      -9.697   5.424  66.383  0.00  0.00     0.240 C 
ATOM     44  O5  non d ame     -10.745   4.932  66.117  0.00  0.00    -0.271 OA
ATOM     45  N6  non d ame      -9.393   5.803  67.793  0.00  0.00    -0.355 N 
ATOM     46  H46 non d ame      -8.504   6.218  68.032  0.00  0.00     0.162 HD
BRANCH  45  47
ATOM     47  C20 non d ame     -10.403   5.572  68.848  0.00  0.00     0.013 C 
ATOM     48  H30 non d ame     -11.089   4.802  68.493  0.00  0.00     0.072 H 
BRANCH  47  49
ATOM     49  C21 non d ame     -11.159   6.855  69.108  0.00  0.00    -0.038 C 
ATOM     50  H31 non d ame     -11.942   6.894  68.352  0.00  0.00     0.036 H 
ATOM     51  H32 non d ame     -11.422   6.833  70.166  0.00  0.00     0.036 H 
BRANCH  49  52
ATOM     52  C22 non d ame     -10.289   8.114  68.901  0.00  0.00     0.018 C 
ATOM     53  H33 non d ame     -10.448   8.733  69.785  0.00  0.00     0.048 H 
ATOM     54  H34 non d ame      -9.290   7.748  68.666  0.00  0.00     0.048 H 
BRANCH  52  55
ATOM     55  C23 non d ame     -10.723   8.983  67.688  0.00  0.00     0.259 C 
ATOM     56  O7  non d ame     -10.420   8.670  66.582  0.00  0.00    -0.265 OA
BRANCH  55  57
ATOM     57  O8  non d ame     -11.476  10.169  67.914  0.00  0.00    -0.317 OA
BRANCH  57  58
ATOM     58  C29 non d ame     -10.767  11.180  68.636  0.00  0.00     0.052 C 
ATOM     59  H47 non d ame      -9.894  10.683  69.058  0.00  0.00     0.082 H 
ATOM     60  H48 non d ame     -10.639  12.006  67.937  0.00  0.00     0.082 H 
BRANCH  58  61
ATOM     61  C35 non d ame     -11.672  11.659  69.802  0.00  0.00    -0.034 A 
ATOM     62  C30 non d ame     -11.898  13.018  69.996  0.00  0.00    -0.075 A 
ATOM     63  C31 non d ame     -12.711  13.448  71.044  0.00  0.00    -0.082 A 
ATOM     64  H49 non d ame     -11.439  13.746  69.327  0.00  0.00     0.084 H 
ATOM     65  C32 non d ame     -13.296  12.513  71.902  0.00  0.00    -0.083 A 
ATOM     66  H50 non d ame     -12.889  14.514  71.191  0.00  0.00     0.083 H 
ATOM     67  C33 non d ame     -13.065  11.158  71.707  0.00  0.00    -0.082 A 
ATOM     68  H51 non d ame     -13.934  12.841  72.723  0.00  0.00     0.083 H 
ATOM     69  C34 non d ame     -12.255  10.724  70.659  0.00  0.00    -0.075 A 
ATOM     70  H52 non d ame     -13.522  10.431  72.380  0.00  0.00     0.083 H 
ATOM     71  H53 non d ame     -12.079   9.658  70.512  0.00  0.00     0.084 H 
ENDBRANCH  58  61
ENDBRANCH  57  58
ENDBRANCH  55  57
ENDBRANCH  52  55
ENDBRANCH  49  52
ENDBRANCH  47  49
BRANCH  47  72
ATOM     72  C24 non d ame      -9.713   5.117  70.132  0.00  0.00    -0.039 C 
ATOM     73  H35 non d ame     -10.040   5.817  70.901  0.00  0.00     0.036 H 
ATOM     74  H36 non d ame      -9.947   4.056  70.227  0.00  0.00     0.036 H 
BRANCH  72  75
ATOM     75  C25 non d ame      -8.119   5.242  70.026  0.00  0.00    -0.001 C 
ATOM     76  C26 non d ame      -7.437   3.746  70.066  0.00  0.00    -0.035 C 
ATOM     77  C27 non d ame      -6.465   3.735  71.010  0.00  0.00     0.085 C 
ATOM     78  H38 non d ame      -8.157   3.016  70.434  0.00  0.00     0.036 H 
ATOM     79  H39 non d ame      -6.894   3.557  69.140  0.00  0.00     0.036 H 
ATOM     80  N5  non d ame      -6.643   4.984  71.841  0.00  0.00    -0.049 N 
ATOM     81  H40 non d ame      -6.672   2.863  71.631  0.00  0.00     0.075 H 
ATOM     82  H41 non d ame      -5.527   3.805  70.462  0.00  0.00     0.075 H 
ATOM     83  C28 non d ame      -7.638   5.938  71.000  0.00  0.00     0.193 C 
ATOM     84  H42 non d ame      -7.111   4.699  72.688  0.00  0.00     0.280 HD
ATOM     85  H43 non d ame      -5.737   5.428  71.888  0.00  0.00     0.280 HD
ATOM     86  H44 non d ame      -7.252   6.800  70.457  0.00  0.00     0.129 H 
ATOM     87  H37 non d ame      -7.811   5.906  69.218  0.00  0.00     0.046 H 
BRANCH  83  88
ATOM     88  O6  non d ame      -8.664   6.453  71.852  0.00  0.00    -0.369 OA
ATOM     89  H45 non d ame      -9.500   6.452  71.381  0.00  0.00     0.212 HD
ENDBRANCH  83  88
ENDBRANCH  72  75
ENDBRANCH  47  72
ENDBRANCH  45  47
ENDBRANCH   1  43
BRANCH   1  90
ATOM     90  C16 non d ame      -7.339   4.978  65.635  0.00  0.00    -0.035 C 
ATOM     91  H21 non d ame      -7.458   4.676  66.676  0.00  0.00     0.037 H 
ATOM     92  H22 non d ame      -7.177   4.225  64.864  0.00  0.00     0.037 H 
BRANCH  90  93
ATOM     93  C17 non d ame      -6.101   5.929  65.590  0.00  0.00    -0.059 C 
ATOM     94  H23 non d ame      -6.467   6.940  65.409  0.00  0.00     0.038 H 
BRANCH  93  95
ATOM     95  C18 non d ame      -5.317   5.941  66.942  0.00  0.00    -0.073 C 
ATOM     96  H24 non d ame      -4.406   6.529  66.828  0.00  0.00     0.028 H 
ATOM     97  H25 non d ame      -5.941   6.384  67.718  0.00  0.00     0.028 H 
ATOM     98  H26 non d ame      -5.059   4.919  67.220  0.00  0.00     0.028 H 
ENDBRANCH  93  95
BRANCH  93  99
ATOM     99  C19 non d ame      -5.174   5.567  64.426  0.00  0.00    -0.073 C 
ATOM    100  H27 non d ame      -4.868   4.525  64.517  0.00  0.00     0.028 H 
ATOM    101  H28 non d ame      -5.703   5.711  63.484  0.00  0.00     0.028 H 
ATOM    102  H29 non d ame      -4.293   6.209  64.449  0.00  0.00     0.028 H 
ENDBRANCH  93  99
ENDBRANCH  90  93
ENDBRANCH   1  90
TORSDOF 26
ENDMDL
MODEL 9
REMARK VINA RESULT:      -7.2      2.588      6.042
REMARK  26 active torsions:
REMARK  status: ('A' for Active; 'I' for Inactive)
REMARK    1  A    between atoms: C2_2  and  C3_3 
REMARK    2  A    between atoms: C4_6  and  C5_7 
REMARK       I    between atoms: C5_7  and  N2_9 
REMARK    3  A    between atoms: N2_9  and  C6_10 
REMARK    4  A    between atoms: C6_10  and  C7_11 
REMARK    5  A    between atoms: C6_10  and  C8_13 
REMARK       I    between atoms: C7_11  and  N3_14 
REMARK    6  A    between atoms: N3_14  and  C9_15 
REMARK    7  A    between atoms: C9_15  and  C10_16 
REMARK    8  A    between atoms: C9_15  and  C11_18 
REMARK       I    between atoms: C10_16  and  N4_21 
REMARK    9  A    between atoms: C11_18  and  C12_19 
REMARK   10  A    between atoms: C11_18  and  C13_20 
REMARK   11  A    between atoms: N4_21  and  C14_22 
REMARK   12  A    between atoms: C14_22  and  C15_23 
REMARK   13  A    between atoms: C14_22  and  C16_25 
REMARK       I    between atoms: C15_23  and  N6_40 
REMARK   14  A    between atoms: C16_25  and  C17_26 
REMARK   15  A    between atoms: C17_26  and  C18_27 
REMARK   16  A    between atoms: C17_26  and  C19_28 
REMARK   17  A    between atoms: C20_29  and  C21_30 
REMARK   18  A    between atoms: C20_29  and  C24_33 
REMARK   19  A    between atoms: C20_29  and  N6_40 
REMARK   20  A    between atoms: C21_30  and  C22_31 
REMARK   21  A    between atoms: C22_31  and  C23_32 
REMARK   22  A    between atoms: C23_32  and  O8_43 
REMARK   23  A    between atoms: C24_33  and  C25_34 
REMARK   24  A    between atoms: C28_38  and  O6_39 
REMARK   25  A    between atoms: C29_42  and  O8_43 
REMARK   26  A    between atoms: C29_42  and  C35_49 
ROOT
ATOM      1  C14 non d ame     -10.516   9.356  68.785  0.00  0.00     0.089 C 
ATOM      2  H20 non d ame     -11.395   8.720  68.905  0.00  0.00     0.087 H 
ENDROOT
BRANCH   1   3
ATOM      3  N4  non d ame      -9.615   8.687  67.858  0.00  0.00    -0.346 N 
ATOM      4  C10 non d ame     -10.107   7.541  67.010  0.00  0.00     0.241 C 
ATOM      5  O4  non d ame     -11.233   7.173  67.093  0.00  0.00    -0.271 OA
ATOM      6  H19 non d ame      -8.660   9.013  67.804  0.00  0.00     0.163 HD
BRANCH   4   7
ATOM      7  C9  non d ame      -9.162   6.863  66.053  0.00  0.00     0.092 C 
ATOM      8  H11 non d ame      -9.617   5.941  65.691  0.00  0.00     0.088 H 
BRANCH   7   9
ATOM      9  N3  non d ame      -8.946   7.725  64.886  0.00  0.00    -0.346 N 
ATOM     10  C7  non d ame      -8.013   8.821  64.963  0.00  0.00     0.240 C 
ATOM     11  O3  non d ame      -7.427   9.026  65.955  0.00  0.00    -0.271 OA
ATOM     12  H10 non d ame      -9.445   7.561  64.023  0.00  0.00     0.163 HD
BRANCH  10  13
ATOM     13  C6  non d ame      -7.790   9.736  63.718  0.00  0.00     0.086 C 
ATOM     14  H6  non d ame      -8.256   9.342  62.815  0.00  0.00     0.086 H 
BRANCH  13  15
ATOM     15  N2  non d ame      -8.403  11.031  63.970  0.00  0.00    -0.343 N 
ATOM     16  C5  non d ame      -9.851  11.185  63.821  0.00  0.00     0.273 C 
ATOM     17  O2  non d ame     -10.515  10.263  63.496  0.00  0.00    -0.266 OA
ATOM     18  H5  non d ame      -7.827  11.814  64.245  0.00  0.00     0.163 HD
BRANCH  16  19
ATOM     19  C4  non d ame     -10.511  12.548  64.085  0.00  0.00     0.154 A 
ATOM     20  C1  non d ame      -9.977  13.634  64.848  0.00  0.00    -0.017 A 
ATOM     21  C2  non d ame     -10.963  14.643  64.783  0.00  0.00     0.077 A 
ATOM     22  H1  non d ame      -9.020  13.684  65.368  0.00  0.00     0.091 H 
ATOM     23  O1  non d ame     -11.944  14.181  64.064  0.00  0.00    -0.218 OA
ATOM     24  N1  non d ame     -11.703  12.960  63.645  0.00  0.00    -0.123 NA
BRANCH  21  25
ATOM     25  C3  non d ame     -10.890  16.018  65.434  0.00  0.00    -0.029 C 
ATOM     26  H2  non d ame     -11.082  15.925  66.503  0.00  0.00     0.036 H 
ATOM     27  H3  non d ame      -9.899  16.442  65.278  0.00  0.00     0.036 H 
ATOM     28  H4  non d ame     -11.639  16.673  64.986  0.00  0.00     0.036 H 
ENDBRANCH  21  25
ENDBRANCH  16  19
ENDBRANCH  13  15
BRANCH  13  29
ATOM     29  C8  non d ame      -6.313   9.904  63.472  0.00  0.00    -0.049 C 
ATOM     30  H7  non d ame      -5.759   9.195  64.089  0.00  0.00     0.030 H 
ATOM     31  H8  non d ame      -6.095   9.717  62.421  0.00  0.00     0.030 H 
ATOM     32  H9  non d ame      -6.014  10.920  63.731  0.00  0.00     0.030 H 
ENDBRANCH  13  29
ENDBRANCH  10  13
ENDBRANCH   7   9
BRANCH   7  33
ATOM     33  C11 non d ame      -7.801   6.605  66.763  0.00  0.00    -0.033 C 
ATOM     34  H12 non d ame      -7.264   7.551  66.798  0.00  0.00     0.042 H 
BRANCH  33  35
ATOM     35  C12 non d ame      -8.010   6.129  68.235  0.00  0.00    -0.071 C 
ATOM     36  H13 non d ame      -9.076   6.096  68.459  0.00  0.00     0.028 H 
ATOM     37  H14 non d ame      -7.581   5.136  68.360  0.00  0.00     0.028 H 
ATOM     38  H15 non d ame      -7.518   6.825  68.913  0.00  0.00     0.028 H 
ENDBRANCH  33  35
BRANCH  33  39
ATOM     39  C13 non d ame      -6.934   5.585  65.957  0.00  0.00    -0.071 C 
ATOM     40  H16 non d ame      -6.284   6.125  65.270  0.00  0.00     0.028 H 
ATOM     41  H17 non d ame      -6.326   4.999  66.647  0.00  0.00     0.028 H 
ATOM     42  H18 non d ame      -7.587   4.919  65.393  0.00  0.00     0.028 H 
ENDBRANCH  33  39
ENDBRANCH   7  33
ENDBRANCH   4   7
ENDBRANCH   1   3
BRANCH   1  43
ATOM     43  C15 non d ame     -10.877  10.752  68.202  0.00  0.00     0.240 C 
ATOM     44  O5  non d ame     -11.584  10.831  67.251  0.00  0.00    -0.271 OA
ATOM     45  N6  non d ame     -10.347  11.993  68.837  0.00  0.00    -0.355 N 
ATOM     46  H46 non d ame      -9.748  11.938  69.648  0.00  0.00     0.162 HD
BRANCH  45  47
ATOM     47  C20 non d ame     -10.699  13.313  68.271  0.00  0.00     0.013 C 
ATOM     48  H30 non d ame     -10.767  13.208  67.189  0.00  0.00     0.072 H 
BRANCH  47  49
ATOM     49  C21 non d ame      -9.622  14.313  68.626  0.00  0.00    -0.038 C 
ATOM     50  H31 non d ame      -9.838  15.201  68.032  0.00  0.00     0.036 H 
ATOM     51  H32 non d ame      -9.622  14.372  69.715  0.00  0.00     0.036 H 
BRANCH  49  52
ATOM     52  C22 non d ame      -8.210  13.844  68.214  0.00  0.00     0.018 C 
ATOM     53  H33 non d ame      -8.026  12.929  68.778  0.00  0.00     0.048 H 
ATOM     54  H34 non d ame      -8.213  13.820  67.125  0.00  0.00     0.048 H 
BRANCH  52  55
ATOM     55  C23 non d ame      -7.079  14.830  68.619  0.00  0.00     0.259 C 
ATOM     56  O7  non d ame      -6.288  14.530  69.453  0.00  0.00    -0.265 OA
BRANCH  55  57
ATOM     57  O8  non d ame      -7.008  16.104  67.990  0.00  0.00    -0.317 OA
BRANCH  57  58
ATOM     58  C29 non d ame      -7.397  17.192  68.834  0.00  0.00     0.052 C 
ATOM     59  H47 non d ame      -7.949  16.742  69.659  0.00  0.00     0.082 H 
ATOM     60  H48 non d ame      -6.484  17.753  69.031  0.00  0.00     0.082 H 
BRANCH  58  61
ATOM     61  C35 non d ame      -8.367  18.098  68.030  0.00  0.00    -0.034 A 
ATOM     62  C30 non d ame      -7.901  18.822  66.937  0.00  0.00    -0.075 A 
ATOM     63  C31 non d ame      -8.772  19.636  66.215  0.00  0.00    -0.082 A 
ATOM     64  H49 non d ame      -6.852  18.751  66.646  0.00  0.00     0.084 H 
ATOM     65  C32 non d ame     -10.115  19.727  66.591  0.00  0.00    -0.083 A 
ATOM     66  H50 non d ame      -8.404  20.199  65.357  0.00  0.00     0.083 H 
ATOM     67  C33 non d ame     -10.575  19.006  67.685  0.00  0.00    -0.082 A 
ATOM     68  H51 non d ame     -10.803  20.360  66.032  0.00  0.00     0.083 H 
ATOM     69  C34 non d ame      -9.708  18.189  68.408  0.00  0.00    -0.075 A 
ATOM     70  H52 non d ame     -11.623  19.081  67.977  0.00  0.00     0.083 H 
ATOM     71  H53 non d ame     -10.078  17.625  69.265  0.00  0.00     0.084 H 
ENDBRANCH  58  61
ENDBRANCH  57  58
ENDBRANCH  55  57
ENDBRANCH  52  55
ENDBRANCH  49  52
ENDBRANCH  47  49
BRANCH  47  72
ATOM     72  C24 non d ame     -12.037  13.779  68.844  0.00  0.00    -0.039 C 
ATOM     73  H35 non d ame     -12.332  14.632  68.232  0.00  0.00     0.036 H 
ATOM     74  H36 non d ame     -12.665  12.888  68.875  0.00  0.00     0.036 H 
BRANCH  72  75
ATOM     75  C25 non d ame     -11.887  14.305  70.349  0.00  0.00    -0.001 C 
ATOM     76  C26 non d ame     -12.757  13.348  71.365  0.00  0.00    -0.035 C 
ATOM     77  C27 non d ame     -13.552  14.134  72.131  0.00  0.00     0.085 C 
ATOM     78  H38 non d ame     -13.465  12.745  70.798  0.00  0.00     0.036 H 
ATOM     79  H39 non d ame     -12.095  12.873  72.090  0.00  0.00     0.036 H 
ATOM     80  N5  non d ame     -13.546  15.509  71.506  0.00  0.00    -0.049 N 
ATOM     81  H40 non d ame     -14.552  13.709  72.044  0.00  0.00     0.075 H 
ATOM     82  H41 non d ame     -13.063  14.184  73.103  0.00  0.00     0.075 H 
ATOM     83  C28 non d ame     -12.311  15.519  70.466  0.00  0.00     0.193 C 
ATOM     84  H42 non d ame     -14.406  15.590  70.985  0.00  0.00     0.280 HD
ATOM     85  H43 non d ame     -13.343  16.160  72.251  0.00  0.00     0.280 HD
ATOM     86  H44 non d ame     -11.382  16.031  70.713  0.00  0.00     0.129 H 
ATOM     87  H37 non d ame     -10.848  14.497  70.617  0.00  0.00     0.046 H 
BRANCH  83  88
ATOM     88  O6  non d ame     -12.726  16.066  69.213  0.00  0.00    -0.369 OA
ATOM     89  H45 non d ame     -13.657  15.876  69.074  0.00  0.00     0.212 HD
ENDBRANCH  83  88
ENDBRANCH  72  75
ENDBRANCH  47  72
ENDBRANCH  45  47
ENDBRANCH   1  43
BRANCH   1  90
ATOM     90  C16 non d ame      -9.816   9.525  70.123  0.00  0.00    -0.035 C 
ATOM     91  H21 non d ame      -8.925   8.899  70.063  0.00  0.00     0.037 H 
ATOM     92  H22 non d ame      -9.717  10.602  70.263  0.00  0.00     0.037 H 
BRANCH  90  93
ATOM     93  C17 non d ame     -10.646   8.997  71.336  0.00  0.00    -0.059 C 
ATOM     94  H23 non d ame     -10.133   9.306  72.247  0.00  0.00     0.038 H 
BRANCH  93  95
ATOM     95  C18 non d ame     -12.086   9.600  71.373  0.00  0.00    -0.073 C 
ATOM     96  H24 non d ame     -12.819   8.796  71.304  0.00  0.00     0.028 H 
ATOM     97  H25 non d ame     -12.229  10.142  72.308  0.00  0.00     0.028 H 
ATOM     98  H26 non d ame     -12.215  10.284  70.534  0.00  0.00     0.028 H 
ENDBRANCH  93  95
BRANCH  93  99
ATOM     99  C19 non d ame     -10.696   7.467  71.340  0.00  0.00    -0.073 C 
ATOM    100  H27 non d ame     -10.774   7.103  70.315  0.00  0.00     0.028 H 
ATOM    101  H28 non d ame      -9.786   7.076  71.797  0.00  0.00     0.028 H 
ATOM    102  H29 non d ame     -11.561   7.133  71.912  0.00  0.00     0.028 H 
ENDBRANCH  93  99
ENDBRANCH  90  93
ENDBRANCH   1  90
TORSDOF 26
ENDMDL
MODEL 10
REMARK VINA RESULT:      -7.1      3.397     11.374
REMARK  26 active torsions:
REMARK  status: ('A' for Active; 'I' for Inactive)
REMARK    1  A    between atoms: C2_2  and  C3_3 
REMARK    2  A    between atoms: C4_6  and  C5_7 
REMARK       I    between atoms: C5_7  and  N2_9 
REMARK    3  A    between atoms: N2_9  and  C6_10 
REMARK    4  A    between atoms: C6_10  and  C7_11 
REMARK    5  A    between atoms: C6_10  and  C8_13 
REMARK       I    between atoms: C7_11  and  N3_14 
REMARK    6  A    between atoms: N3_14  and  C9_15 
REMARK    7  A    between atoms: C9_15  and  C10_16 
REMARK    8  A    between atoms: C9_15  and  C11_18 
REMARK       I    between atoms: C10_16  and  N4_21 
REMARK    9  A    between atoms: C11_18  and  C12_19 
REMARK   10  A    between atoms: C11_18  and  C13_20 
REMARK   11  A    between atoms: N4_21  and  C14_22 
REMARK   12  A    between atoms: C14_22  and  C15_23 
REMARK   13  A    between atoms: C14_22  and  C16_25 
REMARK       I    between atoms: C15_23  and  N6_40 
REMARK   14  A    between atoms: C16_25  and  C17_26 
REMARK   15  A    between atoms: C17_26  and  C18_27 
REMARK   16  A    between atoms: C17_26  and  C19_28 
REMARK   17  A    between atoms: C20_29  and  C21_30 
REMARK   18  A    between atoms: C20_29  and  C24_33 
REMARK   19  A    between atoms: C20_29  and  N6_40 
REMARK   20  A    between atoms: C21_30  and  C22_31 
REMARK   21  A    between atoms: C22_31  and  C23_32 
REMARK   22  A    between atoms: C23_32  and  O8_43 
REMARK   23  A    between atoms: C24_33  and  C25_34 
REMARK   24  A    between atoms: C28_38  and  O6_39 
REMARK   25  A    between atoms: C29_42  and  O8_43 
REMARK   26  A    between atoms: C29_42  and  C35_49 
ROOT
ATOM      1  C14 non d ame      -8.137   6.026  63.327  0.00  0.00     0.089 C 
ATOM      2  H20 non d ame      -8.587   6.195  62.348  0.00  0.00     0.087 H 
ENDROOT
BRANCH   1   3
ATOM      3  N4  non d ame      -8.029   7.317  63.989  0.00  0.00    -0.346 N 
ATOM      4  C10 non d ame      -8.103   8.593  63.188  0.00  0.00     0.241 C 
ATOM      5  O4  non d ame      -8.246   8.554  62.010  0.00  0.00    -0.271 OA
ATOM      6  H19 non d ame      -7.905   7.329  64.992  0.00  0.00     0.163 HD
BRANCH   4   7
ATOM      7  C9  non d ame      -7.995   9.921  63.890  0.00  0.00     0.092 C 
ATOM      8  H11 non d ame      -7.721  10.689  63.166  0.00  0.00     0.088 H 
BRANCH   7   9
ATOM      9  N3  non d ame      -9.304  10.291  64.438  0.00  0.00    -0.346 N 
ATOM     10  C7  non d ame     -10.115  11.275  63.766  0.00  0.00     0.240 C 
ATOM     11  O3  non d ame      -9.731  11.780  62.782  0.00  0.00    -0.271 OA
ATOM     12  H10 non d ame      -9.648   9.865  65.287  0.00  0.00     0.163 HD
BRANCH  10  13
ATOM     13  C6  non d ame     -11.505  11.667  64.356  0.00  0.00     0.086 C 
ATOM     14  H6  non d ame     -11.901  10.916  65.039  0.00  0.00     0.086 H 
BRANCH  13  15
ATOM     15  N2  non d ame     -11.362  12.893  65.125  0.00  0.00    -0.343 N 
ATOM     16  C5  non d ame     -11.640  12.880  66.563  0.00  0.00     0.273 C 
ATOM     17  O2  non d ame     -11.981  11.879  67.091  0.00  0.00    -0.266 OA
ATOM     18  H5  non d ame     -11.072  13.744  64.665  0.00  0.00     0.163 HD
BRANCH  16  19
ATOM     19  C4  non d ame     -11.491  14.167  67.388  0.00  0.00     0.154 A 
ATOM     20  C1  non d ame     -10.803  15.364  67.008  0.00  0.00    -0.017 A 
ATOM     21  C2  non d ame     -10.961  16.238  68.105  0.00  0.00     0.077 A 
ATOM     22  H1  non d ame     -10.271  15.566  66.077  0.00  0.00     0.091 H 
ATOM     23  O1  non d ame     -11.661  15.610  69.004  0.00  0.00    -0.218 OA
ATOM     24  N1  non d ame     -11.982  14.399  68.608  0.00  0.00    -0.123 NA
BRANCH  21  25
ATOM     25  C3  non d ame     -10.414  17.656  68.214  0.00  0.00    -0.029 C 
ATOM     26  H2  non d ame     -10.966  18.311  67.540  0.00  0.00     0.036 H 
ATOM     27  H3  non d ame     -10.526  18.011  69.238  0.00  0.00     0.036 H 
ATOM     28  H4  non d ame      -9.358  17.660  67.942  0.00  0.00     0.036 H 
ENDBRANCH  21  25
ENDBRANCH  16  19
ENDBRANCH  13  15
BRANCH  13  29
ATOM     29  C8  non d ame     -12.491  11.874  63.235  0.00  0.00    -0.049 C 
ATOM     30  H7  non d ame     -12.109  12.633  62.551  0.00  0.00     0.030 H 
ATOM     31  H8  non d ame     -12.631  10.938  62.696  0.00  0.00     0.030 H 
ATOM     32  H9  non d ame     -13.445  12.204  63.646  0.00  0.00     0.030 H 
ENDBRANCH  13  29
ENDBRANCH  10  13
ENDBRANCH   7   9
BRANCH   7  33
ATOM     33  C11 non d ame      -6.961   9.813  65.048  0.00  0.00    -0.033 C 
ATOM     34  H12 non d ame      -6.890   8.763  65.328  0.00  0.00     0.042 H 
BRANCH  33  35
ATOM     35  C12 non d ame      -5.543  10.274  64.589  0.00  0.00    -0.071 C 
ATOM     36  H13 non d ame      -4.842   9.444  64.684  0.00  0.00     0.028 H 
ATOM     37  H14 non d ame      -5.585  10.597  63.550  0.00  0.00     0.028 H 
ATOM     38  H15 non d ame      -5.212  11.102  65.215  0.00  0.00     0.028 H 
ENDBRANCH  33  35
BRANCH  33  39
ATOM     39  C13 non d ame      -7.439  10.615  66.301  0.00  0.00    -0.071 C 
ATOM     40  H16 non d ame      -7.520   9.943  67.154  0.00  0.00     0.028 H 
ATOM     41  H17 non d ame      -6.718  11.402  66.525  0.00  0.00     0.028 H 
ATOM     42  H18 non d ame      -8.412  11.063  66.097  0.00  0.00     0.028 H 
ENDBRANCH  33  39
ENDBRANCH   7  33
ENDBRANCH   4   7
ENDBRANCH   1   3
BRANCH   1  43
ATOM     43  C15 non d ame      -8.998   5.084  64.216  0.00  0.00     0.240 C 
ATOM     44  O5  non d ame      -9.724   4.292  63.709  0.00  0.00    -0.271 OA
ATOM     45  N6  non d ame      -8.910   5.164  65.703  0.00  0.00    -0.355 N 
ATOM     46  H46 non d ame      -8.294   5.829  66.145  0.00  0.00     0.162 HD
BRANCH  45  47
ATOM     47  C20 non d ame      -9.735   4.261  66.534  0.00  0.00     0.013 C 
ATOM     48  H30 non d ame     -10.484   3.801  65.889  0.00  0.00     0.072 H 
BRANCH  47  49
ATOM     49  C21 non d ame     -10.414   5.064  67.621  0.00  0.00    -0.038 C 
ATOM     50  H31 non d ame     -11.133   4.386  68.081  0.00  0.00     0.036 H 
ATOM     51  H32 non d ame      -9.609   5.492  68.218  0.00  0.00     0.036 H 
BRANCH  49  52
ATOM     52  C22 non d ame     -11.228   6.254  67.067  0.00  0.00     0.018 C 
ATOM     53  H33 non d ame     -11.355   6.055  66.003  0.00  0.00     0.048 H 
ATOM     54  H34 non d ame     -12.101   6.341  67.713  0.00  0.00     0.048 H 
BRANCH  52  55
ATOM     55  C23 non d ame     -10.487   7.617  67.162  0.00  0.00     0.259 C 
ATOM     56  O7  non d ame      -9.806   7.996  66.265  0.00  0.00    -0.265 OA
BRANCH  55  57
ATOM     57  O8  non d ame     -10.621   8.402  68.340  0.00  0.00    -0.317 OA
BRANCH  57  58
ATOM     58  C29 non d ame      -9.481   8.353  69.204  0.00  0.00     0.052 C 
ATOM     59  H47 non d ame      -8.844   7.564  68.807  0.00  0.00     0.082 H 
ATOM     60  H48 non d ame      -9.111   9.377  69.260  0.00  0.00     0.082 H 
BRANCH  58  61
ATOM     61  C35 non d ame      -9.968   7.930  70.615  0.00  0.00    -0.034 A 
ATOM     62  C30 non d ame      -9.306   8.390  71.749  0.00  0.00    -0.075 A 
ATOM     63  C31 non d ame      -9.744   8.008  73.017  0.00  0.00    -0.082 A 
ATOM     64  H49 non d ame      -8.444   9.050  71.644  0.00  0.00     0.084 H 
ATOM     65  C32 non d ame     -10.846   7.160  73.148  0.00  0.00    -0.083 A 
ATOM     66  H50 non d ame      -9.224   8.374  73.903  0.00  0.00     0.083 H 
ATOM     67  C33 non d ame     -11.502   6.700  72.014  0.00  0.00    -0.082 A 
ATOM     68  H51 non d ame     -11.195   6.858  74.135  0.00  0.00     0.083 H 
ATOM     69  C34 non d ame     -11.069   7.081  70.745  0.00  0.00    -0.075 A 
ATOM     70  H52 non d ame     -12.361   6.037  72.120  0.00  0.00     0.083 H 
ATOM     71  H53 non d ame     -11.591   6.716  69.859  0.00  0.00     0.084 H 
ENDBRANCH  58  61
ENDBRANCH  57  58
ENDBRANCH  55  57
ENDBRANCH  52  55
ENDBRANCH  49  52
ENDBRANCH  47  49
BRANCH  47  72
ATOM     72  C24 non d ame      -8.849   3.191  67.168  0.00  0.00    -0.039 C 
ATOM     73  H35 non d ame      -9.418   2.810  68.017  0.00  0.00     0.036 H 
ATOM     74  H36 non d ame      -8.575   2.521  66.353  0.00  0.00     0.036 H 
BRANCH  72  75
ATOM     75  C25 non d ame      -7.491   3.811  67.748  0.00  0.00    -0.001 C 
ATOM     76  C26 non d ame      -6.200   3.166  66.958  0.00  0.00    -0.035 C 
ATOM     77  C27 non d ame      -5.315   2.705  67.874  0.00  0.00     0.085 C 
ATOM     78  H38 non d ame      -6.501   2.269  66.420  0.00  0.00     0.036 H 
ATOM     79  H39 non d ame      -5.647   3.951  66.443  0.00  0.00     0.036 H 
ATOM     80  N5  non d ame      -6.030   2.679  69.204  0.00  0.00    -0.049 N 
ATOM     81  H40 non d ame      -5.090   1.681  67.572  0.00  0.00     0.075 H 
ATOM     82  H41 non d ame      -4.521   3.449  67.913  0.00  0.00     0.075 H 
ATOM     83  C28 non d ame      -7.365   3.566  69.009  0.00  0.00     0.193 C 
ATOM     84  H42 non d ame      -6.301   1.720  69.365  0.00  0.00     0.280 HD
ATOM     85  H43 non d ame      -5.426   3.149  69.863  0.00  0.00     0.280 HD
ATOM     86  H44 non d ame      -7.424   4.575  69.415  0.00  0.00     0.129 H 
ATOM     87  H37 non d ame      -7.533   4.898  67.824  0.00  0.00     0.046 H 
BRANCH  83  88
ATOM     88  O6  non d ame      -8.498   2.875  69.539  0.00  0.00    -0.369 OA
ATOM     89  H45 non d ame      -8.271   1.953  69.684  0.00  0.00     0.212 HD
ENDBRANCH  83  88
ENDBRANCH  72  75
ENDBRANCH  47  72
ENDBRANCH  45  47
ENDBRANCH   1  43
BRANCH   1  90
ATOM     90  C16 non d ame      -6.745   5.438  63.158  0.00  0.00    -0.035 C 
ATOM     91  H21 non d ame      -6.777   4.471  63.663  0.00  0.00     0.037 H 
ATOM     92  H22 non d ame      -6.539   5.487  62.089  0.00  0.00     0.037 H 
BRANCH  90  93
ATOM     93  C17 non d ame      -5.624   6.267  63.863  0.00  0.00    -0.059 C 
ATOM     94  H23 non d ame      -6.109   6.956  64.554  0.00  0.00     0.038 H 
BRANCH  93  95
ATOM     95  C18 non d ame      -4.656   5.364  64.691  0.00  0.00    -0.073 C 
ATOM     96  H24 non d ame      -4.356   4.505  64.090  0.00  0.00     0.028 H 
ATOM     97  H25 non d ame      -3.773   5.939  64.970  0.00  0.00     0.028 H 
ATOM     98  H26 non d ame      -5.163   5.018  65.592  0.00  0.00     0.028 H 
ENDBRANCH  93  95
BRANCH  93  99
ATOM     99  C19 non d ame      -4.848   7.111  62.849  0.00  0.00    -0.073 C 
ATOM    100  H27 non d ame      -5.498   7.356  62.007  0.00  0.00     0.028 H 
ATOM    101  H28 non d ame      -4.510   8.031  63.327  0.00  0.00     0.028 H 
ATOM    102  H29 non d ame      -3.985   6.549  62.492  0.00  0.00     0.028 H 
ENDBRANCH  93  99
ENDBRANCH  90  93
ENDBRANCH   1  90
TORSDOF 26
ENDMDL
MODEL 11
REMARK VINA RESULT:      -7.1      3.432      7.445
REMARK  26 active torsions:
REMARK  status: ('A' for Active; 'I' for Inactive)
REMARK    1  A    between atoms: C2_2  and  C3_3 
REMARK    2  A    between atoms: C4_6  and  C5_7 
REMARK       I    between atoms: C5_7  and  N2_9 
REMARK    3  A    between atoms: N2_9  and  C6_10 
REMARK    4  A    between atoms: C6_10  and  C7_11 
REMARK    5  A    between atoms: C6_10  and  C8_13 
REMARK       I    between atoms: C7_11  and  N3_14 
REMARK    6  A    between atoms: N3_14  and  C9_15 
REMARK    7  A    between atoms: C9_15  and  C10_16 
REMARK    8  A    between atoms: C9_15  and  C11_18 
REMARK       I    between atoms: C10_16  and  N4_21 
REMARK    9  A    between atoms: C11_18  and  C12_19 
REMARK   10  A    between atoms: C11_18  and  C13_20 
REMARK   11  A    between atoms: N4_21  and  C14_22 
REMARK   12  A    between atoms: C14_22  and  C15_23 
REMARK   13  A    between atoms: C14_22  and  C16_25 
REMARK       I    between atoms: C15_23  and  N6_40 
REMARK   14  A    between atoms: C16_25  and  C17_26 
REMARK   15  A    between atoms: C17_26  and  C18_27 
REMARK   16  A    between atoms: C17_26  and  C19_28 
REMARK   17  A    between atoms: C20_29  and  C21_30 
REMARK   18  A    between atoms: C20_29  and  C24_33 
REMARK   19  A    between atoms: C20_29  and  N6_40 
REMARK   20  A    between atoms: C21_30  and  C22_31 
REMARK   21  A    between atoms: C22_31  and  C23_32 
REMARK   22  A    between atoms: C23_32  and  O8_43 
REMARK   23  A    between atoms: C24_33  and  C25_34 
REMARK   24  A    between atoms: C28_38  and  O6_39 
REMARK   25  A    between atoms: C29_42  and  O8_43 
REMARK   26  A    between atoms: C29_42  and  C35_49 
ROOT
ATOM      1  C14 non d ame     -12.233  13.927  70.238  0.00  0.00     0.089 C 
ATOM      2  H20 non d ame     -13.248  13.544  70.130  0.00  0.00     0.087 H 
ENDROOT
BRANCH   1   3
ATOM      3  N4  non d ame     -11.335  12.782  70.274  0.00  0.00    -0.346 N 
ATOM      4  C10 non d ame     -11.763  11.459  69.690  0.00  0.00     0.241 C 
ATOM      5  O4  non d ame     -12.838  11.339  69.199  0.00  0.00    -0.271 OA
ATOM      6  H19 non d ame     -10.426  12.903  70.698  0.00  0.00     0.163 HD
BRANCH   4   7
ATOM      7  C9  non d ame     -10.819  10.286  69.730  0.00  0.00     0.092 C 
ATOM      8  H11 non d ame     -10.170  10.377  70.601  0.00  0.00     0.088 H 
BRANCH   7   9
ATOM      9  N3  non d ame     -11.586   9.046  69.891  0.00  0.00    -0.346 N 
ATOM     10  C7  non d ame     -12.198   8.737  71.159  0.00  0.00     0.240 C 
ATOM     11  O3  non d ame     -12.084   9.472  72.062  0.00  0.00    -0.271 OA
ATOM     12  H10 non d ame     -11.693   8.401  69.121  0.00  0.00     0.163 HD
BRANCH  10  13
ATOM     13  C6  non d ame     -13.010   7.414  71.324  0.00  0.00     0.086 C 
ATOM     14  H6  non d ame     -12.907   6.746  70.468  0.00  0.00     0.086 H 
BRANCH  13  15
ATOM     15  N2  non d ame     -12.504   6.691  72.479  0.00  0.00    -0.343 N 
ATOM     16  C5  non d ame     -11.322   5.838  72.336  0.00  0.00     0.273 C 
ATOM     17  O2  non d ame     -10.788   5.738  71.286  0.00  0.00    -0.266 OA
ATOM     18  H5  non d ame     -12.968   6.781  73.372  0.00  0.00     0.163 HD
BRANCH  16  19
ATOM     19  C4  non d ame     -10.776   5.070  73.549  0.00  0.00     0.154 A 
ATOM     20  C1  non d ame     -10.717   3.650  73.718  0.00  0.00    -0.017 A 
ATOM     21  C2  non d ame     -10.135   3.460  74.991  0.00  0.00     0.077 A 
ATOM     22  H1  non d ame     -11.046   2.876  73.024  0.00  0.00     0.091 H 
ATOM     23  O1  non d ame      -9.889   4.638  75.485  0.00  0.00    -0.218 OA
ATOM     24  N1  non d ame     -10.254   5.593  74.662  0.00  0.00    -0.123 NA
BRANCH  21  25
ATOM     25  C3  non d ame      -9.846   2.122  75.659  0.00  0.00    -0.029 C 
ATOM     26  H2  non d ame      -9.648   2.280  76.719  0.00  0.00     0.036 H 
ATOM     27  H3  non d ame     -10.707   1.465  75.544  0.00  0.00     0.036 H 
ATOM     28  H4  non d ame      -8.974   1.662  75.192  0.00  0.00     0.036 H 
ENDBRANCH  21  25
ENDBRANCH  16  19
ENDBRANCH  13  15
BRANCH  13  29
ATOM     29  C8  non d ame     -14.470   7.738  71.516  0.00  0.00    -0.049 C 
ATOM     30  H7  non d ame     -15.075   7.050  70.925  0.00  0.00     0.030 H 
ATOM     31  H8  non d ame     -14.729   7.637  72.570  0.00  0.00     0.030 H 
ATOM     32  H9  non d ame     -14.661   8.761  71.191  0.00  0.00     0.030 H 
ENDBRANCH  13  29
ENDBRANCH  10  13
ENDBRANCH   7   9
BRANCH   7  33
ATOM     33  C11 non d ame     -10.011  10.225  68.402  0.00  0.00    -0.033 C 
ATOM     34  H12 non d ame      -9.136   9.601  68.577  0.00  0.00     0.042 H 
BRANCH  33  35
ATOM     35  C12 non d ame     -10.842   9.558  67.261  0.00  0.00    -0.071 C 
ATOM     36  H13 non d ame     -10.790   8.474  67.359  0.00  0.00     0.028 H 
ATOM     37  H14 non d ame     -11.880   9.880  67.332  0.00  0.00     0.028 H 
ATOM     38  H15 non d ame     -10.434   9.855  66.295  0.00  0.00     0.028 H 
ENDBRANCH  33  35
BRANCH  33  39
ATOM     39  C13 non d ame      -9.515  11.647  67.983  0.00  0.00    -0.071 C 
ATOM     40  H16 non d ame     -10.257  12.114  67.336  0.00  0.00     0.028 H 
ATOM     41  H17 non d ame      -9.373  12.259  68.874  0.00  0.00     0.028 H 
ATOM     42  H18 non d ame      -8.570  11.559  67.448  0.00  0.00     0.028 H 
ENDBRANCH  33  39
ENDBRANCH   7  33
ENDBRANCH   4   7
ENDBRANCH   1   3
BRANCH   1  43
ATOM     43  C15 non d ame     -11.820  14.842  69.051  0.00  0.00     0.240 C 
ATOM     44  O5  non d ame     -12.210  15.963  69.005  0.00  0.00    -0.271 OA
ATOM     45  N6  non d ame     -10.930  14.322  67.973  0.00  0.00    -0.355 N 
ATOM     46  H46 non d ame     -10.590  13.372  68.003  0.00  0.00     0.162 HD
BRANCH  45  47
ATOM     47  C20 non d ame     -10.547  15.205  66.851  0.00  0.00     0.013 C 
ATOM     48  H30 non d ame     -11.445  15.713  66.500  0.00  0.00     0.072 H 
BRANCH  47  49
ATOM     49  C21 non d ame      -9.958  14.370  65.736  0.00  0.00    -0.038 C 
ATOM     50  H31 non d ame      -9.276  15.031  65.202  0.00  0.00     0.036 H 
ATOM     51  H32 non d ame      -9.580  13.466  66.213  0.00  0.00     0.036 H 
BRANCH  49  52
ATOM     52  C22 non d ame     -11.016  13.912  64.708  0.00  0.00     0.018 C 
ATOM     53  H33 non d ame     -11.867  14.580  64.842  0.00  0.00     0.048 H 
ATOM     54  H34 non d ame     -10.500  13.874  63.750  0.00  0.00     0.048 H 
BRANCH  52  55
ATOM     55  C23 non d ame     -11.555  12.476  64.962  0.00  0.00     0.259 C 
ATOM     56  O7  non d ame     -12.289  12.260  65.871  0.00  0.00    -0.265 OA
BRANCH  55  57
ATOM     57  O8  non d ame     -11.151  11.418  64.101  0.00  0.00    -0.317 OA
BRANCH  57  58
ATOM     58  C29 non d ame     -10.097  11.772  63.200  0.00  0.00     0.052 C 
ATOM     59  H47 non d ame     -10.543  11.762  62.207  0.00  0.00     0.082 H 
ATOM     60  H48 non d ame      -9.668  12.692  63.596  0.00  0.00     0.082 H 
BRANCH  58  61
ATOM     61  C35 non d ame      -9.018  10.659  63.266  0.00  0.00    -0.034 A 
ATOM     62  C30 non d ame      -8.342  10.273  62.113  0.00  0.00    -0.075 A 
ATOM     63  C31 non d ame      -7.372   9.273  62.173  0.00  0.00    -0.082 A 
ATOM     64  H49 non d ame      -8.572  10.755  61.162  0.00  0.00     0.084 H 
ATOM     65  C32 non d ame      -7.082   8.656  63.393  0.00  0.00    -0.083 A 
ATOM     66  H50 non d ame      -6.843   8.976  61.268  0.00  0.00     0.083 H 
ATOM     67  C33 non d ame      -7.761   9.041  64.541  0.00  0.00    -0.082 A 
ATOM     68  H51 non d ame      -6.324   7.874  63.448  0.00  0.00     0.083 H 
ATOM     69  C34 non d ame      -8.729  10.042  64.485  0.00  0.00    -0.075 A 
ATOM     70  H52 non d ame      -7.532   8.556  65.490  0.00  0.00     0.083 H 
ATOM     71  H53 non d ame      -9.257  10.340  65.392  0.00  0.00     0.084 H 
ENDBRANCH  58  61
ENDBRANCH  57  58
ENDBRANCH  55  57
ENDBRANCH  52  55
ENDBRANCH  49  52
ENDBRANCH  47  49
BRANCH  47  72
ATOM     72  C24 non d ame      -9.513  16.223  67.326  0.00  0.00    -0.039 C 
ATOM     73  H35 non d ame      -9.891  16.598  68.277  0.00  0.00     0.036 H 
ATOM     74  H36 non d ame      -8.555  15.704  67.288  0.00  0.00     0.036 H 
BRANCH  72  75
ATOM     75  C25 non d ame      -9.411  17.475  66.331  0.00  0.00    -0.001 C 
ATOM     76  C26 non d ame      -7.847  17.968  66.210  0.00  0.00    -0.035 C 
ATOM     77  C27 non d ame      -7.791  19.302  66.439  0.00  0.00     0.085 C 
ATOM     78  H38 non d ame      -7.257  17.544  67.022  0.00  0.00     0.036 H 
ATOM     79  H39 non d ame      -7.504  17.872  65.180  0.00  0.00     0.036 H 
ATOM     80  N5  non d ame      -9.122  19.704  67.028  0.00  0.00    -0.049 N 
ATOM     81  H40 non d ame      -7.015  19.435  67.193  0.00  0.00     0.075 H 
ATOM     82  H41 non d ame      -7.683  19.761  65.458  0.00  0.00     0.075 H 
ATOM     83  C28 non d ame     -10.122  18.467  66.752  0.00  0.00     0.193 C 
ATOM     84  H42 non d ame      -8.981  19.789  68.023  0.00  0.00     0.280 HD
ATOM     85  H43 non d ame      -9.442  20.500  66.494  0.00  0.00     0.280 HD
ATOM     86  H44 non d ame     -10.871  18.524  65.963  0.00  0.00     0.129 H 
ATOM     87  H37 non d ame      -9.952  17.306  65.400  0.00  0.00     0.046 H 
BRANCH  83  88
ATOM     88  O6  non d ame     -10.846  18.144  67.942  0.00  0.00    -0.369 OA
ATOM     89  H45 non d ame     -10.261  17.701  68.561  0.00  0.00     0.212 HD
ENDBRANCH  83  88
ENDBRANCH  72  75
ENDBRANCH  47  72
ENDBRANCH  45  47
ENDBRANCH   1  43
BRANCH   1  90
ATOM     90  C16 non d ame     -12.109  14.695  71.544  0.00  0.00    -0.035 C 
ATOM     91  H21 non d ame     -11.879  13.944  72.301  0.00  0.00     0.037 H 
ATOM     92  H22 non d ame     -11.399  15.497  71.340  0.00  0.00     0.037 H 
BRANCH  90  93
ATOM     93  C17 non d ame     -13.436  15.384  71.995  0.00  0.00    -0.059 C 
ATOM     94  H23 non d ame     -13.591  16.253  71.357  0.00  0.00     0.038 H 
BRANCH  93  95
ATOM     95  C18 non d ame     -14.673  14.445  71.829  0.00  0.00    -0.073 C 
ATOM     96  H24 non d ame     -15.388  14.903  71.146  0.00  0.00     0.028 H 
ATOM     97  H25 non d ame     -14.349  13.485  71.426  0.00  0.00     0.028 H 
ATOM     98  H26 non d ame     -15.145  14.290  72.800  0.00  0.00     0.028 H 
ENDBRANCH  93  95
BRANCH  93  99
ATOM     99  C19 non d ame     -13.327  15.891  73.436  0.00  0.00    -0.073 C 
ATOM    100  H27 non d ame     -13.672  15.116  74.121  0.00  0.00     0.028 H 
ATOM    101  H28 non d ame     -12.287  16.135  73.656  0.00  0.00     0.028 H 
ATOM    102  H29 non d ame     -13.942  16.783  73.554  0.00  0.00     0.028 H 
ENDBRANCH  93  99
ENDBRANCH  90  93
ENDBRANCH   1  90
TORSDOF 26
ENDMDL
MODEL 12
REMARK VINA RESULT:      -7.1      3.471      6.160
REMARK  26 active torsions:
REMARK  status: ('A' for Active; 'I' for Inactive)
REMARK    1  A    between atoms: C2_2  and  C3_3 
REMARK    2  A    between atoms: C4_6  and  C5_7 
REMARK       I    between atoms: C5_7  and  N2_9 
REMARK    3  A    between atoms: N2_9  and  C6_10 
REMARK    4  A    between atoms: C6_10  and  C7_11 
REMARK    5  A    between atoms: C6_10  and  C8_13 
REMARK       I    between atoms: C7_11  and  N3_14 
REMARK    6  A    between atoms: N3_14  and  C9_15 
REMARK    7  A    between atoms: C9_15  and  C10_16 
REMARK    8  A    between atoms: C9_15  and  C11_18 
REMARK       I    between atoms: C10_16  and  N4_21 
REMARK    9  A    between atoms: C11_18  and  C12_19 
REMARK   10  A    between atoms: C11_18  and  C13_20 
REMARK   11  A    between atoms: N4_21  and  C14_22 
REMARK   12  A    between atoms: C14_22  and  C15_23 
REMARK   13  A    between atoms: C14_22  and  C16_25 
REMARK       I    between atoms: C15_23  and  N6_40 
REMARK   14  A    between atoms: C16_25  and  C17_26 
REMARK   15  A    between atoms: C17_26  and  C18_27 
REMARK   16  A    between atoms: C17_26  and  C19_28 
REMARK   17  A    between atoms: C20_29  and  C21_30 
REMARK   18  A    between atoms: C20_29  and  C24_33 
REMARK   19  A    between atoms: C20_29  and  N6_40 
REMARK   20  A    between atoms: C21_30  and  C22_31 
REMARK   21  A    between atoms: C22_31  and  C23_32 
REMARK   22  A    between atoms: C23_32  and  O8_43 
REMARK   23  A    between atoms: C24_33  and  C25_34 
REMARK   24  A    between atoms: C28_38  and  O6_39 
REMARK   25  A    between atoms: C29_42  and  O8_43 
REMARK   26  A    between atoms: C29_42  and  C35_49 
ROOT
ATOM      1  C14 non d ame      -9.608   9.049  68.064  0.00  0.00     0.089 C 
ATOM      2  H20 non d ame     -10.658   8.917  68.324  0.00  0.00     0.087 H 
ENDROOT
BRANCH   1   3
ATOM      3  N4  non d ame      -9.114   7.771  67.575  0.00  0.00    -0.346 N 
ATOM      4  C10 non d ame     -10.069   6.756  66.996  0.00  0.00     0.241 C 
ATOM      5  O4  non d ame     -11.231   6.991  66.938  0.00  0.00    -0.271 OA
ATOM      6  H19 non d ame      -8.122   7.589  67.635  0.00  0.00     0.163 HD
BRANCH   4   7
ATOM      7  C9  non d ame      -9.540   5.440  66.490  0.00  0.00     0.092 C 
ATOM      8  H11 non d ame     -10.047   5.183  65.560  0.00  0.00     0.088 H 
BRANCH   7   9
ATOM      9  N3  non d ame      -8.112   5.572  66.181  0.00  0.00    -0.346 N 
ATOM     10  C7  non d ame      -7.669   5.575  64.810  0.00  0.00     0.240 C 
ATOM     11  O3  non d ame      -8.446   5.471  63.940  0.00  0.00    -0.271 OA
ATOM     12  H10 non d ame      -7.430   5.662  66.921  0.00  0.00     0.163 HD
BRANCH  10  13
ATOM     13  C6  non d ame      -6.148   5.714  64.488  0.00  0.00     0.086 C 
ATOM     14  H6  non d ame      -5.918   5.516  63.441  0.00  0.00     0.086 H 
BRANCH  13  15
ATOM     15  N2  non d ame      -5.732   7.081  64.754  0.00  0.00    -0.343 N 
ATOM     16  C5  non d ame      -4.853   7.767  63.804  0.00  0.00     0.273 C 
ATOM     17  O2  non d ame      -4.483   7.208  62.831  0.00  0.00    -0.266 OA
ATOM     18  H5  non d ame      -6.051   7.550  65.590  0.00  0.00     0.163 HD
BRANCH  16  19
ATOM     19  C4  non d ame      -4.408   9.212  64.073  0.00  0.00     0.154 A 
ATOM     20  C1  non d ame      -3.514   9.666  65.095  0.00  0.00    -0.017 A 
ATOM     21  C2  non d ame      -3.436  11.065  64.914  0.00  0.00     0.077 A 
ATOM     22  H1  non d ame      -3.000   9.072  65.851  0.00  0.00     0.091 H 
ATOM     23  O1  non d ame      -4.197  11.368  63.904  0.00  0.00    -0.218 OA
ATOM     24  N1  non d ame      -4.775  10.303  63.396  0.00  0.00    -0.123 NA
BRANCH  21  25
ATOM     25  C3  non d ame      -2.611  12.037  65.748  0.00  0.00    -0.029 C 
ATOM     26  H2  non d ame      -1.739  11.521  66.150  0.00  0.00     0.036 H 
ATOM     27  H3  non d ame      -2.285  12.867  65.122  0.00  0.00     0.036 H 
ATOM     28  H4  non d ame      -3.219  12.418  66.569  0.00  0.00     0.036 H 
ENDBRANCH  21  25
ENDBRANCH  16  19
ENDBRANCH  13  15
BRANCH  13  29
ATOM     29  C8  non d ame      -5.360   4.758  65.348  0.00  0.00    -0.049 C 
ATOM     30  H7  non d ame      -4.568   4.304  64.753  0.00  0.00     0.030 H 
ATOM     31  H8  non d ame      -4.922   5.299  66.186  0.00  0.00     0.030 H 
ATOM     32  H9  non d ame      -6.023   3.979  65.725  0.00  0.00     0.030 H 
ENDBRANCH  13  29
ENDBRANCH  10  13
ENDBRANCH   7   9
BRANCH   7  33
ATOM     33  C11 non d ame      -9.733   4.348  67.583  0.00  0.00    -0.033 C 
ATOM     34  H12 non d ame     -10.790   4.327  67.843  0.00  0.00     0.042 H 
BRANCH  33  35
ATOM     35  C12 non d ame      -9.351   2.933  67.046  0.00  0.00    -0.071 C 
ATOM     36  H13 non d ame      -8.364   2.658  67.418  0.00  0.00     0.028 H 
ATOM     37  H14 non d ame     -10.085   2.205  67.390  0.00  0.00     0.028 H 
ATOM     38  H15 non d ame      -9.337   2.951  65.957  0.00  0.00     0.028 H 
ENDBRANCH  33  35
BRANCH  33  39
ATOM     39  C13 non d ame      -8.925   4.701  68.873  0.00  0.00    -0.071 C 
ATOM     40  H16 non d ame      -7.961   5.125  68.594  0.00  0.00     0.028 H 
ATOM     41  H17 non d ame      -9.484   5.427  69.465  0.00  0.00     0.028 H 
ATOM     42  H18 non d ame      -8.768   3.797  69.462  0.00  0.00     0.028 H 
ENDBRANCH  33  39
ENDBRANCH   7  33
ENDBRANCH   4   7
ENDBRANCH   1   3
BRANCH   1  43
ATOM     43  C15 non d ame      -9.408  10.115  66.949  0.00  0.00     0.240 C 
ATOM     44  O5  non d ame      -8.363  10.670  66.842  0.00  0.00    -0.271 OA
ATOM     45  N6  non d ame     -10.519  10.438  66.008  0.00  0.00    -0.355 N 
ATOM     46  H46 non d ame     -11.410   9.970  66.087  0.00  0.00     0.162 HD
BRANCH  45  47
ATOM     47  C20 non d ame     -10.313  11.454  64.953  0.00  0.00     0.013 C 
ATOM     48  H30 non d ame      -9.441  12.049  65.225  0.00  0.00     0.072 H 
BRANCH  47  49
ATOM     49  C21 non d ame     -11.535  12.340  64.866  0.00  0.00    -0.038 C 
ATOM     50  H31 non d ame     -11.643  12.590  63.811  0.00  0.00     0.036 H 
ATOM     51  H32 non d ame     -12.329  11.798  65.382  0.00  0.00     0.036 H 
BRANCH  49  52
ATOM     52  C22 non d ame     -11.360  13.678  65.616  0.00  0.00     0.018 C 
ATOM     53  H33 non d ame     -12.112  13.676  66.406  0.00  0.00     0.048 H 
ATOM     54  H34 non d ame     -10.302  13.736  65.873  0.00  0.00     0.048 H 
BRANCH  52  55
ATOM     55  C23 non d ame     -11.659  14.929  64.744  0.00  0.00     0.259 C 
ATOM     56  O7  non d ame     -12.545  14.914  63.952  0.00  0.00    -0.265 OA
BRANCH  55  57
ATOM     57  O8  non d ame     -10.853  16.091  64.893  0.00  0.00    -0.317 OA
BRANCH  57  58
ATOM     58  C29 non d ame     -10.047  16.093  66.076  0.00  0.00     0.052 C 
ATOM     59  H47 non d ame     -10.560  15.442  66.782  0.00  0.00     0.082 H 
ATOM     60  H48 non d ame      -9.038  15.850  65.745  0.00  0.00     0.082 H 
BRANCH  58  61
ATOM     61  C35 non d ame     -10.042  17.535  66.649  0.00  0.00    -0.034 A 
ATOM     62  C30 non d ame      -9.605  17.767  67.949  0.00  0.00    -0.075 A 
ATOM     63  C31 non d ame      -9.601  19.063  68.464  0.00  0.00    -0.082 A 
ATOM     64  H49 non d ame      -9.265  16.934  68.565  0.00  0.00     0.084 H 
ATOM     65  C32 non d ame     -10.040  20.128  67.674  0.00  0.00    -0.083 A 
ATOM     66  H50 non d ame      -9.255  19.241  69.482  0.00  0.00     0.083 H 
ATOM     67  C33 non d ame     -10.479  19.892  66.378  0.00  0.00    -0.082 A 
ATOM     68  H51 non d ame     -10.039  21.145  68.068  0.00  0.00     0.083 H 
ATOM     69  C34 non d ame     -10.482  18.599  65.859  0.00  0.00    -0.075 A 
ATOM     70  H52 non d ame     -10.822  20.726  65.765  0.00  0.00     0.083 H 
ATOM     71  H53 non d ame     -10.827  18.421  64.839  0.00  0.00     0.084 H 
ENDBRANCH  58  61
ENDBRANCH  57  58
ENDBRANCH  55  57
ENDBRANCH  52  55
ENDBRANCH  49  52
ENDBRANCH  47  49
BRANCH  47  72
ATOM     72  C24 non d ame     -10.086  10.763  63.610  0.00  0.00    -0.039 C 
ATOM     73  H35 non d ame     -10.500   9.761  63.726  0.00  0.00     0.036 H 
ATOM     74  H36 non d ame     -10.501  11.440  62.862  0.00  0.00     0.036 H 
BRANCH  72  75
ATOM     75  C25 non d ame      -8.527  10.597  63.284  0.00  0.00    -0.001 C 
ATOM     76  C26 non d ame      -8.233  11.028  61.724  0.00  0.00    -0.035 C 
ATOM     77  C27 non d ame      -7.537  10.034  61.122  0.00  0.00     0.085 C 
ATOM     78  H38 non d ame      -9.166  11.062  61.163  0.00  0.00     0.036 H 
ATOM     79  H39 non d ame      -7.546  11.873  61.693  0.00  0.00     0.036 H 
ATOM     80  N5  non d ame      -7.615   8.828  62.028  0.00  0.00    -0.049 N 
ATOM     81  H40 non d ame      -8.076   9.819  60.198  0.00  0.00     0.075 H 
ATOM     82  H41 non d ame      -6.506  10.382  61.082  0.00  0.00     0.075 H 
ATOM     83  C28 non d ame      -8.141   9.376  63.452  0.00  0.00     0.193 C 
ATOM     84  H42 non d ame      -8.320   8.221  61.636  0.00  0.00     0.280 HD
ATOM     85  H43 non d ame      -6.668   8.495  62.142  0.00  0.00     0.280 HD
ATOM     86  H44 non d ame      -7.452   9.499  64.288  0.00  0.00     0.129 H 
ATOM     87  H37 non d ame      -7.895  11.046  64.050  0.00  0.00     0.046 H 
BRANCH  83  88
ATOM     88  O6  non d ame      -9.192   8.542  63.944  0.00  0.00    -0.369 OA
ATOM     89  H45 non d ame      -9.444   8.832  64.824  0.00  0.00     0.212 HD
ENDBRANCH  83  88
ENDBRANCH  72  75
ENDBRANCH  47  72
ENDBRANCH  45  47
ENDBRANCH   1  43
BRANCH   1  90
ATOM     90  C16 non d ame      -8.817   9.446  69.299  0.00  0.00    -0.035 C 
ATOM     91  H21 non d ame      -7.942   8.794  69.305  0.00  0.00     0.037 H 
ATOM     92  H22 non d ame      -8.689  10.526  69.226  0.00  0.00     0.037 H 
BRANCH  90  93
ATOM     93  C17 non d ame      -9.573   9.182  70.640  0.00  0.00    -0.059 C 
ATOM     94  H23 non d ame      -9.264   9.948  71.350  0.00  0.00     0.038 H 
BRANCH  93  95
ATOM     95  C18 non d ame     -11.123   9.284  70.473  0.00  0.00    -0.073 C 
ATOM     96  H24 non d ame     -11.507   8.347  70.069  0.00  0.00     0.028 H 
ATOM     97  H25 non d ame     -11.580   9.476  71.444  0.00  0.00     0.028 H 
ATOM     98  H26 non d ame     -11.361  10.100  69.791  0.00  0.00     0.028 H 
ENDBRANCH  93  95
BRANCH  93  99
ATOM     99  C19 non d ame      -9.177   7.826  71.233  0.00  0.00    -0.073 C 
ATOM    100  H27 non d ame      -8.282   7.945  71.845  0.00  0.00     0.028 H 
ATOM    101  H28 non d ame      -9.993   7.450  71.851  0.00  0.00     0.028 H 
ATOM    102  H29 non d ame      -8.977   7.121  70.427  0.00  0.00     0.028 H 
ENDBRANCH  93  99
ENDBRANCH  90  93
ENDBRANCH   1  90
TORSDOF 26
ENDMDL
MODEL 13
REMARK VINA RESULT:      -7.1      2.777     10.088
REMARK  26 active torsions:
REMARK  status: ('A' for Active; 'I' for Inactive)
REMARK    1  A    between atoms: C2_2  and  C3_3 
REMARK    2  A    between atoms: C4_6  and  C5_7 
REMARK       I    between atoms: C5_7  and  N2_9 
REMARK    3  A    between atoms: N2_9  and  C6_10 
REMARK    4  A    between atoms: C6_10  and  C7_11 
REMARK    5  A    between atoms: C6_10  and  C8_13 
REMARK       I    between atoms: C7_11  and  N3_14 
REMARK    6  A    between atoms: N3_14  and  C9_15 
REMARK    7  A    between atoms: C9_15  and  C10_16 
REMARK    8  A    between atoms: C9_15  and  C11_18 
REMARK       I    between atoms: C10_16  and  N4_21 
REMARK    9  A    between atoms: C11_18  and  C12_19 
REMARK   10  A    between atoms: C11_18  and  C13_20 
REMARK   11  A    between atoms: N4_21  and  C14_22 
REMARK   12  A    between atoms: C14_22  and  C15_23 
REMARK   13  A    between atoms: C14_22  and  C16_25 
REMARK       I    between atoms: C15_23  and  N6_40 
REMARK   14  A    between atoms: C16_25  and  C17_26 
REMARK   15  A    between atoms: C17_26  and  C18_27 
REMARK   16  A    between atoms: C17_26  and  C19_28 
REMARK   17  A    between atoms: C20_29  and  C21_30 
REMARK   18  A    between atoms: C20_29  and  C24_33 
REMARK   19  A    between atoms: C20_29  and  N6_40 
REMARK   20  A    between atoms: C21_30  and  C22_31 
REMARK   21  A    between atoms: C22_31  and  C23_32 
REMARK   22  A    between atoms: C23_32  and  O8_43 
REMARK   23  A    between atoms: C24_33  and  C25_34 
REMARK   24  A    between atoms: C28_38  and  O6_39 
REMARK   25  A    between atoms: C29_42  and  O8_43 
REMARK   26  A    between atoms: C29_42  and  C35_49 
ROOT
ATOM      1  C14 non d ame      -8.043   6.626  66.711  0.00  0.00     0.089 C 
ATOM      2  H20 non d ame      -8.388   5.793  66.097  0.00  0.00     0.087 H 
ENDROOT
BRANCH   1   3
ATOM      3  N4  non d ame      -8.185   7.840  65.921  0.00  0.00    -0.346 N 
ATOM      4  C10 non d ame      -8.173   7.775  64.414  0.00  0.00     0.241 C 
ATOM      5  O4  non d ame      -8.045   6.733  63.860  0.00  0.00    -0.271 OA
ATOM      6  H19 non d ame      -8.290   8.717  66.411  0.00  0.00     0.163 HD
BRANCH   4   7
ATOM      7  C9  non d ame      -8.326   9.040  63.612  0.00  0.00     0.092 C 
ATOM      8  H11 non d ame      -8.805   8.807  62.661  0.00  0.00     0.088 H 
BRANCH   7   9
ATOM      9  N3  non d ame      -9.211   9.967  64.326  0.00  0.00    -0.346 N 
ATOM     10  C7  non d ame      -9.888  11.015  63.605  0.00  0.00     0.240 C 
ATOM     11  O3  non d ame      -9.735  11.130  62.450  0.00  0.00    -0.271 OA
ATOM     12  H10 non d ame      -9.353   9.882  65.323  0.00  0.00     0.163 HD
BRANCH  10  13
ATOM     13  C6  non d ame     -10.826  12.001  64.371  0.00  0.00     0.086 C 
ATOM     14  H6  non d ame     -11.081  11.649  65.371  0.00  0.00     0.086 H 
BRANCH  13  15
ATOM     15  N2  non d ame     -10.138  13.270  64.540  0.00  0.00    -0.343 N 
ATOM     16  C5  non d ame     -10.456  14.116  65.693  0.00  0.00     0.273 C 
ATOM     17  O2  non d ame     -11.269  13.767  66.476  0.00  0.00    -0.266 OA
ATOM     18  H5  non d ame      -9.447  13.561  63.864  0.00  0.00     0.163 HD
BRANCH  16  19
ATOM     19  C4  non d ame      -9.736  15.459  65.884  0.00  0.00     0.154 A 
ATOM     20  C1  non d ame      -8.460  15.678  66.495  0.00  0.00    -0.017 A 
ATOM     21  C2  non d ame      -8.256  17.073  66.420  0.00  0.00     0.077 A 
ATOM     22  H1  non d ame      -7.786  14.937  66.925  0.00  0.00     0.091 H 
ATOM     23  O1  non d ame      -9.296  17.587  65.832  0.00  0.00    -0.218 OA
ATOM     24  N1  non d ame     -10.174  16.664  65.510  0.00  0.00    -0.123 NA
BRANCH  21  25
ATOM     25  C3  non d ame      -7.040  17.835  66.932  0.00  0.00    -0.029 C 
ATOM     26  H2  non d ame      -6.297  17.911  66.138  0.00  0.00     0.036 H 
ATOM     27  H3  non d ame      -7.341  18.834  67.244  0.00  0.00     0.036 H 
ATOM     28  H4  non d ame      -6.609  17.303  67.782  0.00  0.00     0.036 H 
ENDBRANCH  21  25
ENDBRANCH  16  19
ENDBRANCH  13  15
BRANCH  13  29
ATOM     29  C8  non d ame     -12.097  12.203  63.586  0.00  0.00    -0.049 C 
ATOM     30  H7  non d ame     -12.139  13.229  63.221  0.00  0.00     0.030 H 
ATOM     31  H8  non d ame     -12.117  11.515  62.742  0.00  0.00     0.030 H 
ATOM     32  H9  non d ame     -12.955  12.012  64.231  0.00  0.00     0.030 H 
ENDBRANCH  13  29
ENDBRANCH  10  13
ENDBRANCH   7   9
BRANCH   7  33
ATOM     33  C11 non d ame      -6.931   9.703  63.418  0.00  0.00    -0.033 C 
ATOM     34  H12 non d ame      -7.090  10.670  62.942  0.00  0.00     0.042 H 
BRANCH  33  35
ATOM     35  C12 non d ame      -6.231   9.964  64.788  0.00  0.00    -0.071 C 
ATOM     36  H13 non d ame      -6.913  10.497  65.450  0.00  0.00     0.028 H 
ATOM     37  H14 non d ame      -5.953   9.013  65.241  0.00  0.00     0.028 H 
ATOM     38  H15 non d ame      -5.337  10.566  64.628  0.00  0.00     0.028 H 
ENDBRANCH  33  35
BRANCH  33  39
ATOM     39  C13 non d ame      -6.029   8.842  62.477  0.00  0.00    -0.071 C 
ATOM     40  H16 non d ame      -5.890   7.853  62.912  0.00  0.00     0.028 H 
ATOM     41  H17 non d ame      -6.509   8.746  61.502  0.00  0.00     0.028 H 
ATOM     42  H18 non d ame      -5.060   9.327  62.358  0.00  0.00     0.028 H 
ENDBRANCH  33  39
ENDBRANCH   7  33
ENDBRANCH   4   7
ENDBRANCH   1   3
BRANCH   1  43
ATOM     43  C15 non d ame      -8.878   6.783  68.013  0.00  0.00     0.240 C 
ATOM     44  O5  non d ame      -9.778   6.038  68.231  0.00  0.00    -0.271 OA
ATOM     45  N6  non d ame      -8.551   7.857  68.994  0.00  0.00    -0.355 N 
ATOM     46  H46 non d ame      -7.786   8.493  68.821  0.00  0.00     0.162 HD
BRANCH  45  47
ATOM     47  C20 non d ame      -9.354   7.993  70.227  0.00  0.00     0.013 C 
ATOM     48  H30 non d ame     -10.182   7.287  70.168  0.00  0.00     0.072 H 
BRANCH  47  49
ATOM     49  C21 non d ame      -9.886   9.405  70.326  0.00  0.00    -0.038 C 
ATOM     50  H31 non d ame      -9.705   9.716  71.354  0.00  0.00     0.036 H 
ATOM     51  H32 non d ame      -9.427   9.950  69.501  0.00  0.00     0.036 H 
BRANCH  49  52
ATOM     52  C22 non d ame     -11.412   9.486  70.107  0.00  0.00     0.018 C 
ATOM     53  H33 non d ame     -11.570  10.330  69.435  0.00  0.00     0.048 H 
ATOM     54  H34 non d ame     -11.722   8.485  69.806  0.00  0.00     0.048 H 
BRANCH  52  55
ATOM     55  C23 non d ame     -12.214   9.812  71.398  0.00  0.00     0.259 C 
ATOM     56  O7  non d ame     -12.274   9.024  72.285  0.00  0.00    -0.265 OA
BRANCH  55  57
ATOM     57  O8  non d ame     -12.889  11.060  71.503  0.00  0.00    -0.317 OA
BRANCH  57  58
ATOM     58  C29 non d ame     -12.447  12.041  70.559  0.00  0.00     0.052 C 
ATOM     59  H47 non d ame     -11.392  11.832  70.389  0.00  0.00     0.082 H 
ATOM     60  H48 non d ame     -13.153  11.991  69.730  0.00  0.00     0.082 H 
BRANCH  58  61
ATOM     61  C35 non d ame     -12.572  13.436  71.226  0.00  0.00    -0.034 A 
ATOM     62  C30 non d ame     -11.878  14.523  70.704  0.00  0.00    -0.075 A 
ATOM     63  C31 non d ame     -11.991  15.777  71.303  0.00  0.00    -0.082 A 
ATOM     64  H49 non d ame     -11.248  14.393  69.824  0.00  0.00     0.084 H 
ATOM     65  C32 non d ame     -12.797  15.940  72.433  0.00  0.00    -0.083 A 
ATOM     66  H50 non d ame     -11.449  16.627  70.889  0.00  0.00     0.083 H 
ATOM     67  C33 non d ame     -13.484  14.852  72.954  0.00  0.00    -0.082 A 
ATOM     68  H51 non d ame     -12.891  16.917  72.907  0.00  0.00     0.083 H 
ATOM     69  C34 non d ame     -13.376  13.598  72.355  0.00  0.00    -0.075 A 
ATOM     70  H52 non d ame     -14.111  14.983  73.836  0.00  0.00     0.083 H 
ATOM     71  H53 non d ame     -13.921  12.748  72.770  0.00  0.00     0.084 H 
ENDBRANCH  58  61
ENDBRANCH  57  58
ENDBRANCH  55  57
ENDBRANCH  52  55
ENDBRANCH  49  52
ENDBRANCH  47  49
BRANCH  47  72
ATOM     72  C24 non d ame      -8.484   7.689  71.445  0.00  0.00    -0.039 C 
ATOM     73  H35 non d ame      -7.512   7.402  71.043  0.00  0.00     0.036 H 
ATOM     74  H36 non d ame      -8.570   8.565  72.089  0.00  0.00     0.036 H 
BRANCH  72  75
ATOM     75  C25 non d ame      -9.040   6.437  72.275  0.00  0.00    -0.001 C 
ATOM     76  C26 non d ame     -10.411   5.864  71.571  0.00  0.00    -0.035 C 
ATOM     77  C27 non d ame     -11.377   5.763  72.515  0.00  0.00     0.085 C 
ATOM     78  H38 non d ame     -10.811   6.600  70.875  0.00  0.00     0.036 H 
ATOM     79  H39 non d ame     -10.263   4.833  71.248  0.00  0.00     0.036 H 
ATOM     80  N5  non d ame     -10.891   6.522  73.727  0.00  0.00    -0.049 N 
ATOM     81  H40 non d ame     -12.245   6.276  72.100  0.00  0.00     0.075 H 
ATOM     82  H41 non d ame     -11.435   4.703  72.760  0.00  0.00     0.075 H 
ATOM     83  C28 non d ame      -9.312   6.766  73.494  0.00  0.00     0.193 C 
ATOM     84  H42 non d ame     -11.360   7.416  73.711  0.00  0.00     0.280 HD
ATOM     85  H43 non d ame     -11.007   5.904  74.517  0.00  0.00     0.280 HD
ATOM     86  H44 non d ame      -8.574   6.169  74.030  0.00  0.00     0.129 H 
ATOM     87  H37 non d ame      -8.258   5.712  72.501  0.00  0.00     0.046 H 
BRANCH  83  88
ATOM     88  O6  non d ame      -8.977   8.127  73.772  0.00  0.00    -0.369 OA
ATOM     89  H45 non d ame      -9.373   8.390  74.606  0.00  0.00     0.212 HD
ENDBRANCH  83  88
ENDBRANCH  72  75
ENDBRANCH  47  72
ENDBRANCH  45  47
ENDBRANCH   1  43
BRANCH   1  90
ATOM     90  C16 non d ame      -6.577   6.433  67.064  0.00  0.00    -0.035 C 
ATOM     91  H21 non d ame      -6.040   7.193  66.494  0.00  0.00     0.037 H 
ATOM     92  H22 non d ame      -6.539   6.440  68.153  0.00  0.00     0.037 H 
BRANCH  90  93
ATOM     93  C17 non d ame      -6.000   5.054  66.611  0.00  0.00    -0.059 C 
ATOM     94  H23 non d ame      -5.245   4.757  67.339  0.00  0.00     0.038 H 
BRANCH  93  95
ATOM     95  C18 non d ame      -7.093   3.939  66.577  0.00  0.00    -0.073 C 
ATOM     96  H24 non d ame      -7.557   3.916  65.591  0.00  0.00     0.028 H 
ATOM     97  H25 non d ame      -6.633   2.973  66.785  0.00  0.00     0.028 H 
ATOM     98  H26 non d ame      -7.851   4.151  67.332  0.00  0.00     0.028 H 
ENDBRANCH  93  95
BRANCH  93  99
ATOM     99  C19 non d ame      -5.300   5.172  65.254  0.00  0.00    -0.073 C 
ATOM    100  H27 non d ame      -4.356   4.628  65.284  0.00  0.00     0.028 H 
ATOM    101  H28 non d ame      -5.940   4.749  64.479  0.00  0.00     0.028 H 
ATOM    102  H29 non d ame      -5.109   6.222  65.034  0.00  0.00     0.028 H 
ENDBRANCH  93  99
ENDBRANCH  90  93
ENDBRANCH   1  90
TORSDOF 26
ENDMDL
MODEL 14
REMARK VINA RESULT:      -7.1      3.432      7.622
REMARK  26 active torsions:
REMARK  status: ('A' for Active; 'I' for Inactive)
REMARK    1  A    between atoms: C2_2  and  C3_3 
REMARK    2  A    between atoms: C4_6  and  C5_7 
REMARK       I    between atoms: C5_7  and  N2_9 
REMARK    3  A    between atoms: N2_9  and  C6_10 
REMARK    4  A    between atoms: C6_10  and  C7_11 
REMARK    5  A    between atoms: C6_10  and  C8_13 
REMARK       I    between atoms: C7_11  and  N3_14 
REMARK    6  A    between atoms: N3_14  and  C9_15 
REMARK    7  A    between atoms: C9_15  and  C10_16 
REMARK    8  A    between atoms: C9_15  and  C11_18 
REMARK       I    between atoms: C10_16  and  N4_21 
REMARK    9  A    between atoms: C11_18  and  C12_19 
REMARK   10  A    between atoms: C11_18  and  C13_20 
REMARK   11  A    between atoms: N4_21  and  C14_22 
REMARK   12  A    between atoms: C14_22  and  C15_23 
REMARK   13  A    between atoms: C14_22  and  C16_25 
REMARK       I    between atoms: C15_23  and  N6_40 
REMARK   14  A    between atoms: C16_25  and  C17_26 
REMARK   15  A    between atoms: C17_26  and  C18_27 
REMARK   16  A    between atoms: C17_26  and  C19_28 
REMARK   17  A    between atoms: C20_29  and  C21_30 
REMARK   18  A    between atoms: C20_29  and  C24_33 
REMARK   19  A    between atoms: C20_29  and  N6_40 
REMARK   20  A    between atoms: C21_30  and  C22_31 
REMARK   21  A    between atoms: C22_31  and  C23_32 
REMARK   22  A    between atoms: C23_32  and  O8_43 
REMARK   23  A    between atoms: C24_33  and  C25_34 
REMARK   24  A    between atoms: C28_38  and  O6_39 
REMARK   25  A    between atoms: C29_42  and  O8_43 
REMARK   26  A    between atoms: C29_42  and  C35_49 
ROOT
ATOM      1  C14 non d ame     -10.858   9.928  68.978  0.00  0.00     0.089 C 
ATOM      2  H20 non d ame     -11.613   9.173  68.753  0.00  0.00     0.087 H 
ENDROOT
BRANCH   1   3
ATOM      3  N4  non d ame      -9.621   9.515  68.334  0.00  0.00    -0.346 N 
ATOM      4  C10 non d ame      -9.656   8.639  67.105  0.00  0.00     0.241 C 
ATOM      5  O4  non d ame     -10.694   8.278  66.656  0.00  0.00    -0.271 OA
ATOM      6  H19 non d ame      -8.748   9.831  68.733  0.00  0.00     0.163 HD
BRANCH   4   7
ATOM      7  C9  non d ame      -8.366   8.226  66.448  0.00  0.00     0.092 C 
ATOM      8  H11 non d ame      -8.502   8.213  65.367  0.00  0.00     0.088 H 
BRANCH   7   9
ATOM      9  N3  non d ame      -7.327   9.218  66.742  0.00  0.00    -0.346 N 
ATOM     10  C7  non d ame      -6.688   9.932  65.665  0.00  0.00     0.240 C 
ATOM     11  O3  non d ame      -6.995   9.721  64.555  0.00  0.00    -0.271 OA
ATOM     12  H10 non d ame      -7.050   9.411  67.694  0.00  0.00     0.163 HD
BRANCH  10  13
ATOM     13  C6  non d ame      -5.581  10.985  65.984  0.00  0.00     0.086 C 
ATOM     14  H6  non d ame      -5.806  11.971  65.577  0.00  0.00     0.086 H 
BRANCH  13  15
ATOM     15  N2  non d ame      -5.483  11.144  67.426  0.00  0.00    -0.343 N 
ATOM     16  C5  non d ame      -5.666  12.469  68.021  0.00  0.00     0.273 C 
ATOM     17  O2  non d ame      -5.888  13.402  67.330  0.00  0.00    -0.266 OA
ATOM     18  H5  non d ame      -5.289  10.341  68.008  0.00  0.00     0.163 HD
BRANCH  16  19
ATOM     19  C4  non d ame      -5.565  12.650  69.543  0.00  0.00     0.154 A 
ATOM     20  C1  non d ame      -5.223  13.846  70.252  0.00  0.00    -0.017 A 
ATOM     21  C2  non d ame      -5.273  13.487  71.616  0.00  0.00     0.077 A 
ATOM     22  H1  non d ame      -4.978  14.825  69.838  0.00  0.00     0.091 H 
ATOM     23  O1  non d ame      -5.608  12.231  71.675  0.00  0.00    -0.218 OA
ATOM     24  N1  non d ame      -5.783  11.721  70.477  0.00  0.00    -0.123 NA
BRANCH  21  25
ATOM     25  C3  non d ame      -4.990  14.402  72.800  0.00  0.00    -0.029 C 
ATOM     26  H2  non d ame      -5.439  15.379  72.621  0.00  0.00     0.036 H 
ATOM     27  H3  non d ame      -5.414  13.968  73.705  0.00  0.00     0.036 H 
ATOM     28  H4  non d ame      -3.912  14.515  72.923  0.00  0.00     0.036 H 
ENDBRANCH  21  25
ENDBRANCH  16  19
ENDBRANCH  13  15
BRANCH  13  29
ATOM     29  C8  non d ame      -4.261  10.517  65.425  0.00  0.00    -0.049 C 
ATOM     30  H7  non d ame      -3.806   9.806  66.116  0.00  0.00     0.030 H 
ATOM     31  H8  non d ame      -4.424  10.035  64.462  0.00  0.00     0.030 H 
ATOM     32  H9  non d ame      -3.598  11.372  65.297  0.00  0.00     0.030 H 
ENDBRANCH  13  29
ENDBRANCH  10  13
ENDBRANCH   7   9
BRANCH   7  33
ATOM     33  C11 non d ame      -7.925   6.838  66.999  0.00  0.00    -0.033 C 
ATOM     34  H12 non d ame      -8.707   6.487  67.671  0.00  0.00     0.042 H 
BRANCH  33  35
ATOM     35  C12 non d ame      -7.784   5.789  65.852  0.00  0.00    -0.071 C 
ATOM     36  H13 non d ame      -7.120   6.181  65.081  0.00  0.00     0.028 H 
ATOM     37  H14 non d ame      -7.370   4.865  66.254  0.00  0.00     0.028 H 
ATOM     38  H15 non d ame      -8.764   5.592  65.420  0.00  0.00     0.028 H 
ENDBRANCH  33  35
BRANCH  33  39
ATOM     39  C13 non d ame      -6.601   6.958  67.821  0.00  0.00    -0.071 C 
ATOM     40  H16 non d ame      -5.850   7.478  67.227  0.00  0.00     0.028 H 
ATOM     41  H17 non d ame      -6.791   7.519  68.737  0.00  0.00     0.028 H 
ATOM     42  H18 non d ame      -6.239   5.962  68.074  0.00  0.00     0.028 H 
ENDBRANCH  33  39
ENDBRANCH   7  33
ENDBRANCH   4   7
ENDBRANCH   1   3
BRANCH   1  43
ATOM     43  C15 non d ame     -11.252  11.332  68.438  0.00  0.00     0.240 C 
ATOM     44  O5  non d ame     -11.982  11.424  67.506  0.00  0.00    -0.271 OA
ATOM     45  N6  non d ame     -10.725  12.565  69.091  0.00  0.00    -0.355 N 
ATOM     46  H46 non d ame     -10.107  12.499  69.887  0.00  0.00     0.162 HD
BRANCH  45  47
ATOM     47  C20 non d ame     -11.109  13.893  68.567  0.00  0.00     0.013 C 
ATOM     48  H30 non d ame     -11.528  13.752  67.571  0.00  0.00     0.072 H 
BRANCH  47  49
ATOM     49  C21 non d ame      -9.883  14.774  68.490  0.00  0.00    -0.038 C 
ATOM     50  H31 non d ame      -9.433  14.740  69.482  0.00  0.00     0.036 H 
ATOM     51  H32 non d ame      -9.321  14.423  67.624  0.00  0.00     0.036 H 
BRANCH  49  52
ATOM     52  C22 non d ame     -10.226  16.255  68.218  0.00  0.00     0.018 C 
ATOM     53  H33 non d ame     -11.267  16.377  68.517  0.00  0.00     0.048 H 
ATOM     54  H34 non d ame      -9.446  16.835  68.711  0.00  0.00     0.048 H 
BRANCH  52  55
ATOM     55  C23 non d ame     -10.165  16.646  66.715  0.00  0.00     0.259 C 
ATOM     56  O7  non d ame     -10.308  17.777  66.380  0.00  0.00    -0.265 OA
BRANCH  55  57
ATOM     57  O8  non d ame      -9.951  15.633  65.740  0.00  0.00    -0.317 OA
BRANCH  57  58
ATOM     58  C29 non d ame     -11.131  15.257  65.023  0.00  0.00     0.052 C 
ATOM     59  H47 non d ame     -11.957  15.402  65.717  0.00  0.00     0.082 H 
ATOM     60  H48 non d ame     -11.099  15.817  64.089  0.00  0.00     0.082 H 
BRANCH  58  61
ATOM     61  C35 non d ame     -11.027  13.744  64.691  0.00  0.00    -0.034 A 
ATOM     62  C30 non d ame      -9.974  12.990  65.197  0.00  0.00    -0.075 A 
ATOM     63  C31 non d ame      -9.881  11.631  64.898  0.00  0.00    -0.082 A 
ATOM     64  H49 non d ame      -9.221  13.463  65.828  0.00  0.00     0.084 H 
ATOM     65  C32 non d ame     -10.845  11.028  64.087  0.00  0.00    -0.083 A 
ATOM     66  H50 non d ame      -9.056  11.042  65.300  0.00  0.00     0.083 H 
ATOM     67  C33 non d ame     -11.893  11.786  63.580  0.00  0.00    -0.082 A 
ATOM     68  H51 non d ame     -10.781   9.966  63.849  0.00  0.00     0.083 H 
ATOM     69  C34 non d ame     -11.990  13.143  63.878  0.00  0.00    -0.075 A 
ATOM     70  H52 non d ame     -12.643  11.312  62.946  0.00  0.00     0.083 H 
ATOM     71  H53 non d ame     -12.817  13.731  63.478  0.00  0.00     0.084 H 
ENDBRANCH  58  61
ENDBRANCH  57  58
ENDBRANCH  55  57
ENDBRANCH  52  55
ENDBRANCH  49  52
ENDBRANCH  47  49
BRANCH  47  72
ATOM     72  C24 non d ame     -12.141  14.534  69.492  0.00  0.00    -0.039 C 
ATOM     73  H35 non d ame     -11.916  15.601  69.482  0.00  0.00     0.036 H 
ATOM     74  H36 non d ame     -13.109  14.179  69.137  0.00  0.00     0.036 H 
BRANCH  72  75
ATOM     75  C25 non d ame     -11.978  14.030  71.004  0.00  0.00    -0.001 C 
ATOM     76  C26 non d ame     -13.251  13.075  71.416  0.00  0.00    -0.035 C 
ATOM     77  C27 non d ame     -13.776  13.526  72.580  0.00  0.00     0.085 C 
ATOM     78  H38 non d ame     -14.064  13.206  70.702  0.00  0.00     0.036 H 
ATOM     79  H39 non d ame     -12.902  12.073  71.666  0.00  0.00     0.036 H 
ATOM     80  N5  non d ame     -13.186  14.894  72.829  0.00  0.00    -0.049 N 
ATOM     81  H40 non d ame     -14.846  13.630  72.397  0.00  0.00     0.075 H 
ATOM     82  H41 non d ame     -13.418  12.840  73.346  0.00  0.00     0.075 H 
ATOM     83  C28 non d ame     -11.928  15.024  71.826  0.00  0.00     0.193 C 
ATOM     84  H42 non d ame     -13.888  15.564  72.552  0.00  0.00     0.280 HD
ATOM     85  H43 non d ame     -12.840  14.888  73.778  0.00  0.00     0.280 HD
ATOM     86  H44 non d ame     -10.909  14.922  72.199  0.00  0.00     0.129 H 
ATOM     87  H37 non d ame     -10.980  13.639  71.202  0.00  0.00     0.046 H 
BRANCH  83  88
ATOM     88  O6  non d ame     -11.963  16.283  71.151  0.00  0.00    -0.369 OA
ATOM     89  H45 non d ame     -11.194  16.362  70.581  0.00  0.00     0.212 HD
ENDBRANCH  83  88
ENDBRANCH  72  75
ENDBRANCH  47  72
ENDBRANCH  45  47
ENDBRANCH   1  43
BRANCH   1  90
ATOM     90  C16 non d ame     -10.635  10.001  70.480  0.00  0.00    -0.035 C 
ATOM     91  H21 non d ame      -9.587   9.736  70.629  0.00  0.00     0.037 H 
ATOM     92  H22 non d ame     -10.996  10.985  70.778  0.00  0.00     0.037 H 
BRANCH  90  93
ATOM     93  C17 non d ame     -11.472   8.960  71.289  0.00  0.00    -0.059 C 
ATOM     94  H23 non d ame     -10.981   8.819  72.252  0.00  0.00     0.038 H 
BRANCH  93  95
ATOM     95  C18 non d ame     -12.927   9.459  71.565  0.00  0.00    -0.073 C 
ATOM     96  H24 non d ame     -13.635   8.821  71.037  0.00  0.00     0.028 H 
ATOM     97  H25 non d ame     -13.128   9.417  72.635  0.00  0.00     0.028 H 
ATOM     98  H26 non d ame     -13.031  10.486  71.215  0.00  0.00     0.028 H 
ENDBRANCH  93  95
BRANCH  93  99
ATOM     99  C19 non d ame     -11.487   7.601  70.584  0.00  0.00    -0.073 C 
ATOM    100  H27 non d ame     -10.652   6.997  70.941  0.00  0.00     0.028 H 
ATOM    101  H28 non d ame     -12.425   7.090  70.801  0.00  0.00     0.028 H 
ATOM    102  H29 non d ame     -11.395   7.749  69.508  0.00  0.00     0.028 H 
ENDBRANCH  93  99
ENDBRANCH  90  93
ENDBRANCH   1  90
TORSDOF 26
ENDMDL
MODEL 15
REMARK VINA RESULT:      -7.1      2.585     10.443
REMARK  26 active torsions:
REMARK  status: ('A' for Active; 'I' for Inactive)
REMARK    1  A    between atoms: C2_2  and  C3_3 
REMARK    2  A    between atoms: C4_6  and  C5_7 
REMARK       I    between atoms: C5_7  and  N2_9 
REMARK    3  A    between atoms: N2_9  and  C6_10 
REMARK    4  A    between atoms: C6_10  and  C7_11 
REMARK    5  A    between atoms: C6_10  and  C8_13 
REMARK       I    between atoms: C7_11  and  N3_14 
REMARK    6  A    between atoms: N3_14  and  C9_15 
REMARK    7  A    between atoms: C9_15  and  C10_16 
REMARK    8  A    between atoms: C9_15  and  C11_18 
REMARK       I    between atoms: C10_16  and  N4_21 
REMARK    9  A    between atoms: C11_18  and  C12_19 
REMARK   10  A    between atoms: C11_18  and  C13_20 
REMARK   11  A    between atoms: N4_21  and  C14_22 
REMARK   12  A    between atoms: C14_22  and  C15_23 
REMARK   13  A    between atoms: C14_22  and  C16_25 
REMARK       I    between atoms: C15_23  and  N6_40 
REMARK   14  A    between atoms: C16_25  and  C17_26 
REMARK   15  A    between atoms: C17_26  and  C18_27 
REMARK   16  A    between atoms: C17_26  and  C19_28 
REMARK   17  A    between atoms: C20_29  and  C21_30 
REMARK   18  A    between atoms: C20_29  and  C24_33 
REMARK   19  A    between atoms: C20_29  and  N6_40 
REMARK   20  A    between atoms: C21_30  and  C22_31 
REMARK   21  A    between atoms: C22_31  and  C23_32 
REMARK   22  A    between atoms: C23_32  and  O8_43 
REMARK   23  A    between atoms: C24_33  and  C25_34 
REMARK   24  A    between atoms: C28_38  and  O6_39 
REMARK   25  A    between atoms: C29_42  and  O8_43 
REMARK   26  A    between atoms: C29_42  and  C35_49 
ROOT
ATOM      1  C14 non d ame     -10.282   8.315  69.764  0.00  0.00     0.089 C 
ATOM      2  H20 non d ame      -9.540   8.286  70.563  0.00  0.00     0.087 H 
ENDROOT
BRANCH   1   3
ATOM      3  N4  non d ame      -9.934   9.420  68.883  0.00  0.00    -0.346 N 
ATOM      4  C10 non d ame      -8.698  10.245  69.147  0.00  0.00     0.241 C 
ATOM      5  O4  non d ame      -8.002  10.001  70.077  0.00  0.00    -0.271 OA
ATOM      6  H19 non d ame     -10.541   9.612  68.099  0.00  0.00     0.163 HD
BRANCH   4   7
ATOM      7  C9  non d ame      -8.350  11.381  68.222  0.00  0.00     0.092 C 
ATOM      8  H11 non d ame      -8.406  11.034  67.190  0.00  0.00     0.088 H 
BRANCH   7   9
ATOM      9  N3  non d ame      -9.338  12.454  68.372  0.00  0.00    -0.346 N 
ATOM     10  C7  non d ame     -10.176  12.823  67.258  0.00  0.00     0.240 C 
ATOM     11  O3  non d ame     -10.069  12.268  66.233  0.00  0.00    -0.271 OA
ATOM     12  H10 non d ame      -9.441  12.943  69.250  0.00  0.00     0.163 HD
BRANCH  10  13
ATOM     13  C6  non d ame     -11.223  13.968  67.423  0.00  0.00     0.086 C 
ATOM     14  H6  non d ame     -11.679  13.983  68.413  0.00  0.00     0.086 H 
BRANCH  13  15
ATOM     15  N2  non d ame     -10.553  15.247  67.255  0.00  0.00    -0.343 N 
ATOM     16  C5  non d ame     -10.974  16.394  68.063  0.00  0.00     0.273 C 
ATOM     17  O2  non d ame     -11.854  16.278  68.842  0.00  0.00    -0.266 OA
ATOM     18  H5  non d ame      -9.803  15.338  66.584  0.00  0.00     0.163 HD
BRANCH  16  19
ATOM     19  C4  non d ame     -10.273  17.751  67.896  0.00  0.00     0.154 A 
ATOM     20  C1  non d ame      -8.865  18.006  67.909  0.00  0.00    -0.017 A 
ATOM     21  C2  non d ame      -8.745  19.400  67.716  0.00  0.00     0.077 A 
ATOM     22  H1  non d ame      -8.054  17.288  68.038  0.00  0.00     0.091 H 
ATOM     23  O1  non d ame      -9.949  19.880  67.603  0.00  0.00    -0.218 OA
ATOM     24  N1  non d ame     -10.858  18.937  67.705  0.00  0.00    -0.123 NA
BRANCH  21  25
ATOM     25  C3  non d ame      -7.446  20.192  67.649  0.00  0.00    -0.029 C 
ATOM     26  H2  non d ame      -7.532  21.084  68.270  0.00  0.00     0.036 H 
ATOM     27  H3  non d ame      -6.625  19.575  68.010  0.00  0.00     0.036 H 
ATOM     28  H4  non d ame      -7.252  20.486  66.616  0.00  0.00     0.036 H 
ENDBRANCH  21  25
ENDBRANCH  16  19
ENDBRANCH  13  15
BRANCH  13  29
ATOM     29  C8  non d ame     -12.308  13.814  66.389  0.00  0.00    -0.049 C 
ATOM     30  H7  non d ame     -12.438  14.756  65.856  0.00  0.00     0.030 H 
ATOM     31  H8  non d ame     -12.030  13.032  65.682  0.00  0.00     0.030 H 
ATOM     32  H9  non d ame     -13.243  13.544  66.880  0.00  0.00     0.030 H 
ENDBRANCH  13  29
ENDBRANCH  10  13
ENDBRANCH   7   9
BRANCH   7  33
ATOM     33  C11 non d ame      -6.937  11.926  68.580  0.00  0.00    -0.033 C 
ATOM     34  H12 non d ame      -6.554  11.330  69.408  0.00  0.00     0.042 H 
BRANCH  33  35
ATOM     35  C12 non d ame      -5.945  11.762  67.386  0.00  0.00    -0.071 C 
ATOM     36  H13 non d ame      -6.506  11.690  66.455  0.00  0.00     0.028 H 
ATOM     37  H14 non d ame      -5.281  12.625  67.344  0.00  0.00     0.028 H 
ATOM     38  H15 non d ame      -5.356  10.857  67.526  0.00  0.00     0.028 H 
ENDBRANCH  33  35
BRANCH  33  39
ATOM     39  C13 non d ame      -7.014  13.414  69.051  0.00  0.00    -0.071 C 
ATOM     40  H16 non d ame      -6.008  13.823  69.129  0.00  0.00     0.028 H 
ATOM     41  H17 non d ame      -7.587  13.995  68.327  0.00  0.00     0.028 H 
ATOM     42  H18 non d ame      -7.503  13.463  70.023  0.00  0.00     0.028 H 
ENDBRANCH  33  39
ENDBRANCH   7  33
ENDBRANCH   4   7
ENDBRANCH   1   3
BRANCH   1  43
ATOM     43  C15 non d ame     -10.299   7.003  68.930  0.00  0.00     0.240 C 
ATOM     44  O5  non d ame     -11.251   6.294  68.962  0.00  0.00    -0.271 OA
ATOM     45  N6  non d ame      -9.129   6.635  68.081  0.00  0.00    -0.355 N 
ATOM     46  H46 non d ame      -8.316   7.232  68.043  0.00  0.00     0.162 HD
BRANCH  45  47
ATOM     47  C20 non d ame      -9.160   5.385  67.293  0.00  0.00     0.013 C 
ATOM     48  H30 non d ame      -9.810   4.678  67.809  0.00  0.00     0.072 H 
BRANCH  47  49
ATOM     49  C21 non d ame      -7.761   4.821  67.192  0.00  0.00    -0.038 C 
ATOM     50  H31 non d ame      -7.739   3.965  67.866  0.00  0.00     0.036 H 
ATOM     51  H32 non d ame      -7.575   4.682  66.127  0.00  0.00     0.036 H 
BRANCH  49  52
ATOM     52  C22 non d ame      -6.682   5.803  67.699  0.00  0.00     0.018 C 
ATOM     53  H33 non d ame      -7.137   6.793  67.652  0.00  0.00     0.048 H 
ATOM     54  H34 non d ame      -6.345   5.403  68.655  0.00  0.00     0.048 H 
BRANCH  52  55
ATOM     55  C23 non d ame      -5.421   5.870  66.793  0.00  0.00     0.259 C 
ATOM     56  O7  non d ame      -4.682   4.941  66.719  0.00  0.00    -0.265 OA
BRANCH  55  57
ATOM     57  O8  non d ame      -5.149   7.060  66.063  0.00  0.00    -0.317 OA
BRANCH  57  58
ATOM     58  C29 non d ame      -5.991   8.162  66.414  0.00  0.00     0.052 C 
ATOM     59  H47 non d ame      -6.608   7.811  67.241  0.00  0.00     0.082 H 
ATOM     60  H48 non d ame      -5.322   9.010  66.556  0.00  0.00     0.082 H 
BRANCH  58  61
ATOM     61  C35 non d ame      -6.915   8.463  65.204  0.00  0.00    -0.034 A 
ATOM     62  C30 non d ame      -6.483   8.188  63.911  0.00  0.00    -0.075 A 
ATOM     63  C31 non d ame      -7.314   8.458  62.825  0.00  0.00    -0.082 A 
ATOM     64  H49 non d ame      -5.493   7.760  63.749  0.00  0.00     0.084 H 
ATOM     65  C32 non d ame      -8.580   9.009  63.035  0.00  0.00    -0.083 A 
ATOM     66  H50 non d ame      -6.972   8.238  61.813  0.00  0.00     0.083 H 
ATOM     67  C33 non d ame      -9.007   9.285  64.327  0.00  0.00    -0.082 A 
ATOM     68  H51 non d ame      -9.236   9.222  62.191  0.00  0.00     0.083 H 
ATOM     69  C34 non d ame      -8.180   9.014  65.416  0.00  0.00    -0.075 A 
ATOM     70  H52 non d ame      -9.995   9.717  64.487  0.00  0.00     0.083 H 
ATOM     71  H53 non d ame      -8.524   9.233  66.428  0.00  0.00     0.084 H 
ENDBRANCH  58  61
ENDBRANCH  57  58
ENDBRANCH  55  57
ENDBRANCH  52  55
ENDBRANCH  49  52
ENDBRANCH  47  49
BRANCH  47  72
ATOM     72  C24 non d ame      -9.697   5.672  65.892  0.00  0.00    -0.039 C 
ATOM     73  H35 non d ame     -10.781   5.706  65.998  0.00  0.00     0.036 H 
ATOM     74  H36 non d ame      -9.155   6.555  65.549  0.00  0.00     0.036 H 
BRANCH  72  75
ATOM     75  C25 non d ame      -9.359   4.484  64.871  0.00  0.00    -0.001 C 
ATOM     76  C26 non d ame      -8.550   5.079  63.569  0.00  0.00    -0.035 C 
ATOM     77  C27 non d ame      -9.169   4.654  62.441  0.00  0.00     0.085 C 
ATOM     78  H38 non d ame      -8.657   6.162  63.525  0.00  0.00     0.036 H 
ATOM     79  H39 non d ame      -7.562   4.626  63.503  0.00  0.00     0.036 H 
ATOM     80  N5  non d ame     -10.510   4.097  62.856  0.00  0.00    -0.049 N 
ATOM     81  H40 non d ame      -9.326   5.550  61.839  0.00  0.00     0.075 H 
ATOM     82  H41 non d ame      -8.551   3.842  62.059  0.00  0.00     0.075 H 
ATOM     83  C28 non d ame     -10.434   3.903  64.456  0.00  0.00     0.193 C 
ATOM     84  H42 non d ame     -11.192   4.813  62.651  0.00  0.00     0.280 HD
ATOM     85  H43 non d ame     -10.588   3.187  62.425  0.00  0.00     0.280 HD
ATOM     86  H44 non d ame     -10.303   2.911  64.889  0.00  0.00     0.129 H 
ATOM     87  H37 non d ame      -8.922   3.621  65.374  0.00  0.00     0.046 H 
BRANCH  83  88
ATOM     88  O6  non d ame     -11.607   4.436  65.074  0.00  0.00    -0.369 OA
ATOM     89  H45 non d ame     -12.028   3.754  65.603  0.00  0.00     0.212 HD
ENDBRANCH  83  88
ENDBRANCH  72  75
ENDBRANCH  47  72
ENDBRANCH  45  47
ENDBRANCH   1  43
BRANCH   1  90
ATOM     90  C16 non d ame     -11.661   8.565  70.352  0.00  0.00    -0.035 C 
ATOM     91  H21 non d ame     -12.034   9.456  69.844  0.00  0.00     0.037 H 
ATOM     92  H22 non d ame     -12.193   7.620  70.252  0.00  0.00     0.037 H 
BRANCH  90  93
ATOM     93  C17 non d ame     -11.642   8.903  71.877  0.00  0.00    -0.059 C 
ATOM     94  H23 non d ame     -11.103   9.842  72.000  0.00  0.00     0.038 H 
BRANCH  93  95
ATOM     95  C18 non d ame     -13.079   9.098  72.456  0.00  0.00    -0.073 C 
ATOM     96  H24 non d ame     -13.582   9.901  71.916  0.00  0.00     0.028 H 
ATOM     97  H25 non d ame     -13.645   8.174  72.342  0.00  0.00     0.028 H 
ATOM     98  H26 non d ame     -13.013   9.357  73.513  0.00  0.00     0.028 H 
ENDBRANCH  93  95
BRANCH  93  99
ATOM     99  C19 non d ame     -10.878   7.835  72.664  0.00  0.00    -0.073 C 
ATOM    100  H27 non d ame     -11.527   6.975  72.834  0.00  0.00     0.028 H 
ATOM    101  H28 non d ame     -10.001   7.523  72.095  0.00  0.00     0.028 H 
ATOM    102  H29 non d ame     -10.560   8.247  73.622  0.00  0.00     0.028 H 
ENDBRANCH  93  99
ENDBRANCH  90  93
ENDBRANCH   1  90
TORSDOF 26
ENDMDL
MODEL 16
REMARK VINA RESULT:      -7.1      3.489      7.812
REMARK  26 active torsions:
REMARK  status: ('A' for Active; 'I' for Inactive)
REMARK    1  A    between atoms: C2_2  and  C3_3 
REMARK    2  A    between atoms: C4_6  and  C5_7 
REMARK       I    between atoms: C5_7  and  N2_9 
REMARK    3  A    between atoms: N2_9  and  C6_10 
REMARK    4  A    between atoms: C6_10  and  C7_11 
REMARK    5  A    between atoms: C6_10  and  C8_13 
REMARK       I    between atoms: C7_11  and  N3_14 
REMARK    6  A    between atoms: N3_14  and  C9_15 
REMARK    7  A    between atoms: C9_15  and  C10_16 
REMARK    8  A    between atoms: C9_15  and  C11_18 
REMARK       I    between atoms: C10_16  and  N4_21 
REMARK    9  A    between atoms: C11_18  and  C12_19 
REMARK   10  A    between atoms: C11_18  and  C13_20 
REMARK   11  A    between atoms: N4_21  and  C14_22 
REMARK   12  A    between atoms: C14_22  and  C15_23 
REMARK   13  A    between atoms: C14_22  and  C16_25 
REMARK       I    between atoms: C15_23  and  N6_40 
REMARK   14  A    between atoms: C16_25  and  C17_26 
REMARK   15  A    between atoms: C17_26  and  C18_27 
REMARK   16  A    between atoms: C17_26  and  C19_28 
REMARK   17  A    between atoms: C20_29  and  C21_30 
REMARK   18  A    between atoms: C20_29  and  C24_33 
REMARK   19  A    between atoms: C20_29  and  N6_40 
REMARK   20  A    between atoms: C21_30  and  C22_31 
REMARK   21  A    between atoms: C22_31  and  C23_32 
REMARK   22  A    between atoms: C23_32  and  O8_43 
REMARK   23  A    between atoms: C24_33  and  C25_34 
REMARK   24  A    between atoms: C28_38  and  O6_39 
REMARK   25  A    between atoms: C29_42  and  O8_43 
REMARK   26  A    between atoms: C29_42  and  C35_49 
ROOT
ATOM      1  C14 non d ame      -8.705   9.556  64.825  0.00  0.00     0.089 C 
ATOM      2  H20 non d ame      -7.635   9.675  64.996  0.00  0.00     0.087 H 
ENDROOT
BRANCH   1   3
ATOM      3  N4  non d ame      -9.052   8.183  65.159  0.00  0.00    -0.346 N 
ATOM      4  C10 non d ame      -8.008   7.246  65.714  0.00  0.00     0.241 C 
ATOM      5  O4  non d ame      -6.893   7.622  65.880  0.00  0.00    -0.271 OA
ATOM      6  H19 non d ame     -10.005   7.882  65.007  0.00  0.00     0.163 HD
BRANCH   4   7
ATOM      7  C9  non d ame      -8.385   5.830  66.058  0.00  0.00     0.092 C 
ATOM      8  H11 non d ame      -7.480   5.229  66.149  0.00  0.00     0.088 H 
BRANCH   7   9
ATOM      9  N3  non d ame      -9.052   5.805  67.363  0.00  0.00    -0.346 N 
ATOM     10  C7  non d ame      -8.348   5.321  68.524  0.00  0.00     0.240 C 
ATOM     11  O3  non d ame      -7.243   4.946  68.427  0.00  0.00    -0.271 OA
ATOM     12  H10 non d ame     -10.006   6.124  67.463  0.00  0.00     0.163 HD
BRANCH  10  13
ATOM     13  C6  non d ame      -9.065   5.294  69.910  0.00  0.00     0.086 C 
ATOM     14  H6  non d ame      -8.384   5.477  70.741  0.00  0.00     0.086 H 
BRANCH  13  15
ATOM     15  N2  non d ame     -10.059   6.354  69.946  0.00  0.00    -0.343 N 
ATOM     16  C5  non d ame     -10.318   7.059  71.204  0.00  0.00     0.273 C 
ATOM     17  O2  non d ame      -9.724   6.763  72.181  0.00  0.00    -0.266 OA
ATOM     18  H5  non d ame     -10.565   6.599  69.106  0.00  0.00     0.163 HD
BRANCH  16  19
ATOM     19  C4  non d ame     -11.365   8.182  71.256  0.00  0.00     0.154 A 
ATOM     20  C1  non d ame     -11.139   9.584  71.082  0.00  0.00    -0.017 A 
ATOM     21  C2  non d ame     -12.414  10.177  71.221  0.00  0.00     0.077 A 
ATOM     22  H1  non d ame     -10.196  10.093  70.885  0.00  0.00     0.091 H 
ATOM     23  O1  non d ame     -13.265   9.220  71.446  0.00  0.00    -0.218 OA
ATOM     24  N1  non d ame     -12.677   8.046  71.471  0.00  0.00    -0.123 NA
BRANCH  21  25
ATOM     25  C3  non d ame     -12.731  11.664  71.123  0.00  0.00    -0.029 C 
ATOM     26  H2  non d ame     -13.802  11.798  70.974  0.00  0.00     0.036 H 
ATOM     27  H3  non d ame     -12.427  12.162  72.043  0.00  0.00     0.036 H 
ATOM     28  H4  non d ame     -12.190  12.097  70.280  0.00  0.00     0.036 H 
ENDBRANCH  21  25
ENDBRANCH  16  19
ENDBRANCH  13  15
BRANCH  13  29
ATOM     29  C8  non d ame      -9.730   3.956  70.110  0.00  0.00    -0.049 C 
ATOM     30  H7  non d ame      -9.822   3.450  69.148  0.00  0.00     0.030 H 
ATOM     31  H8  non d ame      -9.129   3.348  70.785  0.00  0.00     0.030 H 
ATOM     32  H9  non d ame     -10.721   4.104  70.538  0.00  0.00     0.030 H 
ENDBRANCH  13  29
ENDBRANCH  10  13
ENDBRANCH   7   9
BRANCH   7  33
ATOM     33  C11 non d ame      -9.351   5.272  64.973  0.00  0.00    -0.033 C 
ATOM     34  H12 non d ame     -10.117   6.026  64.795  0.00  0.00     0.042 H 
BRANCH  33  35
ATOM     35  C12 non d ame      -8.609   5.029  63.621  0.00  0.00    -0.071 C 
ATOM     36  H13 non d ame      -9.223   5.396  62.799  0.00  0.00     0.028 H 
ATOM     37  H14 non d ame      -7.657   5.558  63.629  0.00  0.00     0.028 H 
ATOM     38  H15 non d ame      -8.432   3.962  63.493  0.00  0.00     0.028 H 
ENDBRANCH  33  35
BRANCH  33  39
ATOM     39  C13 non d ame     -10.060   3.972  65.471  0.00  0.00    -0.071 C 
ATOM     40  H16 non d ame      -9.869   3.838  66.535  0.00  0.00     0.028 H 
ATOM     41  H17 non d ame     -11.135   4.056  65.303  0.00  0.00     0.028 H 
ATOM     42  H18 non d ame      -9.674   3.114  64.921  0.00  0.00     0.028 H 
ENDBRANCH  33  39
ENDBRANCH   7  33
ENDBRANCH   4   7
ENDBRANCH   1   3
BRANCH   1  43
ATOM     43  C15 non d ame      -9.552  10.510  65.716  0.00  0.00     0.240 C 
ATOM     44  O5  non d ame     -10.481  10.084  66.321  0.00  0.00    -0.271 OA
ATOM     45  N6  non d ame      -9.196  11.954  65.823  0.00  0.00    -0.355 N 
ATOM     46  H46 non d ame      -8.406  12.326  65.317  0.00  0.00     0.162 HD
BRANCH  45  47
ATOM     47  C20 non d ame     -10.010  12.848  66.674  0.00  0.00     0.013 C 
ATOM     48  H30 non d ame     -11.023  12.446  66.712  0.00  0.00     0.072 H 
BRANCH  47  49
ATOM     49  C21 non d ame     -10.028  14.234  66.072  0.00  0.00    -0.038 C 
ATOM     50  H31 non d ame      -9.135  14.731  66.450  0.00  0.00     0.036 H 
ATOM     51  H32 non d ame     -10.158  14.088  64.999  0.00  0.00     0.036 H 
BRANCH  49  52
ATOM     52  C22 non d ame     -11.231  15.078  66.547  0.00  0.00     0.018 C 
ATOM     53  H33 non d ame     -11.648  15.532  65.647  0.00  0.00     0.048 H 
ATOM     54  H34 non d ame     -11.841  14.408  67.151  0.00  0.00     0.048 H 
BRANCH  52  55
ATOM     55  C23 non d ame     -10.839  16.259  67.478  0.00  0.00     0.259 C 
ATOM     56  O7  non d ame      -9.993  17.028  67.154  0.00  0.00    -0.265 OA
BRANCH  55  57
ATOM     57  O8  non d ame     -11.494  16.404  68.733  0.00  0.00    -0.317 OA
BRANCH  57  58
ATOM     58  C29 non d ame     -12.175  15.225  69.172  0.00  0.00     0.052 C 
ATOM     59  H47 non d ame     -13.086  15.171  68.577  0.00  0.00     0.082 H 
ATOM     60  H48 non d ame     -11.440  14.422  69.118  0.00  0.00     0.082 H 
BRANCH  58  61
ATOM     61  C35 non d ame     -12.571  15.428  70.659  0.00  0.00    -0.034 A 
ATOM     62  C30 non d ame     -13.868  15.153  71.080  0.00  0.00    -0.075 A 
ATOM     63  C31 non d ame     -14.223  15.335  72.416  0.00  0.00    -0.082 A 
ATOM     64  H49 non d ame     -14.607  14.794  70.363  0.00  0.00     0.084 H 
ATOM     65  C32 non d ame     -13.275  15.798  73.332  0.00  0.00    -0.083 A 
ATOM     66  H50 non d ame     -15.239  15.116  72.742  0.00  0.00     0.083 H 
ATOM     67  C33 non d ame     -11.982  16.075  72.908  0.00  0.00    -0.082 A 
ATOM     68  H51 non d ame     -13.544  15.942  74.379  0.00  0.00     0.083 H 
ATOM     69  C34 non d ame     -11.623  15.891  71.574  0.00  0.00    -0.075 A 
ATOM     70  H52 non d ame     -11.246  16.437  73.626  0.00  0.00     0.083 H 
ATOM     71  H53 non d ame     -10.605  16.110  71.249  0.00  0.00     0.084 H 
ENDBRANCH  58  61
ENDBRANCH  57  58
ENDBRANCH  55  57
ENDBRANCH  52  55
ENDBRANCH  49  52
ENDBRANCH  47  49
BRANCH  47  72
ATOM     72  C24 non d ame      -9.411  12.909  68.078  0.00  0.00    -0.039 C 
ATOM     73  H35 non d ame      -9.981  13.676  68.603  0.00  0.00     0.036 H 
ATOM     74  H36 non d ame      -9.418  11.881  68.442  0.00  0.00     0.036 H 
BRANCH  72  75
ATOM     75  C25 non d ame      -7.883  13.390  68.051  0.00  0.00    -0.001 C 
ATOM     76  C26 non d ame      -6.893  12.129  68.413  0.00  0.00    -0.035 C 
ATOM     77  C27 non d ame      -6.047  12.508  69.401  0.00  0.00     0.085 C 
ATOM     78  H38 non d ame      -7.466  11.320  68.864  0.00  0.00     0.036 H 
ATOM     79  H39 non d ame      -6.228  11.923  67.574  0.00  0.00     0.036 H 
ATOM     80  N5  non d ame      -6.586  13.798  69.971  0.00  0.00    -0.049 N 
ATOM     81  H40 non d ame      -6.118  11.727  70.160  0.00  0.00     0.075 H 
ATOM     82  H41 non d ame      -5.096  12.706  68.910  0.00  0.00     0.075 H 
ATOM     83  C28 non d ame      -7.674  14.334  68.907  0.00  0.00     0.193 C 
ATOM     84  H42 non d ame      -7.064  13.556  70.826  0.00  0.00     0.280 HD
ATOM     85  H43 non d ame      -5.811  14.447  69.992  0.00  0.00     0.280 HD
ATOM     86  H44 non d ame      -7.435  15.160  68.237  0.00  0.00     0.129 H 
ATOM     87  H37 non d ame      -7.648  13.965  67.155  0.00  0.00     0.046 H 
BRANCH  83  88
ATOM     88  O6  non d ame      -8.872  14.725  69.581  0.00  0.00    -0.369 OA
ATOM     89  H45 non d ame      -9.538  14.970  68.933  0.00  0.00     0.212 HD
ENDBRANCH  83  88
ENDBRANCH  72  75
ENDBRANCH  47  72
ENDBRANCH  45  47
ENDBRANCH   1  43
BRANCH   1  90
ATOM     90  C16 non d ame      -9.025   9.807  63.361  0.00  0.00    -0.035 C 
ATOM     91  H21 non d ame      -9.620   8.949  63.044  0.00  0.00     0.037 H 
ATOM     92  H22 non d ame      -9.452  10.809  63.326  0.00  0.00     0.037 H 
BRANCH  90  93
ATOM     93  C17 non d ame      -7.764   9.832  62.439  0.00  0.00    -0.059 C 
ATOM     94  H23 non d ame      -7.706   8.869  61.933  0.00  0.00     0.038 H 
BRANCH  93  95
ATOM     95  C18 non d ame      -7.857  10.942  61.344  0.00  0.00    -0.073 C 
ATOM     96  H24 non d ame      -8.902  11.111  61.086  0.00  0.00     0.028 H 
ATOM     97  H25 non d ame      -7.422  11.866  61.725  0.00  0.00     0.028 H 
ATOM     98  H26 non d ame      -7.310  10.622  60.456  0.00  0.00     0.028 H 
ENDBRANCH  93  95
BRANCH  93  99
ATOM     99  C19 non d ame      -6.485   9.989  63.266  0.00  0.00    -0.073 C 
ATOM    100  H27 non d ame      -5.858   9.105  63.136  0.00  0.00     0.028 H 
ATOM    101  H28 non d ame      -5.942  10.873  62.930  0.00  0.00     0.028 H 
ATOM    102  H29 non d ame      -6.743  10.101  64.319  0.00  0.00     0.028 H 
ENDBRANCH  93  99
ENDBRANCH  90  93
ENDBRANCH   1  90
TORSDOF 26
ENDMDL
MODEL 17
REMARK VINA RESULT:      -7.0      3.245     10.368
REMARK  26 active torsions:
REMARK  status: ('A' for Active; 'I' for Inactive)
REMARK    1  A    between atoms: C2_2  and  C3_3 
REMARK    2  A    between atoms: C4_6  and  C5_7 
REMARK       I    between atoms: C5_7  and  N2_9 
REMARK    3  A    between atoms: N2_9  and  C6_10 
REMARK    4  A    between atoms: C6_10  and  C7_11 
REMARK    5  A    between atoms: C6_10  and  C8_13 
REMARK       I    between atoms: C7_11  and  N3_14 
REMARK    6  A    between atoms: N3_14  and  C9_15 
REMARK    7  A    between atoms: C9_15  and  C10_16 
REMARK    8  A    between atoms: C9_15  and  C11_18 
REMARK       I    between atoms: C10_16  and  N4_21 
REMARK    9  A    between atoms: C11_18  and  C12_19 
REMARK   10  A    between atoms: C11_18  and  C13_20 
REMARK   11  A    between atoms: N4_21  and  C14_22 
REMARK   12  A    between atoms: C14_22  and  C15_23 
REMARK   13  A    between atoms: C14_22  and  C16_25 
REMARK       I    between atoms: C15_23  and  N6_40 
REMARK   14  A    between atoms: C16_25  and  C17_26 
REMARK   15  A    between atoms: C17_26  and  C18_27 
REMARK   16  A    between atoms: C17_26  and  C19_28 
REMARK   17  A    between atoms: C20_29  and  C21_30 
REMARK   18  A    between atoms: C20_29  and  C24_33 
REMARK   19  A    between atoms: C20_29  and  N6_40 
REMARK   20  A    between atoms: C21_30  and  C22_31 
REMARK   21  A    between atoms: C22_31  and  C23_32 
REMARK   22  A    between atoms: C23_32  and  O8_43 
REMARK   23  A    between atoms: C24_33  and  C25_34 
REMARK   24  A    between atoms: C28_38  and  O6_39 
REMARK   25  A    between atoms: C29_42  and  O8_43 
REMARK   26  A    between atoms: C29_42  and  C35_49 
ROOT
ATOM      1  C14 non d ame     -10.263  11.622  68.661  0.00  0.00     0.089 C 
ATOM      2  H20 non d ame      -9.545  11.157  69.337  0.00  0.00     0.087 H 
ENDROOT
BRANCH   1   3
ATOM      3  N4  non d ame      -9.745  12.936  68.308  0.00  0.00    -0.346 N 
ATOM      4  C10 non d ame      -8.296  13.105  67.924  0.00  0.00     0.241 C 
ATOM      5  O4  non d ame      -7.566  12.169  67.910  0.00  0.00    -0.271 OA
ATOM      6  H19 non d ame     -10.382  13.720  68.329  0.00  0.00     0.163 HD
BRANCH   4   7
ATOM      7  C9  non d ame      -7.777  14.470  67.557  0.00  0.00     0.092 C 
ATOM      8  H11 non d ame      -7.699  14.545  66.472  0.00  0.00     0.088 H 
BRANCH   7   9
ATOM      9  N3  non d ame      -8.737  15.491  67.992  0.00  0.00    -0.346 N 
ATOM     10  C7  non d ame      -9.370  16.345  67.019  0.00  0.00     0.240 C 
ATOM     11  O3  non d ame      -9.121  16.227  65.882  0.00  0.00    -0.271 OA
ATOM     12  H10 non d ame      -8.962  15.606  68.970  0.00  0.00     0.163 HD
BRANCH  10  13
ATOM     13  C6  non d ame     -10.388  17.432  67.489  0.00  0.00     0.086 C 
ATOM     14  H6  non d ame     -11.270  17.487  66.851  0.00  0.00     0.086 H 
BRANCH  13  15
ATOM     15  N2  non d ame     -10.858  17.092  68.822  0.00  0.00    -0.343 N 
ATOM     16  C5  non d ame     -11.688  15.900  69.012  0.00  0.00     0.273 C 
ATOM     17  O2  non d ame     -11.975  15.224  68.086  0.00  0.00    -0.266 OA
ATOM     18  H5  non d ame     -10.611  17.677  69.607  0.00  0.00     0.163 HD
BRANCH  16  19
ATOM     19  C4  non d ame     -12.191  15.529  70.416  0.00  0.00     0.154 A 
ATOM     20  C1  non d ame     -11.685  15.999  71.669  0.00  0.00    -0.017 A 
ATOM     21  C2  non d ame     -12.484  15.365  72.645  0.00  0.00     0.077 A 
ATOM     22  H1  non d ame     -10.863  16.695  71.842  0.00  0.00     0.091 H 
ATOM     23  O1  non d ame     -13.347  14.622  72.016  0.00  0.00    -0.218 OA
ATOM     24  N1  non d ame     -13.196  14.701  70.714  0.00  0.00    -0.123 NA
BRANCH  21  25
ATOM     25  C3  non d ame     -12.359  15.525  74.155  0.00  0.00    -0.029 C 
ATOM     26  H2  non d ame     -11.855  16.464  74.380  0.00  0.00     0.036 H 
ATOM     27  H3  non d ame     -13.352  15.529  74.603  0.00  0.00     0.036 H 
ATOM     28  H4  non d ame     -11.780  14.694  74.561  0.00  0.00     0.036 H 
ENDBRANCH  21  25
ENDBRANCH  16  19
ENDBRANCH  13  15
BRANCH  13  29
ATOM     29  C8  non d ame      -9.715  18.780  67.507  0.00  0.00    -0.049 C 
ATOM     30  H7  non d ame      -9.553  19.091  68.540  0.00  0.00     0.030 H 
ATOM     31  H8  non d ame      -8.757  18.717  66.993  0.00  0.00     0.030 H 
ATOM     32  H9  non d ame     -10.350  19.510  67.004  0.00  0.00     0.030 H 
ENDBRANCH  13  29
ENDBRANCH  10  13
ENDBRANCH   7   9
BRANCH   7  33
ATOM     33  C11 non d ame      -6.411  14.713  68.262  0.00  0.00    -0.033 C 
ATOM     34  H12 non d ame      -5.796  13.829  68.099  0.00  0.00     0.042 H 
BRANCH  33  35
ATOM     35  C12 non d ame      -5.658  15.930  67.638  0.00  0.00    -0.071 C 
ATOM     36  H13 non d ame      -5.628  15.822  66.554  0.00  0.00     0.028 H 
ATOM     37  H14 non d ame      -6.178  16.850  67.898  0.00  0.00     0.028 H 
ATOM     38  H15 non d ame      -4.641  15.964  68.028  0.00  0.00     0.028 H 
ENDBRANCH  33  35
BRANCH  33  39
ATOM     39  C13 non d ame      -6.600  14.894  69.802  0.00  0.00    -0.071 C 
ATOM     40  H16 non d ame      -6.928  13.952  70.241  0.00  0.00     0.028 H 
ATOM     41  H17 non d ame      -5.652  15.194  70.252  0.00  0.00     0.028 H 
ATOM     42  H18 non d ame      -7.349  15.663  69.988  0.00  0.00     0.028 H 
ENDBRANCH  33  39
ENDBRANCH   7  33
ENDBRANCH   4   7
ENDBRANCH   1   3
BRANCH   1  43
ATOM     43  C15 non d ame     -10.459  10.801  67.355  0.00  0.00     0.240 C 
ATOM     44  O5  non d ame     -11.453  10.932  66.717  0.00  0.00    -0.271 OA
ATOM     45  N6  non d ame      -9.402   9.857  66.893  0.00  0.00    -0.355 N 
ATOM     46  H46 non d ame      -8.551   9.740  67.425  0.00  0.00     0.162 HD
BRANCH  45  47
ATOM     47  C20 non d ame      -9.602   9.084  65.649  0.00  0.00     0.013 C 
ATOM     48  H30 non d ame     -10.673   9.044  65.447  0.00  0.00     0.072 H 
BRANCH  47  49
ATOM     49  C21 non d ame      -9.061   7.685  65.836  0.00  0.00    -0.038 C 
ATOM     50  H31 non d ame      -9.641   7.052  65.165  0.00  0.00     0.036 H 
ATOM     51  H32 non d ame      -7.981   7.768  65.709  0.00  0.00     0.036 H 
BRANCH  49  52
ATOM     52  C22 non d ame      -9.293   7.138  67.261  0.00  0.00     0.018 C 
ATOM     53  H33 non d ame      -8.507   6.401  67.427  0.00  0.00     0.048 H 
ATOM     54  H34 non d ame      -9.363   8.014  67.906  0.00  0.00     0.048 H 
BRANCH  52  55
ATOM     55  C23 non d ame     -10.636   6.374  67.428  0.00  0.00     0.259 C 
ATOM     56  O7  non d ame     -11.233   5.989  66.476  0.00  0.00    -0.265 OA
BRANCH  55  57
ATOM     57  O8  non d ame     -11.154   6.153  68.734  0.00  0.00    -0.317 OA
BRANCH  57  58
ATOM     58  C29 non d ame     -10.312   5.348  69.565  0.00  0.00     0.052 C 
ATOM     59  H47 non d ame     -10.838   4.402  69.689  0.00  0.00     0.082 H 
ATOM     60  H48 non d ame      -9.329   5.368  69.095  0.00  0.00     0.082 H 
BRANCH  58  61
ATOM     61  C35 non d ame     -10.207   6.038  70.951  0.00  0.00    -0.034 A 
ATOM     62  C30 non d ame     -11.348   6.230  71.723  0.00  0.00    -0.075 A 
ATOM     63  C31 non d ame     -11.252   6.850  72.968  0.00  0.00    -0.082 A 
ATOM     64  H49 non d ame     -12.317   5.894  71.353  0.00  0.00     0.084 H 
ATOM     65  C32 non d ame     -10.010   7.283  73.439  0.00  0.00    -0.083 A 
ATOM     66  H50 non d ame     -12.148   6.996  73.572  0.00  0.00     0.083 H 
ATOM     67  C33 non d ame      -8.874   7.093  72.663  0.00  0.00    -0.082 A 
ATOM     68  H51 non d ame      -9.927   7.767  74.412  0.00  0.00     0.083 H 
ATOM     69  C34 non d ame      -8.965   6.471  71.420  0.00  0.00    -0.075 A 
ATOM     70  H52 non d ame      -7.906   7.433  73.033  0.00  0.00     0.083 H 
ATOM     71  H53 non d ame      -8.067   6.324  70.817  0.00  0.00     0.084 H 
ENDBRANCH  58  61
ENDBRANCH  57  58
ENDBRANCH  55  57
ENDBRANCH  52  55
ENDBRANCH  49  52
ENDBRANCH  47  49
BRANCH  47  72
ATOM     72  C24 non d ame      -8.870   9.765  64.495  0.00  0.00    -0.039 C 
ATOM     73  H35 non d ame      -9.536   9.677  63.636  0.00  0.00     0.036 H 
ATOM     74  H36 non d ame      -8.591  10.750  64.869  0.00  0.00     0.036 H 
BRANCH  72  75
ATOM     75  C25 non d ame      -7.513   9.001  64.119  0.00  0.00    -0.001 C 
ATOM     76  C26 non d ame      -6.217   9.907  64.570  0.00  0.00    -0.035 C 
ATOM     77  C27 non d ame      -5.378  10.023  63.513  0.00  0.00     0.085 C 
ATOM     78  H38 non d ame      -6.527  10.933  64.763  0.00  0.00     0.036 H 
ATOM     79  H39 non d ame      -5.623   9.370  65.309  0.00  0.00     0.036 H 
ATOM     80  N5  non d ame      -6.137   9.557  62.294  0.00  0.00    -0.049 N 
ATOM     81  H40 non d ame      -5.174  11.091  63.419  0.00  0.00     0.075 H 
ATOM     82  H41 non d ame      -4.563   9.328  63.711  0.00  0.00     0.075 H 
ATOM     83  C28 non d ame      -7.436   8.778  62.850  0.00  0.00     0.193 C 
ATOM     84  H42 non d ame      -6.442  10.390  61.812  0.00  0.00     0.280 HD
ATOM     85  H43 non d ame      -5.540   8.892  61.823  0.00  0.00     0.280 HD
ATOM     86  H44 non d ame      -7.478   7.689  62.836  0.00  0.00     0.129 H 
ATOM     87  H37 non d ame      -7.524   7.958  64.440  0.00  0.00     0.046 H 
BRANCH  83  88
ATOM     88  O6  non d ame      -8.607   9.213  62.156  0.00  0.00    -0.369 OA
ATOM     89  H45 non d ame      -9.131   8.449  61.903  0.00  0.00     0.212 HD
ENDBRANCH  83  88
ENDBRANCH  72  75
ENDBRANCH  47  72
ENDBRANCH  45  47
ENDBRANCH   1  43
BRANCH   1  90
ATOM     90  C16 non d ame     -11.600  11.789  69.365  0.00  0.00    -0.035 C 
ATOM     91  H21 non d ame     -11.461  12.625  70.053  0.00  0.00     0.037 H 
ATOM     92  H22 non d ame     -12.340  11.858  68.568  0.00  0.00     0.037 H 
BRANCH  90  93
ATOM     93  C17 non d ame     -12.005  10.561  70.241  0.00  0.00    -0.059 C 
ATOM     94  H23 non d ame     -12.647   9.921  69.635  0.00  0.00     0.038 H 
BRANCH  93  95
ATOM     95  C18 non d ame     -10.767   9.715  70.679  0.00  0.00    -0.073 C 
ATOM     96  H24 non d ame      -9.987   9.793  69.922  0.00  0.00     0.028 H 
ATOM     97  H25 non d ame     -10.389  10.092  71.630  0.00  0.00     0.028 H 
ATOM     98  H26 non d ame     -11.062   8.672  70.793  0.00  0.00     0.028 H 
ENDBRANCH  93  95
BRANCH  93  99
ATOM     99  C19 non d ame     -12.823  11.002  71.458  0.00  0.00    -0.073 C 
ATOM    100  H27 non d ame     -13.885  10.879  71.245  0.00  0.00     0.028 H 
ATOM    101  H28 non d ame     -12.550  10.390  72.318  0.00  0.00     0.028 H 
ATOM    102  H29 non d ame     -12.613  12.049  71.677  0.00  0.00     0.028 H 
ENDBRANCH  93  99
ENDBRANCH  90  93
ENDBRANCH   1  90
TORSDOF 26
ENDMDL
MODEL 18
REMARK VINA RESULT:      -7.0      4.117      6.851
REMARK  26 active torsions:
REMARK  status: ('A' for Active; 'I' for Inactive)
REMARK    1  A    between atoms: C2_2  and  C3_3 
REMARK    2  A    between atoms: C4_6  and  C5_7 
REMARK       I    between atoms: C5_7  and  N2_9 
REMARK    3  A    between atoms: N2_9  and  C6_10 
REMARK    4  A    between atoms: C6_10  and  C7_11 
REMARK    5  A    between atoms: C6_10  and  C8_13 
REMARK       I    between atoms: C7_11  and  N3_14 
REMARK    6  A    between atoms: N3_14  and  C9_15 
REMARK    7  A    between atoms: C9_15  and  C10_16 
REMARK    8  A    between atoms: C9_15  and  C11_18 
REMARK       I    between atoms: C10_16  and  N4_21 
REMARK    9  A    between atoms: C11_18  and  C12_19 
REMARK   10  A    between atoms: C11_18  and  C13_20 
REMARK   11  A    between atoms: N4_21  and  C14_22 
REMARK   12  A    between atoms: C14_22  and  C15_23 
REMARK   13  A    between atoms: C14_22  and  C16_25 
REMARK       I    between atoms: C15_23  and  N6_40 
REMARK   14  A    between atoms: C16_25  and  C17_26 
REMARK   15  A    between atoms: C17_26  and  C18_27 
REMARK   16  A    between atoms: C17_26  and  C19_28 
REMARK   17  A    between atoms: C20_29  and  C21_30 
REMARK   18  A    between atoms: C20_29  and  C24_33 
REMARK   19  A    between atoms: C20_29  and  N6_40 
REMARK   20  A    between atoms: C21_30  and  C22_31 
REMARK   21  A    between atoms: C22_31  and  C23_32 
REMARK   22  A    between atoms: C23_32  and  O8_43 
REMARK   23  A    between atoms: C24_33  and  C25_34 
REMARK   24  A    between atoms: C28_38  and  O6_39 
REMARK   25  A    between atoms: C29_42  and  O8_43 
REMARK   26  A    between atoms: C29_42  and  C35_49 
ROOT
ATOM      1  C14 non d ame     -10.365   9.226  68.374  0.00  0.00     0.089 C 
ATOM      2  H20 non d ame     -11.413   8.967  68.218  0.00  0.00     0.087 H 
ENDROOT
BRANCH   1   3
ATOM      3  N4  non d ame      -9.592   7.996  68.285  0.00  0.00    -0.346 N 
ATOM      4  C10 non d ame     -10.021   6.893  67.348  0.00  0.00     0.241 C 
ATOM      5  O4  non d ame     -10.993   7.019  66.678  0.00  0.00    -0.271 OA
ATOM      6  H19 non d ame      -8.770   7.907  68.864  0.00  0.00     0.163 HD
BRANCH   4   7
ATOM      7  C9  non d ame      -9.207   5.629  67.264  0.00  0.00     0.092 C 
ATOM      8  H11 non d ame      -9.650   4.966  66.521  0.00  0.00     0.088 H 
BRANCH   7   9
ATOM      9  N3  non d ame      -7.852   5.949  66.804  0.00  0.00    -0.346 N 
ATOM     10  C7  non d ame      -7.524   5.850  65.404  0.00  0.00     0.240 C 
ATOM     11  O3  non d ame      -8.337   5.514  64.632  0.00  0.00    -0.271 OA
ATOM     12  H10 non d ame      -7.139   6.240  67.459  0.00  0.00     0.163 HD
BRANCH  10  13
ATOM     13  C6  non d ame      -6.078   6.190  64.922  0.00  0.00     0.086 C 
ATOM     14  H6  non d ame      -6.023   6.370  63.849  0.00  0.00     0.086 H 
BRANCH  13  15
ATOM     15  N2  non d ame      -5.640   7.414  65.572  0.00  0.00    -0.343 N 
ATOM     16  C5  non d ame      -4.977   8.453  64.782  0.00  0.00     0.273 C 
ATOM     17  O2  non d ame      -4.797   8.293  63.625  0.00  0.00    -0.266 OA
ATOM     18  H5  non d ame      -5.795   7.541  66.562  0.00  0.00     0.163 HD
BRANCH  16  19
ATOM     19  C4  non d ame      -4.510   9.753  65.456  0.00  0.00     0.154 A 
ATOM     20  C1  non d ame      -3.848   9.883  66.718  0.00  0.00    -0.017 A 
ATOM     21  C2  non d ame      -3.637  11.270  66.877  0.00  0.00     0.077 A 
ATOM     22  H1  non d ame      -3.563   9.091  67.412  0.00  0.00     0.091 H 
ATOM     23  O1  non d ame      -4.122  11.859  65.823  0.00  0.00    -0.218 OA
ATOM     24  N1  non d ame      -4.637  10.994  64.979  0.00  0.00    -0.123 NA
BRANCH  21  25
ATOM     25  C3  non d ame      -2.964  11.950  68.062  0.00  0.00    -0.029 C 
ATOM     26  H2  non d ame      -3.270  12.995  68.104  0.00  0.00     0.036 H 
ATOM     27  H3  non d ame      -3.257  11.448  68.983  0.00  0.00     0.036 H 
ATOM     28  H4  non d ame      -1.880  11.893  67.947  0.00  0.00     0.036 H 
ENDBRANCH  21  25
ENDBRANCH  16  19
ENDBRANCH  13  15
BRANCH  13  29
ATOM     29  C8  non d ame      -5.149   5.057  65.275  0.00  0.00    -0.049 C 
ATOM     30  H7  non d ame      -5.243   4.827  66.337  0.00  0.00     0.030 H 
ATOM     31  H8  non d ame      -5.408   4.177  64.688  0.00  0.00     0.030 H 
ATOM     32  H9  non d ame      -4.121   5.350  65.058  0.00  0.00     0.030 H 
ENDBRANCH  13  29
ENDBRANCH  10  13
ENDBRANCH   7   9
BRANCH   7  33
ATOM     33  C11 non d ame      -9.133   4.966  68.670  0.00  0.00    -0.033 C 
ATOM     34  H12 non d ame      -9.092   3.888  68.524  0.00  0.00     0.042 H 
BRANCH  33  35
ATOM     35  C12 non d ame      -7.835   5.386  69.429  0.00  0.00    -0.071 C 
ATOM     36  H13 non d ame      -8.044   6.253  70.055  0.00  0.00     0.028 H 
ATOM     37  H14 non d ame      -7.495   4.560  70.053  0.00  0.00     0.028 H 
ATOM     38  H15 non d ame      -7.060   5.639  68.706  0.00  0.00     0.028 H 
ENDBRANCH  33  35
BRANCH  33  39
ATOM     39  C13 non d ame     -10.409   5.293  69.511  0.00  0.00    -0.071 C 
ATOM     40  H16 non d ame     -10.201   5.125  70.567  0.00  0.00     0.028 H 
ATOM     41  H17 non d ame     -10.689   6.336  69.357  0.00  0.00     0.028 H 
ATOM     42  H18 non d ame     -11.228   4.647  69.194  0.00  0.00     0.028 H 
ENDBRANCH  33  39
ENDBRANCH   7  33
ENDBRANCH   4   7
ENDBRANCH   1   3
BRANCH   1  43
ATOM     43  C15 non d ame      -9.838  10.219  67.299  0.00  0.00     0.240 C 
ATOM     44  O5  non d ame      -8.752  10.688  67.409  0.00  0.00    -0.271 OA
ATOM     45  N6  non d ame     -10.686  10.579  66.127  0.00  0.00    -0.355 N 
ATOM     46  H46 non d ame     -11.609  10.184  66.021  0.00  0.00     0.162 HD
BRANCH  45  47
ATOM     47  C20 non d ame     -10.171  11.524  65.113  0.00  0.00     0.013 C 
ATOM     48  H30 non d ame      -9.217  11.913  65.470  0.00  0.00     0.072 H 
BRANCH  47  49
ATOM     49  C21 non d ame     -11.157  12.657  64.938  0.00  0.00    -0.038 C 
ATOM     50  H31 non d ame     -10.554  13.547  64.759  0.00  0.00     0.036 H 
ATOM     51  H32 non d ame     -11.866  12.317  64.183  0.00  0.00     0.036 H 
BRANCH  49  52
ATOM     52  C22 non d ame     -11.979  12.937  66.215  0.00  0.00     0.018 C 
ATOM     53  H33 non d ame     -12.932  13.340  65.871  0.00  0.00     0.048 H 
ATOM     54  H34 non d ame     -11.955  12.013  66.791  0.00  0.00     0.048 H 
BRANCH  52  55
ATOM     55  C23 non d ame     -11.361  14.030  67.132  0.00  0.00     0.259 C 
ATOM     56  O7  non d ame     -11.216  15.140  66.733  0.00  0.00    -0.265 OA
BRANCH  55  57
ATOM     57  O8  non d ame     -10.956  13.685  68.451  0.00  0.00    -0.317 OA
BRANCH  57  58
ATOM     58  C29 non d ame     -11.961  13.006  69.209  0.00  0.00     0.052 C 
ATOM     59  H47 non d ame     -12.847  12.988  68.575  0.00  0.00     0.082 H 
ATOM     60  H48 non d ame     -11.504  12.072  69.534  0.00  0.00     0.082 H 
BRANCH  58  61
ATOM     61  C35 non d ame     -12.273  13.863  70.465  0.00  0.00    -0.034 A 
ATOM     62  C30 non d ame     -13.122  13.371  71.451  0.00  0.00    -0.075 A 
ATOM     63  C31 non d ame     -13.401  14.141  72.580  0.00  0.00    -0.082 A 
ATOM     64  H49 non d ame     -13.568  12.383  71.341  0.00  0.00     0.084 H 
ATOM     65  C32 non d ame     -12.831  15.409  72.718  0.00  0.00    -0.083 A 
ATOM     66  H50 non d ame     -14.065  13.752  73.352  0.00  0.00     0.083 H 
ATOM     67  C33 non d ame     -11.986  15.898  71.729  0.00  0.00    -0.082 A 
ATOM     68  H51 non d ame     -13.043  16.017  73.597  0.00  0.00     0.083 H 
ATOM     69  C34 non d ame     -11.703  15.130  70.601  0.00  0.00    -0.075 A 
ATOM     70  H52 non d ame     -11.544  16.888  71.840  0.00  0.00     0.083 H 
ATOM     71  H53 non d ame     -11.037  15.520  69.830  0.00  0.00     0.084 H 
ENDBRANCH  58  61
ENDBRANCH  57  58
ENDBRANCH  55  57
ENDBRANCH  52  55
ENDBRANCH  49  52
ENDBRANCH  47  49
BRANCH  47  72
ATOM     72  C24 non d ame      -9.984  10.801  63.781  0.00  0.00    -0.039 C 
ATOM     73  H35 non d ame     -10.530   9.862  63.882  0.00  0.00     0.036 H 
ATOM     74  H36 non d ame     -10.277  11.520  63.016  0.00  0.00     0.036 H 
BRANCH  72  75
ATOM     75  C25 non d ame      -8.449  10.429  63.517  0.00  0.00    -0.001 C 
ATOM     76  C26 non d ame      -8.079  10.669  61.933  0.00  0.00    -0.035 C 
ATOM     77  C27 non d ame      -7.491   9.549  61.448  0.00  0.00     0.085 C 
ATOM     78  H38 non d ame      -8.992  10.752  61.344  0.00  0.00     0.036 H 
ATOM     79  H39 non d ame      -7.301  11.425  61.840  0.00  0.00     0.036 H 
ATOM     80  N5  non d ame      -7.722   8.455  62.464  0.00  0.00    -0.049 N 
ATOM     81  H40 non d ame      -8.035   9.306  60.535  0.00  0.00     0.075 H 
ATOM     82  H41 non d ame      -6.426   9.774  61.406  0.00  0.00     0.075 H 
ATOM     83  C28 non d ame      -8.207   9.196  63.813  0.00  0.00     0.193 C 
ATOM     84  H42 non d ame      -8.484   7.894  62.112  0.00  0.00     0.280 HD
ATOM     85  H43 non d ame      -6.822   8.031  62.637  0.00  0.00     0.280 HD
ATOM     86  H44 non d ame      -7.524   9.323  64.652  0.00  0.00     0.129 H 
ATOM     87  H37 non d ame      -7.783  10.879  64.255  0.00  0.00     0.046 H 
BRANCH  83  88
ATOM     88  O6  non d ame      -9.355   8.537  64.352  0.00  0.00    -0.369 OA
ATOM     89  H45 non d ame      -9.732   9.075  65.053  0.00  0.00     0.212 HD
ENDBRANCH  83  88
ENDBRANCH  72  75
ENDBRANCH  47  72
ENDBRANCH  45  47
ENDBRANCH   1  43
BRANCH   1  90
ATOM     90  C16 non d ame     -10.183   9.826  69.758  0.00  0.00    -0.035 C 
ATOM     91  H21 non d ame      -9.116   9.741  69.972  0.00  0.00     0.037 H 
ATOM     92  H22 non d ame     -10.652  10.809  69.711  0.00  0.00     0.037 H 
BRANCH  90  93
ATOM     93  C17 non d ame     -10.922   9.038  70.886  0.00  0.00    -0.059 C 
ATOM     94  H23 non d ame     -11.344   8.138  70.438  0.00  0.00     0.038 H 
BRANCH  93  95
ATOM     95  C18 non d ame      -9.952   8.592  72.026  0.00  0.00    -0.073 C 
ATOM     96  H24 non d ame      -9.634   7.564  71.851  0.00  0.00     0.028 H 
ATOM     97  H25 non d ame      -9.080   9.245  72.037  0.00  0.00     0.028 H 
ATOM     98  H26 non d ame     -10.466   8.655  72.986  0.00  0.00     0.028 H 
ENDBRANCH  93  95
BRANCH  93  99
ATOM     99  C19 non d ame     -12.088   9.854  71.451  0.00  0.00    -0.073 C 
ATOM    100  H27 non d ame     -12.671   9.231  72.130  0.00  0.00     0.028 H 
ATOM    101  H28 non d ame     -11.698  10.717  71.991  0.00  0.00     0.028 H 
ATOM    102  H29 non d ame     -12.723  10.195  70.633  0.00  0.00     0.028 H 
ENDBRANCH  93  99
ENDBRANCH  90  93
ENDBRANCH   1  90
TORSDOF 26
ENDMDL
MODEL 19
REMARK VINA RESULT:      -7.0      3.435      8.176
REMARK  26 active torsions:
REMARK  status: ('A' for Active; 'I' for Inactive)
REMARK    1  A    between atoms: C2_2  and  C3_3 
REMARK    2  A    between atoms: C4_6  and  C5_7 
REMARK       I    between atoms: C5_7  and  N2_9 
REMARK    3  A    between atoms: N2_9  and  C6_10 
REMARK    4  A    between atoms: C6_10  and  C7_11 
REMARK    5  A    between atoms: C6_10  and  C8_13 
REMARK       I    between atoms: C7_11  and  N3_14 
REMARK    6  A    between atoms: N3_14  and  C9_15 
REMARK    7  A    between atoms: C9_15  and  C10_16 
REMARK    8  A    between atoms: C9_15  and  C11_18 
REMARK       I    between atoms: C10_16  and  N4_21 
REMARK    9  A    between atoms: C11_18  and  C12_19 
REMARK   10  A    between atoms: C11_18  and  C13_20 
REMARK   11  A    between atoms: N4_21  and  C14_22 
REMARK   12  A    between atoms: C14_22  and  C15_23 
REMARK   13  A    between atoms: C14_22  and  C16_25 
REMARK       I    between atoms: C15_23  and  N6_40 
REMARK   14  A    between atoms: C16_25  and  C17_26 
REMARK   15  A    between atoms: C17_26  and  C18_27 
REMARK   16  A    between atoms: C17_26  and  C19_28 
REMARK   17  A    between atoms: C20_29  and  C21_30 
REMARK   18  A    between atoms: C20_29  and  C24_33 
REMARK   19  A    between atoms: C20_29  and  N6_40 
REMARK   20  A    between atoms: C21_30  and  C22_31 
REMARK   21  A    between atoms: C22_31  and  C23_32 
REMARK   22  A    between atoms: C23_32  and  O8_43 
REMARK   23  A    between atoms: C24_33  and  C25_34 
REMARK   24  A    between atoms: C28_38  and  O6_39 
REMARK   25  A    between atoms: C29_42  and  O8_43 
REMARK   26  A    between atoms: C29_42  and  C35_49 
ROOT
ATOM      1  C14 non d ame     -10.896   9.473  70.038  0.00  0.00     0.089 C 
ATOM      2  H20 non d ame     -11.298   8.599  69.524  0.00  0.00     0.087 H 
ENDROOT
BRANCH   1   3
ATOM      3  N4  non d ame      -9.707   9.899  69.316  0.00  0.00    -0.346 N 
ATOM      4  C10 non d ame      -9.622   9.728  67.819  0.00  0.00     0.241 C 
ATOM      5  O4  non d ame     -10.524   9.242  67.219  0.00  0.00    -0.271 OA
ATOM      6  H19 non d ame      -8.949  10.308  69.844  0.00  0.00     0.163 HD
BRANCH   4   7
ATOM      7  C9  non d ame      -8.387  10.178  67.086  0.00  0.00     0.092 C 
ATOM      8  H11 non d ame      -8.634  11.033  66.456  0.00  0.00     0.088 H 
BRANCH   7   9
ATOM      9  N3  non d ame      -7.382  10.632  68.054  0.00  0.00    -0.346 N 
ATOM     10  C7  non d ame      -6.958  12.010  68.060  0.00  0.00     0.240 C 
ATOM     11  O3  non d ame      -7.413  12.768  67.293  0.00  0.00    -0.271 OA
ATOM     12  H10 non d ame      -6.980   9.989  68.721  0.00  0.00     0.163 HD
BRANCH  10  13
ATOM     13  C6  non d ame      -5.887  12.485  69.090  0.00  0.00     0.086 C 
ATOM     14  H6  non d ame      -4.871  12.433  68.698  0.00  0.00     0.086 H 
BRANCH  13  15
ATOM     15  N2  non d ame      -6.135  13.880  69.418  0.00  0.00    -0.343 N 
ATOM     16  C5  non d ame      -5.003  14.776  69.662  0.00  0.00     0.273 C 
ATOM     17  O2  non d ame      -3.897  14.365  69.596  0.00  0.00    -0.266 OA
ATOM     18  H5  non d ame      -7.083  14.222  69.476  0.00  0.00     0.163 HD
BRANCH  16  19
ATOM     19  C4  non d ame      -5.251  16.252  70.009  0.00  0.00     0.154 A 
ATOM     20  C1  non d ame      -5.950  17.221  69.220  0.00  0.00    -0.017 A 
ATOM     21  C2  non d ame      -5.899  18.412  69.977  0.00  0.00     0.077 A 
ATOM     22  H1  non d ame      -6.423  17.080  68.248  0.00  0.00     0.091 H 
ATOM     23  O1  non d ame      -5.247  18.148  71.071  0.00  0.00    -0.218 OA
ATOM     24  N1  non d ame      -4.858  16.894  71.113  0.00  0.00    -0.123 NA
BRANCH  21  25
ATOM     25  C3  non d ame      -6.499  19.755  69.585  0.00  0.00    -0.029 C 
ATOM     26  H2  non d ame      -6.227  20.506  70.327  0.00  0.00     0.036 H 
ATOM     27  H3  non d ame      -6.116  20.053  68.609  0.00  0.00     0.036 H 
ATOM     28  H4  non d ame      -7.585  19.669  69.537  0.00  0.00     0.036 H 
ENDBRANCH  21  25
ENDBRANCH  16  19
ENDBRANCH  13  15
BRANCH  13  29
ATOM     29  C8  non d ame      -5.972  11.639  70.335  0.00  0.00    -0.049 C 
ATOM     30  H7  non d ame      -6.950  11.771  70.798  0.00  0.00     0.030 H 
ATOM     31  H8  non d ame      -5.832  10.591  70.074  0.00  0.00     0.030 H 
ATOM     32  H9  non d ame      -5.195  11.946  71.036  0.00  0.00     0.030 H 
ENDBRANCH  13  29
ENDBRANCH  10  13
ENDBRANCH   7   9
BRANCH   7  33
ATOM     33  C11 non d ame      -7.810   8.990  66.262  0.00  0.00    -0.033 C 
ATOM     34  H12 non d ame      -8.437   8.121  66.456  0.00  0.00     0.042 H 
BRANCH  33  35
ATOM     35  C12 non d ame      -7.868   9.280  64.730  0.00  0.00    -0.071 C 
ATOM     36  H13 non d ame      -6.857   9.411  64.346  0.00  0.00     0.028 H 
ATOM     37  H14 non d ame      -8.345   8.444  64.220  0.00  0.00     0.028 H 
ATOM     38  H15 non d ame      -8.443  10.189  64.555  0.00  0.00     0.028 H 
ENDBRANCH  33  35
BRANCH  33  39
ATOM     39  C13 non d ame      -6.355   8.648  66.718  0.00  0.00    -0.071 C 
ATOM     40  H16 non d ame      -6.052   7.696  66.281  0.00  0.00     0.028 H 
ATOM     41  H17 non d ame      -5.675   9.433  66.384  0.00  0.00     0.028 H 
ATOM     42  H18 non d ame      -6.321   8.577  67.805  0.00  0.00     0.028 H 
ENDBRANCH  33  39
ENDBRANCH   7  33
ENDBRANCH   4   7
ENDBRANCH   1   3
BRANCH   1  43
ATOM     43  C15 non d ame     -11.907  10.655  70.066  0.00  0.00     0.240 C 
ATOM     44  O5  non d ame     -13.062  10.441  70.244  0.00  0.00    -0.271 OA
ATOM     45  N6  non d ame     -11.433  12.056  69.880  0.00  0.00    -0.355 N 
ATOM     46  H46 non d ame     -10.453  12.250  69.732  0.00  0.00     0.162 HD
BRANCH  45  47
ATOM     47  C20 non d ame     -12.406  13.169  69.909  0.00  0.00     0.013 C 
ATOM     48  H30 non d ame     -13.306  12.842  69.389  0.00  0.00     0.072 H 
BRANCH  47  49
ATOM     49  C21 non d ame     -11.813  14.371  69.210  0.00  0.00    -0.038 C 
ATOM     50  H31 non d ame     -12.591  14.735  68.539  0.00  0.00     0.036 H 
ATOM     51  H32 non d ame     -11.432  15.015  70.003  0.00  0.00     0.036 H 
BRANCH  49  52
ATOM     52  C22 non d ame     -10.603  14.011  68.321  0.00  0.00     0.018 C 
ATOM     53  H33 non d ame      -9.753  14.544  68.748  0.00  0.00     0.048 H 
ATOM     54  H34 non d ame     -10.591  12.923  68.266  0.00  0.00     0.048 H 
BRANCH  52  55
ATOM     55  C23 non d ame     -10.730  14.513  66.855  0.00  0.00     0.259 C 
ATOM     56  O7  non d ame     -11.629  14.148  66.169  0.00  0.00    -0.265 OA
BRANCH  55  57
ATOM     57  O8  non d ame      -9.751  15.405  66.337  0.00  0.00    -0.317 OA
BRANCH  57  58
ATOM     58  C29 non d ame      -8.894  15.970  67.334  0.00  0.00     0.052 C 
ATOM     59  H47 non d ame      -9.248  15.576  68.285  0.00  0.00     0.082 H 
ATOM     60  H48 non d ame      -7.878  15.761  67.001  0.00  0.00     0.082 H 
BRANCH  58  61
ATOM     61  C35 non d ame      -9.106  17.508  67.329  0.00  0.00    -0.034 A 
ATOM     62  C30 non d ame      -8.488  18.294  66.362  0.00  0.00    -0.075 A 
ATOM     63  C31 non d ame      -8.679  19.675  66.359  0.00  0.00    -0.082 A 
ATOM     64  H49 non d ame      -7.856  17.828  65.606  0.00  0.00     0.084 H 
ATOM     65  C32 non d ame      -9.487  20.270  67.331  0.00  0.00    -0.083 A 
ATOM     66  H50 non d ame      -8.196  20.288  65.597  0.00  0.00     0.083 H 
ATOM     67  C33 non d ame     -10.098  19.482  68.297  0.00  0.00    -0.082 A 
ATOM     68  H51 non d ame      -9.642  21.349  67.335  0.00  0.00     0.083 H 
ATOM     69  C34 non d ame      -9.913  18.101  68.302  0.00  0.00    -0.075 A 
ATOM     70  H52 non d ame     -10.727  19.950  69.055  0.00  0.00     0.083 H 
ATOM     71  H53 non d ame     -10.398  17.489  69.063  0.00  0.00     0.084 H 
ENDBRANCH  58  61
ENDBRANCH  57  58
ENDBRANCH  55  57
ENDBRANCH  52  55
ENDBRANCH  49  52
ENDBRANCH  47  49
BRANCH  47  72
ATOM     72  C24 non d ame     -12.732  13.530  71.357  0.00  0.00    -0.039 C 
ATOM     73  H35 non d ame     -13.745  13.162  71.526  0.00  0.00     0.036 H 
ATOM     74  H36 non d ame     -11.905  13.137  71.948  0.00  0.00     0.036 H 
BRANCH  72  75
ATOM     75  C25 non d ame     -12.762  15.116  71.581  0.00  0.00    -0.001 C 
ATOM     76  C26 non d ame     -11.762  15.525  72.821  0.00  0.00    -0.035 C 
ATOM     77  C27 non d ame     -12.447  16.301  73.695  0.00  0.00     0.085 C 
ATOM     78  H38 non d ame     -11.512  14.641  73.407  0.00  0.00     0.036 H 
ATOM     79  H39 non d ame     -10.971  16.183  72.462  0.00  0.00     0.036 H 
ATOM     80  N5  non d ame     -13.909  16.188  73.334  0.00  0.00    -0.049 N 
ATOM     81  H40 non d ame     -12.287  15.848  74.674  0.00  0.00     0.075 H 
ATOM     82  H41 non d ame     -12.112  17.320  73.504  0.00  0.00     0.075 H 
ATOM     83  C28 non d ame     -13.953  15.528  71.862  0.00  0.00     0.193 C 
ATOM     84  H42 non d ame     -14.316  15.539  73.990  0.00  0.00     0.280 HD
ATOM     85  H43 non d ame     -14.262  17.133  73.272  0.00  0.00     0.280 HD
ATOM     86  H44 non d ame     -14.163  16.140  70.985  0.00  0.00     0.129 H 
ATOM     87  H37 non d ame     -12.644  15.667  70.647  0.00  0.00     0.046 H 
BRANCH  83  88
ATOM     88  O6  non d ame     -14.911  14.468  71.825  0.00  0.00    -0.369 OA
ATOM     89  H45 non d ame     -14.464  13.628  71.957  0.00  0.00     0.212 HD
ENDBRANCH  83  88
ENDBRANCH  72  75
ENDBRANCH  47  72
ENDBRANCH  45  47
ENDBRANCH   1  43
BRANCH   1  90
ATOM     90  C16 non d ame     -10.506   9.101  71.459  0.00  0.00    -0.035 C 
ATOM     91  H21 non d ame      -9.438   9.311  71.530  0.00  0.00     0.037 H 
ATOM     92  H22 non d ame     -11.209   9.631  72.100  0.00  0.00     0.037 H 
BRANCH  90  93
ATOM     93  C17 non d ame     -10.678   7.581  71.778  0.00  0.00    -0.059 C 
ATOM     94  H23 non d ame      -9.908   7.039  71.230  0.00  0.00     0.038 H 
BRANCH  93  95
ATOM     95  C18 non d ame     -10.486   7.273  73.298  0.00  0.00    -0.073 C 
ATOM     96  H24 non d ame     -10.290   8.201  73.835  0.00  0.00     0.028 H 
ATOM     97  H25 non d ame     -11.391   6.810  73.691  0.00  0.00     0.028 H 
ATOM     98  H26 non d ame      -9.644   6.592  73.427  0.00  0.00     0.028 H 
ENDBRANCH  93  95
BRANCH  93  99
ATOM     99  C19 non d ame     -12.033   7.068  71.285  0.00  0.00    -0.073 C 
ATOM    100  H27 non d ame     -12.597   6.665  72.127  0.00  0.00     0.028 H 
ATOM    101  H28 non d ame     -12.589   7.890  70.834  0.00  0.00     0.028 H 
ATOM    102  H29 non d ame     -11.878   6.285  70.543  0.00  0.00     0.028 H 
ENDBRANCH  93  99
ENDBRANCH  90  93
ENDBRANCH   1  90
TORSDOF 26
ENDMDL
MODEL 20
REMARK VINA RESULT:      -7.0      3.735      7.888
REMARK  26 active torsions:
REMARK  status: ('A' for Active; 'I' for Inactive)
REMARK    1  A    between atoms: C2_2  and  C3_3 
REMARK    2  A    between atoms: C4_6  and  C5_7 
REMARK       I    between atoms: C5_7  and  N2_9 
REMARK    3  A    between atoms: N2_9  and  C6_10 
REMARK    4  A    between atoms: C6_10  and  C7_11 
REMARK    5  A    between atoms: C6_10  and  C8_13 
REMARK       I    between atoms: C7_11  and  N3_14 
REMARK    6  A    between atoms: N3_14  and  C9_15 
REMARK    7  A    between atoms: C9_15  and  C10_16 
REMARK    8  A    between atoms: C9_15  and  C11_18 
REMARK       I    between atoms: C10_16  and  N4_21 
REMARK    9  A    between atoms: C11_18  and  C12_19 
REMARK   10  A    between atoms: C11_18  and  C13_20 
REMARK   11  A    between atoms: N4_21  and  C14_22 
REMARK   12  A    between atoms: C14_22  and  C15_23 
REMARK   13  A    between atoms: C14_22  and  C16_25 
REMARK       I    between atoms: C15_23  and  N6_40 
REMARK   14  A    between atoms: C16_25  and  C17_26 
REMARK   15  A    between atoms: C17_26  and  C18_27 
REMARK   16  A    between atoms: C17_26  and  C19_28 
REMARK   17  A    between atoms: C20_29  and  C21_30 
REMARK   18  A    between atoms: C20_29  and  C24_33 
REMARK   19  A    between atoms: C20_29  and  N6_40 
REMARK   20  A    between atoms: C21_30  and  C22_31 
REMARK   21  A    between atoms: C22_31  and  C23_32 
REMARK   22  A    between atoms: C23_32  and  O8_43 
REMARK   23  A    between atoms: C24_33  and  C25_34 
REMARK   24  A    between atoms: C28_38  and  O6_39 
REMARK   25  A    between atoms: C29_42  and  O8_43 
REMARK   26  A    between atoms: C29_42  and  C35_49 
ROOT
ATOM      1  C14 non d ame      -6.975   9.303  64.950  0.00  0.00     0.089 C 
ATOM      2  H20 non d ame      -5.957   9.590  65.216  0.00  0.00     0.087 H 
ENDROOT
BRANCH   1   3
ATOM      3  N4  non d ame      -7.269   8.051  65.630  0.00  0.00    -0.346 N 
ATOM      4  C10 non d ame      -6.237   7.407  66.522  0.00  0.00     0.241 C 
ATOM      5  O4  non d ame      -5.175   7.915  66.674  0.00  0.00    -0.271 OA
ATOM      6  H19 non d ame      -8.177   7.632  65.485  0.00  0.00     0.163 HD
BRANCH   4   7
ATOM      7  C9  non d ame      -6.560   6.113  67.222  0.00  0.00     0.092 C 
ATOM      8  H11 non d ame      -6.248   6.181  68.264  0.00  0.00     0.088 H 
BRANCH   7   9
ATOM      9  N3  non d ame      -8.012   5.905  67.219  0.00  0.00    -0.346 N 
ATOM     10  C7  non d ame      -8.790   6.233  68.387  0.00  0.00     0.240 C 
ATOM     11  O3  non d ame      -8.265   6.665  69.340  0.00  0.00    -0.271 OA
ATOM     12  H10 non d ame      -8.478   5.532  66.404  0.00  0.00     0.163 HD
BRANCH  10  13
ATOM     13  C6  non d ame     -10.334   6.006  68.378  0.00  0.00     0.086 C 
ATOM     14  H6  non d ame     -10.632   5.112  68.925  0.00  0.00     0.086 H 
BRANCH  13  15
ATOM     15  N2  non d ame     -10.979   7.130  69.035  0.00  0.00    -0.343 N 
ATOM     16  C5  non d ame     -11.545   6.956  70.375  0.00  0.00     0.273 C 
ATOM     17  O2  non d ame     -11.478   5.907  70.914  0.00  0.00    -0.266 OA
ATOM     18  H5  non d ame     -11.034   8.023  68.566  0.00  0.00     0.163 HD
BRANCH  16  19
ATOM     19  C4  non d ame     -12.229   8.137  71.081  0.00  0.00     0.154 A 
ATOM     20  C1  non d ame     -12.071   9.529  70.789  0.00  0.00    -0.017 A 
ATOM     21  C2  non d ame     -12.908  10.191  71.713  0.00  0.00     0.077 A 
ATOM     22  H1  non d ame     -11.444   9.987  70.024  0.00  0.00     0.091 H 
ATOM     23  O1  non d ame     -13.478   9.278  72.444  0.00  0.00    -0.218 OA
ATOM     24  N1  non d ame     -13.097   8.071  72.094  0.00  0.00    -0.123 NA
BRANCH  21  25
ATOM     25  C3  non d ame     -13.109  11.697  71.830  0.00  0.00    -0.029 C 
ATOM     26  H2  non d ame     -13.786  12.035  71.046  0.00  0.00     0.036 H 
ATOM     27  H3  non d ame     -13.534  11.932  72.805  0.00  0.00     0.036 H 
ATOM     28  H4  non d ame     -12.147  12.201  71.722  0.00  0.00     0.036 H 
ENDBRANCH  21  25
ENDBRANCH  16  19
ENDBRANCH  13  15
BRANCH  13  29
ATOM     29  C8  non d ame     -10.819   5.891  66.956  0.00  0.00    -0.049 C 
ATOM     30  H7  non d ame     -11.873   5.609  66.953  0.00  0.00     0.030 H 
ATOM     31  H8  non d ame     -10.698   6.849  66.451  0.00  0.00     0.030 H 
ATOM     32  H9  non d ame     -10.240   5.129  66.434  0.00  0.00     0.030 H 
ENDBRANCH  13  29
ENDBRANCH  10  13
ENDBRANCH   7   9
BRANCH   7  33
ATOM     33  C11 non d ame      -5.867   4.934  66.479  0.00  0.00    -0.033 C 
ATOM     34  H12 non d ame      -6.065   5.054  65.415  0.00  0.00     0.042 H 
BRANCH  33  35
ATOM     35  C12 non d ame      -4.319   4.970  66.676  0.00  0.00    -0.071 C 
ATOM     36  H13 non d ame      -3.920   5.892  66.254  0.00  0.00     0.028 H 
ATOM     37  H14 non d ame      -4.087   4.926  67.739  0.00  0.00     0.028 H 
ATOM     38  H15 non d ame      -3.871   4.115  66.170  0.00  0.00     0.028 H 
ENDBRANCH  33  35
BRANCH  33  39
ATOM     39  C13 non d ame      -6.463   3.562  66.930  0.00  0.00    -0.071 C 
ATOM     40  H16 non d ame      -7.070   3.147  66.125  0.00  0.00     0.028 H 
ATOM     41  H17 non d ame      -5.651   2.872  67.165  0.00  0.00     0.028 H 
ATOM     42  H18 non d ame      -7.082   3.707  67.815  0.00  0.00     0.028 H 
ENDBRANCH  33  39
ENDBRANCH   7  33
ENDBRANCH   4   7
ENDBRANCH   1   3
BRANCH   1  43
ATOM     43  C15 non d ame      -8.020  10.365  65.395  0.00  0.00     0.240 C 
ATOM     44  O5  non d ame      -8.990  10.553  64.735  0.00  0.00    -0.271 OA
ATOM     45  N6  non d ame      -7.816  11.142  66.651  0.00  0.00    -0.355 N 
ATOM     46  H46 non d ame      -6.998  10.987  67.222  0.00  0.00     0.162 HD
BRANCH  45  47
ATOM     47  C20 non d ame      -8.819  12.147  67.062  0.00  0.00     0.013 C 
ATOM     48  H30 non d ame      -9.246  12.584  66.159  0.00  0.00     0.072 H 
BRANCH  47  49
ATOM     49  C21 non d ame      -8.144  13.221  67.885  0.00  0.00    -0.038 C 
ATOM     50  H31 non d ame      -8.393  12.997  68.922  0.00  0.00     0.036 H 
ATOM     51  H32 non d ame      -7.103  13.228  67.563  0.00  0.00     0.036 H 
BRANCH  49  52
ATOM     52  C22 non d ame      -8.699  14.633  67.597  0.00  0.00     0.018 C 
ATOM     53  H33 non d ame      -7.924  15.145  67.026  0.00  0.00     0.048 H 
ATOM     54  H34 non d ame      -9.686  14.480  67.161  0.00  0.00     0.048 H 
BRANCH  52  55
ATOM     55  C23 non d ame      -8.925  15.490  68.875  0.00  0.00     0.259 C 
ATOM     56  O7  non d ame      -8.176  16.370  69.150  0.00  0.00    -0.265 OA
BRANCH  55  57
ATOM     57  O8  non d ame     -10.030  15.200  69.721  0.00  0.00    -0.317 OA
BRANCH  57  58
ATOM     58  C29 non d ame     -10.962  16.279  69.850  0.00  0.00     0.052 C 
ATOM     59  H47 non d ame     -10.379  17.133  70.190  0.00  0.00     0.082 H 
ATOM     60  H48 non d ame     -11.492  16.325  68.899  0.00  0.00     0.082 H 
BRANCH  58  61
ATOM     61  C35 non d ame     -11.979  15.902  70.961  0.00  0.00    -0.034 A 
ATOM     62  C30 non d ame     -11.607  15.972  72.299  0.00  0.00    -0.075 A 
ATOM     63  C31 non d ame     -12.521  15.635  73.297  0.00  0.00    -0.082 A 
ATOM     64  H49 non d ame     -10.600  16.293  72.567  0.00  0.00     0.084 H 
ATOM     65  C32 non d ame     -13.810  15.221  72.951  0.00  0.00    -0.083 A 
ATOM     66  H50 non d ame     -12.227  15.694  74.345  0.00  0.00     0.083 H 
ATOM     67  C33 non d ame     -14.176  15.149  71.613  0.00  0.00    -0.082 A 
ATOM     68  H51 non d ame     -14.530  14.956  73.725  0.00  0.00     0.083 H 
ATOM     69  C34 non d ame     -13.266  15.488  70.614  0.00  0.00    -0.075 A 
ATOM     70  H52 non d ame     -15.182  14.824  71.347  0.00  0.00     0.083 H 
ATOM     71  H53 non d ame     -13.562  15.430  69.565  0.00  0.00     0.084 H 
ENDBRANCH  58  61
ENDBRANCH  57  58
ENDBRANCH  55  57
ENDBRANCH  52  55
ENDBRANCH  49  52
ENDBRANCH  47  49
BRANCH  47  72
ATOM     72  C24 non d ame      -9.911  11.477  67.894  0.00  0.00    -0.039 C 
ATOM     73  H35 non d ame      -9.798  10.408  67.712  0.00  0.00     0.036 H 
ATOM     74  H36 non d ame      -9.791  11.873  68.903  0.00  0.00     0.036 H 
BRANCH  72  75
ATOM     75  C25 non d ame     -11.376  11.890  67.395  0.00  0.00    -0.001 C 
ATOM     76  C26 non d ame     -11.269  12.745  65.994  0.00  0.00    -0.035 C 
ATOM     77  C27 non d ame     -11.980  13.890  66.128  0.00  0.00     0.085 C 
ATOM     78  H38 non d ame     -10.248  13.094  65.846  0.00  0.00     0.036 H 
ATOM     79  H39 non d ame     -11.787  12.217  65.194  0.00  0.00     0.036 H 
ATOM     80  N5  non d ame     -12.288  14.049  67.598  0.00  0.00    -0.049 N 
ATOM     81  H40 non d ame     -11.305  14.689  65.818  0.00  0.00     0.075 H 
ATOM     82  H41 non d ame     -12.910  13.721  65.587  0.00  0.00     0.075 H 
ATOM     83  C28 non d ame     -11.983  12.615  68.274  0.00  0.00     0.193 C 
ATOM     84  H42 non d ame     -11.627  14.722  67.958  0.00  0.00     0.280 HD
ATOM     85  H43 non d ame     -13.280  14.230  67.664  0.00  0.00     0.280 HD
ATOM     86  H44 non d ame     -12.798  11.949  68.552  0.00  0.00     0.129 H 
ATOM     87  H37 non d ame     -12.069  11.048  67.411  0.00  0.00     0.046 H 
BRANCH  83  88
ATOM     88  O6  non d ame     -11.206  12.785  69.461  0.00  0.00    -0.369 OA
ATOM     89  H45 non d ame     -10.712  13.606  69.405  0.00  0.00     0.212 HD
ENDBRANCH  83  88
ENDBRANCH  72  75
ENDBRANCH  47  72
ENDBRANCH  45  47
ENDBRANCH   1  43
BRANCH   1  90
ATOM     90  C16 non d ame      -7.072   9.087  63.449  0.00  0.00    -0.035 C 
ATOM     91  H21 non d ame      -7.618   8.150  63.327  0.00  0.00     0.037 H 
ATOM     92  H22 non d ame      -7.485  10.013  63.050  0.00  0.00     0.037 H 
BRANCH  90  93
ATOM     93  C17 non d ame      -5.689   8.884  62.753  0.00  0.00    -0.059 C 
ATOM     94  H23 non d ame      -5.811   9.129  61.698  0.00  0.00     0.038 H 
BRANCH  93  95
ATOM     95  C18 non d ame      -4.590   9.828  63.338  0.00  0.00    -0.073 C 
ATOM     96  H24 non d ame      -5.063  10.707  63.776  0.00  0.00     0.028 H 
ATOM     97  H25 non d ame      -4.027   9.298  64.105  0.00  0.00     0.028 H 
ATOM     98  H26 non d ame      -3.915  10.138  62.540  0.00  0.00     0.028 H 
ENDBRANCH  93  95
BRANCH  93  99
ATOM     99  C19 non d ame      -5.246   7.420  62.830  0.00  0.00    -0.073 C 
ATOM    100  H27 non d ame      -4.293   7.357  63.356  0.00  0.00     0.028 H 
ATOM    101  H28 non d ame      -5.998   6.843  63.369  0.00  0.00     0.028 H 
ATOM    102  H29 non d ame      -5.135   7.020  61.823  0.00  0.00     0.028 H 
ENDBRANCH  93  99
ENDBRANCH  90  93
ENDBRANCH   1  90
TORSDOF 26
ENDMDL
