MODEL 1
REMARK VINA RESULT:      -6.6      0.000      0.000
REMARK  26 active torsions:
REMARK  status: ('A' for Active; 'I' for Inactive)
REMARK    1  A    between atoms: C2_2  and  C3_3 
REMARK    2  A    between atoms: C4_6  and  C5_7 
REMARK       I    between atoms: C5_7  and  N2_9 
REMARK    3  A    between atoms: N2_9  and  C6_10 
REMARK    4  A    between atoms: C6_10  and  C7_11 
REMARK    5  A    between atoms: C6_10  and  C8_13 
REMARK       I    between atoms: C7_11  and  N3_14 
REMARK    6  A    between atoms: N3_14  and  C9_15 
REMARK    7  A    between atoms: C9_15  and  C10_16 
REMARK    8  A    between atoms: C9_15  and  C11_18 
REMARK       I    between atoms: C10_16  and  N4_21 
REMARK    9  A    between atoms: C11_18  and  C12_19 
REMARK   10  A    between atoms: C11_18  and  C13_20 
REMARK   11  A    between atoms: N4_21  and  C14_22 
REMARK   12  A    between atoms: C14_22  and  C15_23 
REMARK   13  A    between atoms: C14_22  and  C16_25 
REMARK       I    between atoms: C15_23  and  N6_40 
REMARK   14  A    between atoms: C16_25  and  C17_26 
REMARK   15  A    between atoms: C17_26  and  C18_27 
REMARK   16  A    between atoms: C17_26  and  C19_28 
REMARK   17  A    between atoms: C20_29  and  C21_30 
REMARK   18  A    between atoms: C20_29  and  C24_33 
REMARK   19  A    between atoms: C20_29  and  N6_40 
REMARK   20  A    between atoms: C21_30  and  C22_31 
REMARK   21  A    between atoms: C22_31  and  C23_32 
REMARK   22  A    between atoms: C23_32  and  O8_43 
REMARK   23  A    between atoms: C24_33  and  C25_34 
REMARK   24  A    between atoms: C28_38  and  O6_39 
REMARK   25  A    between atoms: C29_42  and  O8_43 
REMARK   26  A    between atoms: C29_42  and  C35_49 
ROOT
ATOM      1  C14 non d ame     -10.105   9.211  66.721  0.00  0.00     0.089 C 
ATOM      2  H20 non d ame     -11.114   8.797  66.745  0.00  0.00     0.087 H 
ENDROOT
BRANCH   1   3
ATOM      3  N4  non d ame     -10.217  10.618  66.366  0.00  0.00    -0.346 N 
ATOM      4  C10 non d ame     -11.312  11.468  66.961  0.00  0.00     0.241 C 
ATOM      5  O4  non d ame     -12.093  10.996  67.720  0.00  0.00    -0.271 OA
ATOM      6  H19 non d ame      -9.545  11.000  65.716  0.00  0.00     0.163 HD
BRANCH   4   7
ATOM      7  C9  non d ame     -11.411  12.924  66.587  0.00  0.00     0.092 C 
ATOM      8  H11 non d ame     -12.443  13.254  66.701  0.00  0.00     0.088 H 
BRANCH   7   9
ATOM      9  N3  non d ame     -10.597  13.722  67.510  0.00  0.00    -0.346 N 
ATOM     10  C7  non d ame     -11.226  14.429  68.597  0.00  0.00     0.240 C 
ATOM     11  O3  non d ame     -12.385  14.369  68.746  0.00  0.00    -0.271 OA
ATOM     12  H10 non d ame      -9.595  13.784  67.395  0.00  0.00     0.163 HD
BRANCH  10  13
ATOM     13  C6  non d ame     -10.354  15.279  69.574  0.00  0.00     0.086 C 
ATOM     14  H6  non d ame      -9.460  14.753  69.909  0.00  0.00     0.086 H 
BRANCH  13  15
ATOM     15  N2  non d ame      -9.899  16.474  68.882  0.00  0.00    -0.343 N 
ATOM     16  C5  non d ame      -8.675  16.421  68.079  0.00  0.00     0.273 C 
ATOM     17  O2  non d ame      -8.062  15.413  68.001  0.00  0.00    -0.266 OA
ATOM     18  H5  non d ame     -10.428  17.331  68.957  0.00  0.00     0.163 HD
BRANCH  16  19
ATOM     19  C4  non d ame      -8.183  17.675  67.342  0.00  0.00     0.154 A 
ATOM     20  C1  non d ame      -7.438  18.766  67.892  0.00  0.00    -0.017 A 
ATOM     21  C2  non d ame      -7.239  19.653  66.811  0.00  0.00     0.077 A 
ATOM     22  H1  non d ame      -7.094  18.894  68.919  0.00  0.00     0.091 H 
ATOM     23  O1  non d ame      -7.805  19.123  65.766  0.00  0.00    -0.218 OA
ATOM     24  N1  non d ame      -8.363  17.969  66.051  0.00  0.00    -0.123 NA
BRANCH  21  25
ATOM     25  C3  non d ame      -6.497  20.982  66.859  0.00  0.00    -0.029 C 
ATOM     26  H2  non d ame      -6.469  21.345  67.887  0.00  0.00     0.036 H 
ATOM     27  H3  non d ame      -5.479  20.843  66.496  0.00  0.00     0.036 H 
ATOM     28  H4  non d ame      -7.011  21.709  66.230  0.00  0.00     0.036 H 
ENDBRANCH  21  25
ENDBRANCH  16  19
ENDBRANCH  13  15
BRANCH  13  29
ATOM     29  C8  non d ame     -11.174  15.662  70.780  0.00  0.00    -0.049 C 
ATOM     30  H7  non d ame     -11.976  14.937  70.919  0.00  0.00     0.030 H 
ATOM     31  H8  non d ame     -10.538  15.675  71.664  0.00  0.00     0.030 H 
ATOM     32  H9  non d ame     -11.604  16.652  70.627  0.00  0.00     0.030 H 
ENDBRANCH  13  29
ENDBRANCH  10  13
ENDBRANCH   7   9
BRANCH   7  33
ATOM     33  C11 non d ame     -10.889  13.122  65.134  0.00  0.00    -0.033 C 
ATOM     34  H12 non d ame     -10.088  12.402  64.971  0.00  0.00     0.042 H 
BRANCH  33  35
ATOM     35  C12 non d ame     -12.006  12.830  64.084  0.00  0.00    -0.071 C 
ATOM     36  H13 non d ame     -12.345  13.768  63.644  0.00  0.00     0.028 H 
ATOM     37  H14 non d ame     -11.608  12.185  63.301  0.00  0.00     0.028 H 
ATOM     38  H15 non d ame     -12.843  12.335  64.574  0.00  0.00     0.028 H 
ENDBRANCH  33  35
BRANCH  33  39
ATOM     39  C13 non d ame     -10.295  14.556  64.945  0.00  0.00    -0.071 C 
ATOM     40  H16 non d ame      -9.208  14.506  64.983  0.00  0.00     0.028 H 
ATOM     41  H17 non d ame     -10.607  14.953  63.978  0.00  0.00     0.028 H 
ATOM     42  H18 non d ame     -10.658  15.207  65.739  0.00  0.00     0.028 H 
ENDBRANCH  33  39
ENDBRANCH   7  33
ENDBRANCH   4   7
ENDBRANCH   1   3
BRANCH   1  43
ATOM     43  C15 non d ame      -9.392   9.103  68.099  0.00  0.00     0.240 C 
ATOM     44  O5  non d ame      -8.403   9.728  68.304  0.00  0.00    -0.271 OA
ATOM     45  N6  non d ame      -9.950   8.227  69.169  0.00  0.00    -0.355 N 
ATOM     46  H46 non d ame     -10.793   7.695  69.008  0.00  0.00     0.162 HD
BRANCH  45  47
ATOM     47  C20 non d ame      -9.262   8.137  70.474  0.00  0.00     0.013 C 
ATOM     48  H30 non d ame      -8.308   8.657  70.388  0.00  0.00     0.072 H 
BRANCH  47  49
ATOM     49  C21 non d ame      -9.027   6.683  70.817  0.00  0.00    -0.038 C 
ATOM     50  H31 non d ame      -8.032   6.449  70.439  0.00  0.00     0.036 H 
ATOM     51  H32 non d ame      -9.241   6.593  71.882  0.00  0.00     0.036 H 
BRANCH  49  52
ATOM     52  C22 non d ame     -10.004   5.732  70.093  0.00  0.00     0.018 C 
ATOM     53  H33 non d ame     -10.318   5.004  70.841  0.00  0.00     0.048 H 
ATOM     54  H34 non d ame     -10.744   6.374  69.616  0.00  0.00     0.048 H 
BRANCH  52  55
ATOM     55  C23 non d ame      -9.348   4.911  68.948  0.00  0.00     0.259 C 
ATOM     56  O7  non d ame      -9.293   3.726  69.010  0.00  0.00    -0.265 OA
BRANCH  55  57
ATOM     57  O8  non d ame      -8.798   5.594  67.828  0.00  0.00    -0.317 OA
BRANCH  57  58
ATOM     58  C29 non d ame      -7.594   5.008  67.322  0.00  0.00     0.052 C 
ATOM     59  H47 non d ame      -6.779   5.561  67.788  0.00  0.00     0.082 H 
ATOM     60  H48 non d ame      -7.694   3.937  67.494  0.00  0.00     0.082 H 
BRANCH  58  61
ATOM     61  C35 non d ame      -7.547   5.257  65.791  0.00  0.00    -0.034 A 
ATOM     62  C30 non d ame      -8.671   5.011  65.009  0.00  0.00    -0.075 A 
ATOM     63  C31 non d ame      -8.627   5.235  63.634  0.00  0.00    -0.082 A 
ATOM     64  H49 non d ame      -9.586   4.643  65.474  0.00  0.00     0.084 H 
ATOM     65  C32 non d ame      -7.453   5.703  63.040  0.00  0.00    -0.083 A 
ATOM     66  H50 non d ame      -9.511   5.043  63.025  0.00  0.00     0.083 H 
ATOM     67  C33 non d ame      -6.332   5.945  63.824  0.00  0.00    -0.082 A 
ATOM     68  H51 non d ame      -7.411   5.882  61.966  0.00  0.00     0.083 H 
ATOM     69  C34 non d ame      -6.372   5.725  65.199  0.00  0.00    -0.075 A 
ATOM     70  H52 non d ame      -5.417   6.309  63.356  0.00  0.00     0.083 H 
ATOM     71  H53 non d ame      -5.488   5.918  65.808  0.00  0.00     0.084 H 
ENDBRANCH  58  61
ENDBRANCH  57  58
ENDBRANCH  55  57
ENDBRANCH  52  55
ENDBRANCH  49  52
ENDBRANCH  47  49
BRANCH  47  72
ATOM     72  C24 non d ame     -10.124   8.783  71.558  0.00  0.00    -0.039 C 
ATOM     73  H35 non d ame     -10.100   8.090  72.399  0.00  0.00     0.036 H 
ATOM     74  H36 non d ame      -9.732   9.794  71.675  0.00  0.00     0.036 H 
BRANCH  72  75
ATOM     75  C25 non d ame     -11.652   8.918  71.098  0.00  0.00    -0.001 C 
ATOM     76  C26 non d ame     -12.081  10.504  71.039  0.00  0.00    -0.035 C 
ATOM     77  C27 non d ame     -13.224  10.674  71.745  0.00  0.00     0.085 C 
ATOM     78  H38 non d ame     -11.354  11.108  71.582  0.00  0.00     0.036 H 
ATOM     79  H39 non d ame     -12.366  10.777  70.024  0.00  0.00     0.036 H 
ATOM     80  N5  non d ame     -13.436   9.414  72.551  0.00  0.00    -0.049 N 
ATOM     81  H40 non d ame     -13.026  11.502  72.427  0.00  0.00     0.075 H 
ATOM     82  H41 non d ame     -14.016  10.757  71.002  0.00  0.00     0.075 H 
ATOM     83  C28 non d ame     -12.443   8.310  71.918  0.00  0.00     0.193 C 
ATOM     84  H42 non d ame     -13.131   9.621  73.491  0.00  0.00     0.280 HD
ATOM     85  H43 non d ame     -14.388   9.123  72.382  0.00  0.00     0.280 HD
ATOM     86  H44 non d ame     -12.830   7.521  71.273  0.00  0.00     0.129 H 
ATOM     87  H37 non d ame     -11.874   8.311  70.220  0.00  0.00     0.046 H 
BRANCH  83  88
ATOM     88  O6  non d ame     -11.728   7.637  72.956  0.00  0.00    -0.369 OA
ATOM     89  H45 non d ame     -11.853   8.104  73.785  0.00  0.00     0.212 HD
ENDBRANCH  83  88
ENDBRANCH  72  75
ENDBRANCH  47  72
ENDBRANCH  45  47
ENDBRANCH   1  43
BRANCH   1  90
ATOM     90  C16 non d ame      -9.280   8.497  65.662  0.00  0.00    -0.035 C 
ATOM     91  H21 non d ame      -8.554   7.900  66.216  0.00  0.00     0.037 H 
ATOM     92  H22 non d ame     -10.006   8.007  65.013  0.00  0.00     0.037 H 
BRANCH  90  93
ATOM     93  C17 non d ame      -8.456   9.462  64.753  0.00  0.00    -0.059 C 
ATOM     94  H23 non d ame      -8.817  10.475  64.933  0.00  0.00     0.038 H 
BRANCH  93  95
ATOM     95  C18 non d ame      -6.931   9.434  65.092  0.00  0.00    -0.073 C 
ATOM     96  H24 non d ame      -6.549   8.421  64.963  0.00  0.00     0.028 H 
ATOM     97  H25 non d ame      -6.398  10.111  64.425  0.00  0.00     0.028 H 
ATOM     98  H26 non d ame      -6.783   9.750  66.125  0.00  0.00     0.028 H 
ENDBRANCH  93  95
BRANCH  93  99
ATOM     99  C19 non d ame      -8.690   9.153  63.271  0.00  0.00    -0.073 C 
ATOM    100  H27 non d ame      -7.731   9.112  62.753  0.00  0.00     0.028 H 
ATOM    101  H28 non d ame      -9.197   8.193  63.178  0.00  0.00     0.028 H 
ATOM    102  H29 non d ame      -9.309   9.935  62.830  0.00  0.00     0.028 H 
ENDBRANCH  93  99
ENDBRANCH  90  93
ENDBRANCH   1  90
TORSDOF 26
ENDMDL
MODEL 2
REMARK VINA RESULT:      -6.4      2.677      6.338
REMARK  26 active torsions:
REMARK  status: ('A' for Active; 'I' for Inactive)
REMARK    1  A    between atoms: C2_2  and  C3_3 
REMARK    2  A    between atoms: C4_6  and  C5_7 
REMARK       I    between atoms: C5_7  and  N2_9 
REMARK    3  A    between atoms: N2_9  and  C6_10 
REMARK    4  A    between atoms: C6_10  and  C7_11 
REMARK    5  A    between atoms: C6_10  and  C8_13 
REMARK       I    between atoms: C7_11  and  N3_14 
REMARK    6  A    between atoms: N3_14  and  C9_15 
REMARK    7  A    between atoms: C9_15  and  C10_16 
REMARK    8  A    between atoms: C9_15  and  C11_18 
REMARK       I    between atoms: C10_16  and  N4_21 
REMARK    9  A    between atoms: C11_18  and  C12_19 
REMARK   10  A    between atoms: C11_18  and  C13_20 
REMARK   11  A    between atoms: N4_21  and  C14_22 
REMARK   12  A    between atoms: C14_22  and  C15_23 
REMARK   13  A    between atoms: C14_22  and  C16_25 
REMARK       I    between atoms: C15_23  and  N6_40 
REMARK   14  A    between atoms: C16_25  and  C17_26 
REMARK   15  A    between atoms: C17_26  and  C18_27 
REMARK   16  A    between atoms: C17_26  and  C19_28 
REMARK   17  A    between atoms: C20_29  and  C21_30 
REMARK   18  A    between atoms: C20_29  and  C24_33 
REMARK   19  A    between atoms: C20_29  and  N6_40 
REMARK   20  A    between atoms: C21_30  and  C22_31 
REMARK   21  A    between atoms: C22_31  and  C23_32 
REMARK   22  A    between atoms: C23_32  and  O8_43 
REMARK   23  A    between atoms: C24_33  and  C25_34 
REMARK   24  A    between atoms: C28_38  and  O6_39 
REMARK   25  A    between atoms: C29_42  and  O8_43 
REMARK   26  A    between atoms: C29_42  and  C35_49 
ROOT
ATOM      1  C14 non d ame      -9.854   9.710  69.639  0.00  0.00     0.089 C 
ATOM      2  H20 non d ame      -9.526   8.893  70.283  0.00  0.00     0.087 H 
ENDROOT
BRANCH   1   3
ATOM      3  N4  non d ame      -8.820  10.734  69.669  0.00  0.00    -0.346 N 
ATOM      4  C10 non d ame      -7.369  10.355  69.505  0.00  0.00     0.241 C 
ATOM      5  O4  non d ame      -7.059   9.220  69.352  0.00  0.00    -0.271 OA
ATOM      6  H19 non d ame      -9.104  11.694  69.803  0.00  0.00     0.163 HD
BRANCH   4   7
ATOM      7  C9  non d ame      -6.312  11.428  69.533  0.00  0.00     0.092 C 
ATOM      8  H11 non d ame      -5.719  11.372  68.620  0.00  0.00     0.088 H 
BRANCH   7   9
ATOM      9  N3  non d ame      -6.953  12.746  69.552  0.00  0.00    -0.346 N 
ATOM     10  C7  non d ame      -7.136  13.476  68.322  0.00  0.00     0.240 C 
ATOM     11  O3  non d ame      -6.773  13.019  67.308  0.00  0.00    -0.271 OA
ATOM     12  H10 non d ame      -7.271  13.154  70.420  0.00  0.00     0.163 HD
BRANCH  10  13
ATOM     13  C6  non d ame      -7.817  14.881  68.350  0.00  0.00     0.086 C 
ATOM     14  H6  non d ame      -8.247  15.160  67.388  0.00  0.00     0.086 H 
BRANCH  13  15
ATOM     15  N2  non d ame      -8.913  14.854  69.304  0.00  0.00    -0.343 N 
ATOM     16  C5  non d ame     -10.286  15.045  68.832  0.00  0.00     0.273 C 
ATOM     17  O2  non d ame     -10.497  15.221  67.683  0.00  0.00    -0.266 OA
ATOM     18  H5  non d ame      -8.723  14.706  70.285  0.00  0.00     0.163 HD
BRANCH  16  19
ATOM     19  C4  non d ame     -11.454  15.018  69.829  0.00  0.00     0.154 A 
ATOM     20  C1  non d ame     -11.971  13.880  70.527  0.00  0.00    -0.017 A 
ATOM     21  C2  non d ame     -13.030  14.385  71.312  0.00  0.00     0.077 A 
ATOM     22  H1  non d ame     -11.628  12.846  70.471  0.00  0.00     0.091 H 
ATOM     23  O1  non d ame     -13.104  15.664  71.088  0.00  0.00    -0.218 OA
ATOM     24  N1  non d ame     -12.194  16.057  70.225  0.00  0.00    -0.123 NA
BRANCH  21  25
ATOM     25  C3  non d ame     -13.919  13.580  72.251  0.00  0.00    -0.029 C 
ATOM     26  H2  non d ame     -14.652  13.022  71.668  0.00  0.00     0.036 H 
ATOM     27  H3  non d ame     -13.307  12.886  72.826  0.00  0.00     0.036 H 
ATOM     28  H4  non d ame     -14.437  14.257  72.932  0.00  0.00     0.036 H 
ENDBRANCH  21  25
ENDBRANCH  16  19
ENDBRANCH  13  15
BRANCH  13  29
ATOM     29  C8  non d ame      -6.806  15.924  68.753  0.00  0.00    -0.049 C 
ATOM     30  H7  non d ame      -6.996  16.235  69.781  0.00  0.00     0.030 H 
ATOM     31  H8  non d ame      -5.802  15.508  68.678  0.00  0.00     0.030 H 
ATOM     32  H9  non d ame      -6.893  16.787  68.093  0.00  0.00     0.030 H 
ENDBRANCH  13  29
ENDBRANCH  10  13
ENDBRANCH   7   9
BRANCH   7  33
ATOM     33  C11 non d ame      -5.437  11.260  70.810  0.00  0.00    -0.033 C 
ATOM     34  H12 non d ame      -6.029  10.717  71.545  0.00  0.00     0.042 H 
BRANCH  33  35
ATOM     35  C12 non d ame      -4.159  10.413  70.517  0.00  0.00    -0.071 C 
ATOM     36  H13 non d ame      -4.362   9.720  69.700  0.00  0.00     0.028 H 
ATOM     37  H14 non d ame      -3.341  11.076  70.236  0.00  0.00     0.028 H 
ATOM     38  H15 non d ame      -3.885   9.853  71.409  0.00  0.00     0.028 H 
ENDBRANCH  33  35
BRANCH  33  39
ATOM     39  C13 non d ame      -5.067  12.650  71.420  0.00  0.00    -0.071 C 
ATOM     40  H16 non d ame      -5.083  13.407  70.636  0.00  0.00     0.028 H 
ATOM     41  H17 non d ame      -5.791  12.912  72.193  0.00  0.00     0.028 H 
ATOM     42  H18 non d ame      -4.070  12.601  71.858  0.00  0.00     0.028 H 
ENDBRANCH  33  39
ENDBRANCH   7  33
ENDBRANCH   4   7
ENDBRANCH   1   3
BRANCH   1  43
ATOM     43  C15 non d ame     -10.056   9.254  68.166  0.00  0.00     0.240 C 
ATOM     44  O5  non d ame     -10.684   8.274  67.931  0.00  0.00    -0.271 OA
ATOM     45  N6  non d ame      -9.471  10.047  67.046  0.00  0.00    -0.355 N 
ATOM     46  H46 non d ame      -8.939  10.883  67.233  0.00  0.00     0.162 HD
BRANCH  45  47
ATOM     47  C20 non d ame      -9.672   9.600  65.651  0.00  0.00     0.013 C 
ATOM     48  H30 non d ame     -10.614   9.053  65.605  0.00  0.00     0.072 H 
BRANCH  47  49
ATOM     49  C21 non d ame      -8.530   8.697  65.245  0.00  0.00    -0.038 C 
ATOM     50  H31 non d ame      -7.834   8.708  66.083  0.00  0.00     0.036 H 
ATOM     51  H32 non d ame      -8.992   7.760  64.932  0.00  0.00     0.036 H 
BRANCH  49  52
ATOM     52  C22 non d ame      -7.751   9.229  64.022  0.00  0.00     0.018 C 
ATOM     53  H33 non d ame      -8.298  10.109  63.683  0.00  0.00     0.048 H 
ATOM     54  H34 non d ame      -6.716   9.324  64.350  0.00  0.00     0.048 H 
BRANCH  52  55
ATOM     55  C23 non d ame      -7.731   8.248  62.817  0.00  0.00     0.259 C 
ATOM     56  O7  non d ame      -8.175   8.577  61.765  0.00  0.00    -0.265 OA
BRANCH  55  57
ATOM     57  O8  non d ame      -7.187   6.945  62.988  0.00  0.00    -0.317 OA
BRANCH  57  58
ATOM     58  C29 non d ame      -8.154   5.894  62.897  0.00  0.00     0.052 C 
ATOM     59  H47 non d ame      -9.098   6.383  62.657  0.00  0.00     0.082 H 
ATOM     60  H48 non d ame      -7.730   5.162  62.210  0.00  0.00     0.082 H 
BRANCH  58  61
ATOM     61  C35 non d ame      -8.281   5.238  64.297  0.00  0.00    -0.034 A 
ATOM     62  C30 non d ame      -7.203   5.257  65.177  0.00  0.00    -0.075 A 
ATOM     63  C31 non d ame      -7.318   4.667  66.435  0.00  0.00    -0.082 A 
ATOM     64  H49 non d ame      -6.269   5.735  64.881  0.00  0.00     0.084 H 
ATOM     65  C32 non d ame      -8.515   4.052  66.811  0.00  0.00    -0.083 A 
ATOM     66  H50 non d ame      -6.472   4.687  67.123  0.00  0.00     0.083 H 
ATOM     67  C33 non d ame      -9.587   4.032  65.928  0.00  0.00    -0.082 A 
ATOM     68  H51 non d ame      -8.613   3.590  67.793  0.00  0.00     0.083 H 
ATOM     69  C34 non d ame      -9.478   4.623  64.671  0.00  0.00    -0.075 A 
ATOM     70  H52 non d ame     -10.520   3.550  66.225  0.00  0.00     0.083 H 
ATOM     71  H53 non d ame     -10.325   4.604  63.984  0.00  0.00     0.084 H 
ENDBRANCH  58  61
ENDBRANCH  57  58
ENDBRANCH  55  57
ENDBRANCH  52  55
ENDBRANCH  49  52
ENDBRANCH  47  49
BRANCH  47  72
ATOM     72  C24 non d ame      -9.718  10.813  64.723  0.00  0.00    -0.039 C 
ATOM     73  H35 non d ame      -8.873  11.435  65.018  0.00  0.00     0.036 H 
ATOM     74  H36 non d ame      -9.768  10.404  63.713  0.00  0.00     0.036 H 
BRANCH  72  75
ATOM     75  C25 non d ame     -11.046  11.682  64.947  0.00  0.00    -0.001 C 
ATOM     76  C26 non d ame     -11.848  11.853  63.522  0.00  0.00    -0.035 C 
ATOM     77  C27 non d ame     -12.112  13.168  63.326  0.00  0.00     0.085 C 
ATOM     78  H38 non d ame     -11.193  11.598  62.690  0.00  0.00     0.036 H 
ATOM     79  H39 non d ame     -12.838  11.404  63.594  0.00  0.00     0.036 H 
ATOM     80  N5  non d ame     -11.277  13.938  64.321  0.00  0.00    -0.049 N 
ATOM     81  H40 non d ame     -11.757  13.389  62.318  0.00  0.00     0.075 H 
ATOM     82  H41 non d ame     -13.165  13.294  63.573  0.00  0.00     0.075 H 
ATOM     83  C28 non d ame     -10.766  12.856  65.404  0.00  0.00     0.193 C 
ATOM     84  H42 non d ame     -10.478  14.288  63.814  0.00  0.00     0.280 HD
ATOM     85  H43 non d ame     -11.904  14.582  64.782  0.00  0.00     0.280 HD
ATOM     86  H44 non d ame     -11.224  12.799  66.391  0.00  0.00     0.129 H 
ATOM     87  H37 non d ame     -11.625  11.336  65.804  0.00  0.00     0.046 H 
BRANCH  83  88
ATOM     88  O6  non d ame      -9.366  13.021  65.644  0.00  0.00    -0.369 OA
ATOM     89  H45 non d ame      -9.215  13.859  66.087  0.00  0.00     0.212 HD
ENDBRANCH  83  88
ENDBRANCH  72  75
ENDBRANCH  47  72
ENDBRANCH  45  47
ENDBRANCH   1  43
BRANCH   1  90
ATOM     90  C16 non d ame     -11.150  10.299  70.174  0.00  0.00    -0.035 C 
ATOM     91  H21 non d ame     -10.847  11.128  70.816  0.00  0.00     0.037 H 
ATOM     92  H22 non d ame     -11.766  10.487  69.296  0.00  0.00     0.037 H 
BRANCH  90  93
ATOM     93  C17 non d ame     -11.958   9.315  71.079  0.00  0.00    -0.059 C 
ATOM     94  H23 non d ame     -12.433   8.582  70.427  0.00  0.00     0.038 H 
BRANCH  93  95
ATOM     95  C18 non d ame     -11.040   8.541  72.077  0.00  0.00    -0.073 C 
ATOM     96  H24 non d ame     -11.429   8.651  73.089  0.00  0.00     0.028 H 
ATOM     97  H25 non d ame     -11.020   7.485  71.808  0.00  0.00     0.028 H 
ATOM     98  H26 non d ame     -10.029   8.947  72.030  0.00  0.00     0.028 H 
ENDBRANCH  93  95
BRANCH  93  99
ATOM     99  C19 non d ame     -13.075  10.051  71.825  0.00  0.00    -0.073 C 
ATOM    100  H27 non d ame     -13.015  11.118  71.608  0.00  0.00     0.028 H 
ATOM    101  H28 non d ame     -14.042   9.667  71.498  0.00  0.00     0.028 H 
ATOM    102  H29 non d ame     -12.964   9.889  72.897  0.00  0.00     0.028 H 
ENDBRANCH  93  99
ENDBRANCH  90  93
ENDBRANCH   1  90
TORSDOF 26
ENDMDL
MODEL 3
REMARK VINA RESULT:      -6.4      2.584      3.933
REMARK  26 active torsions:
REMARK  status: ('A' for Active; 'I' for Inactive)
REMARK    1  A    between atoms: C2_2  and  C3_3 
REMARK    2  A    between atoms: C4_6  and  C5_7 
REMARK       I    between atoms: C5_7  and  N2_9 
REMARK    3  A    between atoms: N2_9  and  C6_10 
REMARK    4  A    between atoms: C6_10  and  C7_11 
REMARK    5  A    between atoms: C6_10  and  C8_13 
REMARK       I    between atoms: C7_11  and  N3_14 
REMARK    6  A    between atoms: N3_14  and  C9_15 
REMARK    7  A    between atoms: C9_15  and  C10_16 
REMARK    8  A    between atoms: C9_15  and  C11_18 
REMARK       I    between atoms: C10_16  and  N4_21 
REMARK    9  A    between atoms: C11_18  and  C12_19 
REMARK   10  A    between atoms: C11_18  and  C13_20 
REMARK   11  A    between atoms: N4_21  and  C14_22 
REMARK   12  A    between atoms: C14_22  and  C15_23 
REMARK   13  A    between atoms: C14_22  and  C16_25 
REMARK       I    between atoms: C15_23  and  N6_40 
REMARK   14  A    between atoms: C16_25  and  C17_26 
REMARK   15  A    between atoms: C17_26  and  C18_27 
REMARK   16  A    between atoms: C17_26  and  C19_28 
REMARK   17  A    between atoms: C20_29  and  C21_30 
REMARK   18  A    between atoms: C20_29  and  C24_33 
REMARK   19  A    between atoms: C20_29  and  N6_40 
REMARK   20  A    between atoms: C21_30  and  C22_31 
REMARK   21  A    between atoms: C22_31  and  C23_32 
REMARK   22  A    between atoms: C23_32  and  O8_43 
REMARK   23  A    between atoms: C24_33  and  C25_34 
REMARK   24  A    between atoms: C28_38  and  O6_39 
REMARK   25  A    between atoms: C29_42  and  O8_43 
REMARK   26  A    between atoms: C29_42  and  C35_49 
ROOT
ATOM      1  C14 non d ame      -7.597   8.802  67.386  0.00  0.00     0.089 C 
ATOM      2  H20 non d ame      -7.560   8.037  66.609  0.00  0.00     0.087 H 
ENDROOT
BRANCH   1   3
ATOM      3  N4  non d ame      -8.450   9.877  66.901  0.00  0.00    -0.346 N 
ATOM      4  C10 non d ame      -9.692   9.564  66.104  0.00  0.00     0.241 C 
ATOM      5  O4  non d ame      -9.983   8.438  65.863  0.00  0.00    -0.271 OA
ATOM      6  H19 non d ame      -8.184  10.828  67.113  0.00  0.00     0.163 HD
BRANCH   4   7
ATOM      7  C9  non d ame     -10.566  10.688  65.614  0.00  0.00     0.092 C 
ATOM      8  H11 non d ame     -11.592  10.512  65.937  0.00  0.00     0.088 H 
BRANCH   7   9
ATOM      9  N3  non d ame     -10.131  11.948  66.226  0.00  0.00    -0.346 N 
ATOM     10  C7  non d ame     -10.942  12.575  67.239  0.00  0.00     0.240 C 
ATOM     11  O3  non d ame     -11.948  12.081  67.576  0.00  0.00    -0.271 OA
ATOM     12  H10 non d ame      -9.265  12.387  65.945  0.00  0.00     0.163 HD
BRANCH  10  13
ATOM     13  C6  non d ame     -10.474  13.917  67.884  0.00  0.00     0.086 C 
ATOM     14  H6  non d ame     -10.803  14.792  67.323  0.00  0.00     0.086 H 
BRANCH  13  15
ATOM     15  N2  non d ame     -11.057  14.031  69.211  0.00  0.00    -0.343 N 
ATOM     16  C5  non d ame     -11.774  15.253  69.582  0.00  0.00     0.273 C 
ATOM     17  O2  non d ame     -11.874  16.139  68.808  0.00  0.00    -0.266 OA
ATOM     18  H5  non d ame     -10.965  13.269  69.868  0.00  0.00     0.163 HD
BRANCH  16  19
ATOM     19  C4  non d ame     -12.397  15.385  70.981  0.00  0.00     0.154 A 
ATOM     20  C1  non d ame     -11.705  15.545  72.224  0.00  0.00    -0.017 A 
ATOM     21  C2  non d ame     -12.723  15.619  73.199  0.00  0.00     0.077 A 
ATOM     22  H1  non d ame     -10.629  15.600  72.391  0.00  0.00     0.091 H 
ATOM     23  O1  non d ame     -13.862  15.515  72.580  0.00  0.00    -0.218 OA
ATOM     24  N1  non d ame     -13.697  15.378  71.284  0.00  0.00    -0.123 NA
BRANCH  21  25
ATOM     25  C3  non d ame     -12.523  15.790  74.700  0.00  0.00    -0.029 C 
ATOM     26  H2  non d ame     -12.800  16.804  74.990  0.00  0.00     0.036 H 
ATOM     27  H3  non d ame     -13.149  15.077  75.234  0.00  0.00     0.036 H 
ATOM     28  H4  non d ame     -11.476  15.614  74.950  0.00  0.00     0.036 H 
ENDBRANCH  21  25
ENDBRANCH  16  19
ENDBRANCH  13  15
BRANCH  13  29
ATOM     29  C8  non d ame      -8.970  13.936  67.978  0.00  0.00    -0.049 C 
ATOM     30  H7  non d ame      -8.571  14.664  67.271  0.00  0.00     0.030 H 
ATOM     31  H8  non d ame      -8.671  14.210  68.990  0.00  0.00     0.030 H 
ATOM     32  H9  non d ame      -8.579  12.947  67.739  0.00  0.00     0.030 H 
ENDBRANCH  13  29
ENDBRANCH  10  13
ENDBRANCH   7   9
BRANCH   7  33
ATOM     33  C11 non d ame     -10.450  10.799  64.066  0.00  0.00    -0.033 C 
ATOM     34  H12 non d ame     -11.010   9.970  63.634  0.00  0.00     0.042 H 
BRANCH  33  35
ATOM     35  C12 non d ame     -11.089  12.122  63.541  0.00  0.00    -0.071 C 
ATOM     36  H13 non d ame     -11.849  12.463  64.244  0.00  0.00     0.028 H 
ATOM     37  H14 non d ame     -10.317  12.884  63.442  0.00  0.00     0.028 H 
ATOM     38  H15 non d ame     -11.549  11.941  62.570  0.00  0.00     0.028 H 
ENDBRANCH  33  35
BRANCH  33  39
ATOM     39  C13 non d ame      -8.962  10.668  63.606  0.00  0.00    -0.071 C 
ATOM     40  H16 non d ame      -8.924  10.579  62.521  0.00  0.00     0.028 H 
ATOM     41  H17 non d ame      -8.406  11.554  63.918  0.00  0.00     0.028 H 
ATOM     42  H18 non d ame      -8.517   9.783  64.060  0.00  0.00     0.028 H 
ENDBRANCH  33  39
ENDBRANCH   7  33
ENDBRANCH   4   7
ENDBRANCH   1   3
BRANCH   1  43
ATOM     43  C15 non d ame      -8.193   8.260  68.716  0.00  0.00     0.240 C 
ATOM     44  O5  non d ame      -7.807   8.687  69.755  0.00  0.00    -0.271 OA
ATOM     45  N6  non d ame      -9.255   7.213  68.694  0.00  0.00    -0.355 N 
ATOM     46  H46 non d ame      -9.595   6.846  67.817  0.00  0.00     0.162 HD
BRANCH  45  47
ATOM     47  C20 non d ame      -9.813   6.709  69.967  0.00  0.00     0.013 C 
ATOM     48  H30 non d ame      -9.165   7.047  70.775  0.00  0.00     0.072 H 
BRANCH  47  49
ATOM     49  C21 non d ame      -9.850   5.198  69.933  0.00  0.00    -0.038 C 
ATOM     50  H31 non d ame      -9.768   4.878  70.972  0.00  0.00     0.036 H 
ATOM     51  H32 non d ame     -10.734   4.938  69.350  0.00  0.00     0.036 H 
BRANCH  49  52
ATOM     52  C22 non d ame      -8.641   4.586  69.192  0.00  0.00     0.018 C 
ATOM     53  H33 non d ame      -8.254   5.379  68.552  0.00  0.00     0.048 H 
ATOM     54  H34 non d ame      -8.008   4.153  69.965  0.00  0.00     0.048 H 
BRANCH  52  55
ATOM     55  C23 non d ame      -9.017   3.415  68.240  0.00  0.00     0.259 C 
ATOM     56  O7  non d ame      -9.582   2.457  68.658  0.00  0.00    -0.265 OA
BRANCH  55  57
ATOM     57  O8  non d ame      -8.666   3.496  66.865  0.00  0.00    -0.317 OA
BRANCH  57  58
ATOM     58  C29 non d ame      -9.186   4.650  66.198  0.00  0.00     0.052 C 
ATOM     59  H47 non d ame     -10.039   4.297  65.620  0.00  0.00     0.082 H 
ATOM     60  H48 non d ame      -9.327   5.400  66.975  0.00  0.00     0.082 H 
BRANCH  58  61
ATOM     61  C35 non d ame      -8.102   5.162  65.212  0.00  0.00    -0.034 A 
ATOM     62  C30 non d ame      -6.815   5.432  65.669  0.00  0.00    -0.075 A 
ATOM     63  C31 non d ame      -5.842   5.891  64.783  0.00  0.00    -0.082 A 
ATOM     64  H49 non d ame      -6.570   5.281  66.720  0.00  0.00     0.084 H 
ATOM     65  C32 non d ame      -6.160   6.086  63.436  0.00  0.00    -0.083 A 
ATOM     66  H50 non d ame      -4.834   6.098  65.143  0.00  0.00     0.083 H 
ATOM     67  C33 non d ame      -7.446   5.819  62.985  0.00  0.00    -0.082 A 
ATOM     68  H51 non d ame      -5.405   6.444  62.737  0.00  0.00     0.083 H 
ATOM     69  C34 non d ame      -8.421   5.357  63.867  0.00  0.00    -0.075 A 
ATOM     70  H52 non d ame      -7.691   5.973  61.934  0.00  0.00     0.083 H 
ATOM     71  H53 non d ame      -9.429   5.148  63.505  0.00  0.00     0.084 H 
ENDBRANCH  58  61
ENDBRANCH  57  58
ENDBRANCH  55  57
ENDBRANCH  52  55
ENDBRANCH  49  52
ENDBRANCH  47  49
BRANCH  47  72
ATOM     72  C24 non d ame     -11.228   7.250  70.160  0.00  0.00    -0.039 C 
ATOM     73  H35 non d ame     -11.559   7.557  69.168  0.00  0.00     0.036 H 
ATOM     74  H36 non d ame     -11.767   6.468  70.696  0.00  0.00     0.036 H 
BRANCH  72  75
ATOM     75  C25 non d ame     -11.243   8.555  71.089  0.00  0.00    -0.001 C 
ATOM     76  C26 non d ame     -12.469   8.451  72.181  0.00  0.00    -0.035 C 
ATOM     77  C27 non d ame     -13.200   9.590  72.126  0.00  0.00     0.085 C 
ATOM     78  H38 non d ame     -13.175   7.679  71.877  0.00  0.00     0.036 H 
ATOM     79  H39 non d ame     -12.068   8.454  73.194  0.00  0.00     0.036 H 
ATOM     80  N5  non d ame     -12.783  10.321  70.871  0.00  0.00    -0.049 N 
ATOM     81  H40 non d ame     -14.236   9.266  72.021  0.00  0.00     0.075 H 
ATOM     82  H41 non d ame     -12.896  10.173  72.994  0.00  0.00     0.075 H 
ATOM     83  C28 non d ame     -11.409   9.627  70.388  0.00  0.00     0.193 C 
ATOM     84  H42 non d ame     -13.497  10.136  70.182  0.00  0.00     0.280 HD
ATOM     85  H43 non d ame     -12.583  11.272  71.148  0.00  0.00     0.280 HD
ATOM     86  H44 non d ame     -10.451  10.120  70.551  0.00  0.00     0.129 H 
ATOM     87  H37 non d ame     -10.253   8.797  71.476  0.00  0.00     0.046 H 
BRANCH  83  88
ATOM     88  O6  non d ame     -11.462   9.351  68.987  0.00  0.00    -0.369 OA
ATOM     89  H45 non d ame     -11.087   8.483  68.818  0.00  0.00     0.212 HD
ENDBRANCH  83  88
ENDBRANCH  72  75
ENDBRANCH  47  72
ENDBRANCH  45  47
ENDBRANCH   1  43
BRANCH   1  90
ATOM     90  C16 non d ame      -6.202   9.351  67.636  0.00  0.00    -0.035 C 
ATOM     91  H21 non d ame      -6.347  10.401  67.892  0.00  0.00     0.037 H 
ATOM     92  H22 non d ame      -5.751   8.672  68.359  0.00  0.00     0.037 H 
BRANCH  90  93
ATOM     93  C17 non d ame      -5.283   9.327  66.374  0.00  0.00    -0.059 C 
ATOM     94  H23 non d ame      -5.803   8.767  65.597  0.00  0.00     0.038 H 
BRANCH  93  95
ATOM     95  C18 non d ame      -5.003  10.761  65.821  0.00  0.00    -0.073 C 
ATOM     96  H24 non d ame      -5.924  11.343  65.839  0.00  0.00     0.028 H 
ATOM     97  H25 non d ame      -4.252  11.249  66.442  0.00  0.00     0.028 H 
ATOM     98  H26 non d ame      -4.637  10.690  64.797  0.00  0.00     0.028 H 
ENDBRANCH  93  95
BRANCH  93  99
ATOM     99  C19 non d ame      -3.972   8.590  66.665  0.00  0.00    -0.073 C 
ATOM    100  H27 non d ame      -3.132   9.265  66.499  0.00  0.00     0.028 H 
ATOM    101  H28 non d ame      -3.969   8.252  67.702  0.00  0.00     0.028 H 
ATOM    102  H29 non d ame      -3.885   7.729  66.003  0.00  0.00     0.028 H 
ENDBRANCH  93  99
ENDBRANCH  90  93
ENDBRANCH   1  90
TORSDOF 26
ENDMDL
MODEL 4
REMARK VINA RESULT:      -6.2      2.866      6.124
REMARK  26 active torsions:
REMARK  status: ('A' for Active; 'I' for Inactive)
REMARK    1  A    between atoms: C2_2  and  C3_3 
REMARK    2  A    between atoms: C4_6  and  C5_7 
REMARK       I    between atoms: C5_7  and  N2_9 
REMARK    3  A    between atoms: N2_9  and  C6_10 
REMARK    4  A    between atoms: C6_10  and  C7_11 
REMARK    5  A    between atoms: C6_10  and  C8_13 
REMARK       I    between atoms: C7_11  and  N3_14 
REMARK    6  A    between atoms: N3_14  and  C9_15 
REMARK    7  A    between atoms: C9_15  and  C10_16 
REMARK    8  A    between atoms: C9_15  and  C11_18 
REMARK       I    between atoms: C10_16  and  N4_21 
REMARK    9  A    between atoms: C11_18  and  C12_19 
REMARK   10  A    between atoms: C11_18  and  C13_20 
REMARK   11  A    between atoms: N4_21  and  C14_22 
REMARK   12  A    between atoms: C14_22  and  C15_23 
REMARK   13  A    between atoms: C14_22  and  C16_25 
REMARK       I    between atoms: C15_23  and  N6_40 
REMARK   14  A    between atoms: C16_25  and  C17_26 
REMARK   15  A    between atoms: C17_26  and  C18_27 
REMARK   16  A    between atoms: C17_26  and  C19_28 
REMARK   17  A    between atoms: C20_29  and  C21_30 
REMARK   18  A    between atoms: C20_29  and  C24_33 
REMARK   19  A    between atoms: C20_29  and  N6_40 
REMARK   20  A    between atoms: C21_30  and  C22_31 
REMARK   21  A    between atoms: C22_31  and  C23_32 
REMARK   22  A    between atoms: C23_32  and  O8_43 
REMARK   23  A    between atoms: C24_33  and  C25_34 
REMARK   24  A    between atoms: C28_38  and  O6_39 
REMARK   25  A    between atoms: C29_42  and  O8_43 
REMARK   26  A    between atoms: C29_42  and  C35_49 
ROOT
ATOM      1  C14 non d ame      -8.211   6.282  63.179  0.00  0.00     0.089 C 
ATOM      2  H20 non d ame      -8.664   6.524  62.217  0.00  0.00     0.087 H 
ENDROOT
BRANCH   1   3
ATOM      3  N4  non d ame      -8.048   7.528  63.913  0.00  0.00    -0.346 N 
ATOM      4  C10 non d ame      -8.286   8.851  63.230  0.00  0.00     0.241 C 
ATOM      5  O4  non d ame      -8.605   8.887  62.087  0.00  0.00    -0.271 OA
ATOM      6  H19 non d ame      -7.773   7.476  64.884  0.00  0.00     0.163 HD
BRANCH   4   7
ATOM      7  C9  non d ame      -8.118  10.131  64.005  0.00  0.00     0.092 C 
ATOM      8  H11 non d ame      -7.698  10.895  63.351  0.00  0.00     0.088 H 
BRANCH   7   9
ATOM      9  N3  non d ame      -9.432  10.613  64.444  0.00  0.00    -0.346 N 
ATOM     10  C7  non d ame     -10.085  11.678  63.725  0.00  0.00     0.240 C 
ATOM     11  O3  non d ame      -9.570  12.161  62.792  0.00  0.00    -0.271 OA
ATOM     12  H10 non d ame      -9.889  10.207  65.248  0.00  0.00     0.163 HD
BRANCH  10  13
ATOM     13  C6  non d ame     -11.482  12.189  64.199  0.00  0.00     0.086 C 
ATOM     14  H6  non d ame     -11.732  11.858  65.207  0.00  0.00     0.086 H 
BRANCH  13  15
ATOM     15  N2  non d ame     -11.467  13.642  64.230  0.00  0.00    -0.343 N 
ATOM     16  C5  non d ame     -10.760  14.334  65.310  0.00  0.00     0.273 C 
ATOM     17  O2  non d ame     -10.209  13.712  66.151  0.00  0.00    -0.266 OA
ATOM     18  H5  non d ame     -11.943  14.165  63.509  0.00  0.00     0.163 HD
BRANCH  16  19
ATOM     19  C4  non d ame     -10.735  15.869  65.354  0.00  0.00     0.154 A 
ATOM     20  C1  non d ame     -10.209  16.697  66.397  0.00  0.00    -0.017 A 
ATOM     21  C2  non d ame     -10.428  18.020  65.956  0.00  0.00     0.077 A 
ATOM     22  H1  non d ame      -9.741  16.384  67.331  0.00  0.00     0.091 H 
ATOM     23  O1  non d ame     -11.009  17.951  64.794  0.00  0.00    -0.218 OA
ATOM     24  N1  non d ame     -11.199  16.706  64.422  0.00  0.00    -0.123 NA
BRANCH  21  25
ATOM     25  C3  non d ame     -10.050  19.293  66.703  0.00  0.00    -0.029 C 
ATOM     26  H2  non d ame     -10.378  20.161  66.131  0.00  0.00     0.036 H 
ATOM     27  H3  non d ame     -10.533  19.298  67.680  0.00  0.00     0.036 H 
ATOM     28  H4  non d ame      -8.968  19.331  66.832  0.00  0.00     0.036 H 
ENDBRANCH  21  25
ENDBRANCH  16  19
ENDBRANCH  13  15
BRANCH  13  29
ATOM     29  C8  non d ame     -12.547  11.704  63.249  0.00  0.00    -0.049 C 
ATOM     30  H7  non d ame     -13.330  11.194  63.811  0.00  0.00     0.030 H 
ATOM     31  H8  non d ame     -12.975  12.553  62.717  0.00  0.00     0.030 H 
ATOM     32  H9  non d ame     -12.106  11.010  62.533  0.00  0.00     0.030 H 
ENDBRANCH  13  29
ENDBRANCH  10  13
ENDBRANCH   7   9
BRANCH   7  33
ATOM     33  C11 non d ame      -7.222   9.869  65.251  0.00  0.00    -0.033 C 
ATOM     34  H12 non d ame      -7.301   8.811  65.496  0.00  0.00     0.042 H 
BRANCH  33  35
ATOM     35  C12 non d ame      -5.721  10.169  64.945  0.00  0.00    -0.071 C 
ATOM     36  H13 non d ame      -5.651  11.033  64.284  0.00  0.00     0.028 H 
ATOM     37  H14 non d ame      -5.196  10.380  65.875  0.00  0.00     0.028 H 
ATOM     38  H15 non d ame      -5.271   9.304  64.460  0.00  0.00     0.028 H 
ENDBRANCH  33  35
BRANCH  33  39
ATOM     39  C13 non d ame      -7.723  10.689  66.483  0.00  0.00    -0.071 C 
ATOM     40  H16 non d ame      -6.886  11.231  66.923  0.00  0.00     0.028 H 
ATOM     41  H17 non d ame      -8.486  11.399  66.161  0.00  0.00     0.028 H 
ATOM     42  H18 non d ame      -8.147  10.011  67.223  0.00  0.00     0.028 H 
ENDBRANCH  33  39
ENDBRANCH   7  33
ENDBRANCH   4   7
ENDBRANCH   1   3
BRANCH   1  43
ATOM     43  C15 non d ame      -9.100   5.324  64.023  0.00  0.00     0.240 C 
ATOM     44  O5  non d ame      -9.592   4.371  63.512  0.00  0.00    -0.271 OA
ATOM     45  N6  non d ame      -9.329   5.590  65.472  0.00  0.00    -0.355 N 
ATOM     46  H46 non d ame      -8.912   6.394  65.917  0.00  0.00     0.162 HD
BRANCH  45  47
ATOM     47  C20 non d ame     -10.176   4.670  66.261  0.00  0.00     0.013 C 
ATOM     48  H30 non d ame     -10.954   4.282  65.603  0.00  0.00     0.072 H 
BRANCH  47  49
ATOM     49  C21 non d ame     -10.802   5.427  67.410  0.00  0.00    -0.038 C 
ATOM     50  H31 non d ame     -11.850   5.129  67.422  0.00  0.00     0.036 H 
ATOM     51  H32 non d ame     -10.168   5.226  68.275  0.00  0.00     0.036 H 
BRANCH  49  52
ATOM     52  C22 non d ame     -10.784   6.956  67.201  0.00  0.00     0.018 C 
ATOM     53  H33 non d ame     -10.583   7.107  66.139  0.00  0.00     0.048 H 
ATOM     54  H34 non d ame     -11.711   7.325  67.637  0.00  0.00     0.048 H 
BRANCH  52  55
ATOM     55  C23 non d ame      -9.636   7.679  67.960  0.00  0.00     0.259 C 
ATOM     56  O7  non d ame      -8.505   7.527  67.629  0.00  0.00    -0.265 OA
BRANCH  55  57
ATOM     57  O8  non d ame      -9.951   8.516  69.065  0.00  0.00    -0.317 OA
BRANCH  57  58
ATOM     58  C29 non d ame      -9.025   8.418  70.152  0.00  0.00     0.052 C 
ATOM     59  H47 non d ame      -8.138   7.938  69.740  0.00  0.00     0.082 H 
ATOM     60  H48 non d ame      -8.956   9.422  70.571  0.00  0.00     0.082 H 
BRANCH  58  61
ATOM     61  C35 non d ame      -9.642   7.480  71.223  0.00  0.00    -0.034 A 
ATOM     62  C30 non d ame      -9.657   6.104  71.020  0.00  0.00    -0.075 A 
ATOM     63  C31 non d ame     -10.211   5.262  71.982  0.00  0.00    -0.082 A 
ATOM     64  H49 non d ame      -9.233   5.685  70.106  0.00  0.00     0.084 H 
ATOM     65  C32 non d ame     -10.755   5.801  73.151  0.00  0.00    -0.083 A 
ATOM     66  H50 non d ame     -10.218   4.183  71.821  0.00  0.00     0.083 H 
ATOM     67  C33 non d ame     -10.742   7.175  73.348  0.00  0.00    -0.082 A 
ATOM     68  H51 non d ame     -11.190   5.149  73.909  0.00  0.00     0.083 H 
ATOM     69  C34 non d ame     -10.187   8.020  72.389  0.00  0.00    -0.075 A 
ATOM     70  H52 non d ame     -11.169   7.592  74.261  0.00  0.00     0.083 H 
ATOM     71  H53 non d ame     -10.179   9.099  72.553  0.00  0.00     0.084 H 
ENDBRANCH  58  61
ENDBRANCH  57  58
ENDBRANCH  55  57
ENDBRANCH  52  55
ENDBRANCH  49  52
ENDBRANCH  47  49
BRANCH  47  72
ATOM     72  C24 non d ame      -9.324   3.525  66.807  0.00  0.00    -0.039 C 
ATOM     73  H35 non d ame     -10.033   2.750  67.099  0.00  0.00     0.036 H 
ATOM     74  H36 non d ame      -8.583   3.321  66.034  0.00  0.00     0.036 H 
BRANCH  72  75
ATOM     75  C25 non d ame      -8.525   3.957  68.126  0.00  0.00    -0.001 C 
ATOM     76  C26 non d ame      -6.954   4.266  67.752  0.00  0.00    -0.035 C 
ATOM     77  C27 non d ame      -6.159   3.566  68.597  0.00  0.00     0.085 C 
ATOM     78  H38 non d ame      -6.713   3.852  66.774  0.00  0.00     0.036 H 
ATOM     79  H39 non d ame      -6.712   5.304  67.979  0.00  0.00     0.036 H 
ATOM     80  N5  non d ame      -7.039   2.557  69.296  0.00  0.00    -0.049 N 
ATOM     81  H40 non d ame      -5.450   3.037  67.959  0.00  0.00     0.075 H 
ATOM     82  H41 non d ame      -5.800   4.290  69.327  0.00  0.00     0.075 H 
ATOM     83  C28 non d ame      -8.559   3.026  69.020  0.00  0.00     0.193 C 
ATOM     84  H42 non d ame      -6.886   1.674  68.833  0.00  0.00     0.280 HD
ATOM     85  H43 non d ame      -6.850   2.648  70.284  0.00  0.00     0.280 HD
ATOM     86  H44 non d ame      -9.137   3.521  69.800  0.00  0.00     0.129 H 
ATOM     87  H37 non d ame      -9.057   4.716  68.700  0.00  0.00     0.046 H 
BRANCH  83  88
ATOM     88  O6  non d ame      -9.352   1.912  68.606  0.00  0.00    -0.369 OA
ATOM     89  H45 non d ame      -8.871   1.098  68.774  0.00  0.00     0.212 HD
ENDBRANCH  83  88
ENDBRANCH  72  75
ENDBRANCH  47  72
ENDBRANCH  45  47
ENDBRANCH   1  43
BRANCH   1  90
ATOM     90  C16 non d ame      -6.845   5.653  62.961  0.00  0.00    -0.035 C 
ATOM     91  H21 non d ame      -6.969   4.598  63.213  0.00  0.00     0.037 H 
ATOM     92  H22 non d ame      -6.552   5.941  61.952  0.00  0.00     0.037 H 
BRANCH  90  93
ATOM     93  C17 non d ame      -5.740   6.206  63.916  0.00  0.00    -0.059 C 
ATOM     94  H23 non d ame      -6.231   6.829  64.663  0.00  0.00     0.038 H 
BRANCH  93  95
ATOM     95  C18 non d ame      -4.986   5.064  64.670  0.00  0.00    -0.073 C 
ATOM     96  H24 non d ame      -4.292   4.574  63.986  0.00  0.00     0.028 H 
ATOM     97  H25 non d ame      -4.432   5.487  65.508  0.00  0.00     0.028 H 
ATOM     98  H26 non d ame      -5.707   4.336  65.040  0.00  0.00     0.028 H 
ENDBRANCH  93  95
BRANCH  93  99
ATOM     99  C19 non d ame      -4.756   7.099  63.155  0.00  0.00    -0.073 C 
ATOM    100  H27 non d ame      -4.079   7.579  63.863  0.00  0.00     0.028 H 
ATOM    101  H28 non d ame      -4.180   6.491  62.457  0.00  0.00     0.028 H 
ATOM    102  H29 non d ame      -5.307   7.860  62.603  0.00  0.00     0.028 H 
ENDBRANCH  93  99
ENDBRANCH  90  93
ENDBRANCH   1  90
TORSDOF 26
ENDMDL
MODEL 5
REMARK VINA RESULT:      -6.2      2.913      7.556
REMARK  26 active torsions:
REMARK  status: ('A' for Active; 'I' for Inactive)
REMARK    1  A    between atoms: C2_2  and  C3_3 
REMARK    2  A    between atoms: C4_6  and  C5_7 
REMARK       I    between atoms: C5_7  and  N2_9 
REMARK    3  A    between atoms: N2_9  and  C6_10 
REMARK    4  A    between atoms: C6_10  and  C7_11 
REMARK    5  A    between atoms: C6_10  and  C8_13 
REMARK       I    between atoms: C7_11  and  N3_14 
REMARK    6  A    between atoms: N3_14  and  C9_15 
REMARK    7  A    between atoms: C9_15  and  C10_16 
REMARK    8  A    between atoms: C9_15  and  C11_18 
REMARK       I    between atoms: C10_16  and  N4_21 
REMARK    9  A    between atoms: C11_18  and  C12_19 
REMARK   10  A    between atoms: C11_18  and  C13_20 
REMARK   11  A    between atoms: N4_21  and  C14_22 
REMARK   12  A    between atoms: C14_22  and  C15_23 
REMARK   13  A    between atoms: C14_22  and  C16_25 
REMARK       I    between atoms: C15_23  and  N6_40 
REMARK   14  A    between atoms: C16_25  and  C17_26 
REMARK   15  A    between atoms: C17_26  and  C18_27 
REMARK   16  A    between atoms: C17_26  and  C19_28 
REMARK   17  A    between atoms: C20_29  and  C21_30 
REMARK   18  A    between atoms: C20_29  and  C24_33 
REMARK   19  A    between atoms: C20_29  and  N6_40 
REMARK   20  A    between atoms: C21_30  and  C22_31 
REMARK   21  A    between atoms: C22_31  and  C23_32 
REMARK   22  A    between atoms: C23_32  and  O8_43 
REMARK   23  A    between atoms: C24_33  and  C25_34 
REMARK   24  A    between atoms: C28_38  and  O6_39 
REMARK   25  A    between atoms: C29_42  and  O8_43 
REMARK   26  A    between atoms: C29_42  and  C35_49 
ROOT
ATOM      1  C14 non d ame      -6.461  15.949  67.554  0.00  0.00     0.089 C 
ATOM      2  H20 non d ame      -5.927  16.364  66.699  0.00  0.00     0.087 H 
ENDROOT
BRANCH   1   3
ATOM      3  N4  non d ame      -7.885  16.131  67.312  0.00  0.00    -0.346 N 
ATOM      4  C10 non d ame      -8.363  17.170  66.328  0.00  0.00     0.241 C 
ATOM      5  O4  non d ame      -7.583  17.849  65.745  0.00  0.00    -0.271 OA
ATOM      6  H19 non d ame      -8.533  15.546  67.820  0.00  0.00     0.163 HD
BRANCH   4   7
ATOM      7  C9  non d ame      -9.839  17.342  66.085  0.00  0.00     0.092 C 
ATOM      8  H11 non d ame      -9.989  17.912  65.168  0.00  0.00     0.088 H 
BRANCH   7   9
ATOM      9  N3  non d ame     -10.458  16.028  65.883  0.00  0.00    -0.346 N 
ATOM     10  C7  non d ame     -11.294  15.795  64.732  0.00  0.00     0.240 C 
ATOM     11  O3  non d ame     -11.481  16.653  63.958  0.00  0.00    -0.271 OA
ATOM     12  H10 non d ame     -10.307  15.278  66.542  0.00  0.00     0.163 HD
BRANCH  10  13
ATOM     13  C6  non d ame     -11.952  14.395  64.524  0.00  0.00     0.086 C 
ATOM     14  H6  non d ame     -12.594  14.357  63.643  0.00  0.00     0.086 H 
BRANCH  13  15
ATOM     15  N2  non d ame     -10.905  13.408  64.318  0.00  0.00    -0.343 N 
ATOM     16  C5  non d ame     -11.213  12.166  63.605  0.00  0.00     0.273 C 
ATOM     17  O2  non d ame     -12.307  11.970  63.204  0.00  0.00    -0.266 OA
ATOM     18  H5  non d ame      -9.973  13.583  64.667  0.00  0.00     0.163 HD
BRANCH  16  19
ATOM     19  C4  non d ame     -10.115  11.115  63.380  0.00  0.00     0.154 A 
ATOM     20  C1  non d ame      -9.699  10.090  64.288  0.00  0.00    -0.017 A 
ATOM     21  C2  non d ame      -8.671   9.399  63.610  0.00  0.00     0.077 A 
ATOM     22  H1  non d ame     -10.085   9.880  65.286  0.00  0.00     0.091 H 
ATOM     23  O1  non d ame      -8.523   9.966  62.449  0.00  0.00    -0.218 OA
ATOM     24  N1  non d ame      -9.355  10.970  62.291  0.00  0.00    -0.123 NA
BRANCH  21  25
ATOM     25  C3  non d ame      -7.884   8.208  64.141  0.00  0.00    -0.029 C 
ATOM     26  H2  non d ame      -8.478   7.301  64.030  0.00  0.00     0.036 H 
ATOM     27  H3  non d ame      -6.956   8.107  63.580  0.00  0.00     0.036 H 
ATOM     28  H4  non d ame      -7.655   8.365  65.196  0.00  0.00     0.036 H 
ENDBRANCH  21  25
ENDBRANCH  16  19
ENDBRANCH  13  15
BRANCH  13  29
ATOM     29  C8  non d ame     -12.769  14.035  65.738  0.00  0.00    -0.049 C 
ATOM     30  H7  non d ame     -12.156  13.457  66.430  0.00  0.00     0.030 H 
ATOM     31  H8  non d ame     -13.113  14.945  66.229  0.00  0.00     0.030 H 
ATOM     32  H9  non d ame     -13.630  13.439  65.433  0.00  0.00     0.030 H 
ENDBRANCH  13  29
ENDBRANCH  10  13
ENDBRANCH   7   9
BRANCH   7  33
ATOM     33  C11 non d ame     -10.490  18.035  67.318  0.00  0.00    -0.033 C 
ATOM     34  H12 non d ame     -11.450  18.439  67.000  0.00  0.00     0.042 H 
BRANCH  33  35
ATOM     35  C12 non d ame     -10.767  17.013  68.464  0.00  0.00    -0.071 C 
ATOM     36  H13 non d ame     -10.116  17.230  69.311  0.00  0.00     0.028 H 
ATOM     37  H14 non d ame     -11.808  17.090  68.776  0.00  0.00     0.028 H 
ATOM     38  H15 non d ame     -10.569  16.004  68.104  0.00  0.00     0.028 H 
ENDBRANCH  33  35
BRANCH  33  39
ATOM     39  C13 non d ame      -9.609  19.223  67.821  0.00  0.00    -0.071 C 
ATOM     40  H16 non d ame     -10.235  19.942  68.349  0.00  0.00     0.028 H 
ATOM     41  H17 non d ame      -8.840  18.845  68.497  0.00  0.00     0.028 H 
ATOM     42  H18 non d ame      -9.135  19.711  66.969  0.00  0.00     0.028 H 
ENDBRANCH  33  39
ENDBRANCH   7  33
ENDBRANCH   4   7
ENDBRANCH   1   3
BRANCH   1  43
ATOM     43  C15 non d ame      -6.183  14.430  67.741  0.00  0.00     0.240 C 
ATOM     44  O5  non d ame      -5.152  13.968  67.371  0.00  0.00    -0.271 OA
ATOM     45  N6  non d ame      -7.199  13.552  68.389  0.00  0.00    -0.355 N 
ATOM     46  H46 non d ame      -8.076  13.934  68.711  0.00  0.00     0.162 HD
BRANCH  45  47
ATOM     47  C20 non d ame      -6.918  12.110  68.560  0.00  0.00     0.013 C 
ATOM     48  H30 non d ame      -6.192  11.817  67.801  0.00  0.00     0.072 H 
BRANCH  47  49
ATOM     49  C21 non d ame      -8.199  11.327  68.379  0.00  0.00    -0.038 C 
ATOM     50  H31 non d ame      -8.530  11.068  69.384  0.00  0.00     0.036 H 
ATOM     51  H32 non d ame      -8.831  11.940  67.736  0.00  0.00     0.036 H 
BRANCH  49  52
ATOM     52  C22 non d ame      -7.983   9.992  67.633  0.00  0.00     0.018 C 
ATOM     53  H33 non d ame      -8.653  10.022  66.773  0.00  0.00     0.048 H 
ATOM     54  H34 non d ame      -6.908   9.908  67.481  0.00  0.00     0.048 H 
BRANCH  52  55
ATOM     55  C23 non d ame      -8.399   8.740  68.455  0.00  0.00     0.259 C 
ATOM     56  O7  non d ame      -7.579   7.970  68.837  0.00  0.00    -0.265 OA
BRANCH  55  57
ATOM     57  O8  non d ame      -9.775   8.517  68.736  0.00  0.00    -0.317 OA
BRANCH  57  58
ATOM     58  C29 non d ame     -10.033   8.080  70.074  0.00  0.00     0.052 C 
ATOM     59  H47 non d ame     -10.409   7.062  69.985  0.00  0.00     0.082 H 
ATOM     60  H48 non d ame      -9.115   8.275  70.629  0.00  0.00     0.082 H 
BRANCH  58  61
ATOM     61  C35 non d ame     -11.159   8.972  70.660  0.00  0.00    -0.034 A 
ATOM     62  C30 non d ame     -11.341  10.267  70.187  0.00  0.00    -0.075 A 
ATOM     63  C31 non d ame     -12.354  11.068  70.714  0.00  0.00    -0.082 A 
ATOM     64  H49 non d ame     -10.691  10.655  69.402  0.00  0.00     0.084 H 
ATOM     65  C32 non d ame     -13.184  10.570  71.721  0.00  0.00    -0.083 A 
ATOM     66  H50 non d ame     -12.495  12.081  70.338  0.00  0.00     0.083 H 
ATOM     67  C33 non d ame     -12.996   9.278  72.194  0.00  0.00    -0.082 A 
ATOM     68  H51 non d ame     -13.978  11.189  72.138  0.00  0.00     0.083 H 
ATOM     69  C34 non d ame     -11.987   8.474  71.668  0.00  0.00    -0.075 A 
ATOM     70  H52 non d ame     -13.645   8.893  72.981  0.00  0.00     0.083 H 
ATOM     71  H53 non d ame     -11.847   7.459  72.044  0.00  0.00     0.084 H 
ENDBRANCH  58  61
ENDBRANCH  57  58
ENDBRANCH  55  57
ENDBRANCH  52  55
ENDBRANCH  49  52
ENDBRANCH  47  49
BRANCH  47  72
ATOM     72  C24 non d ame      -6.358  11.856  69.957  0.00  0.00    -0.039 C 
ATOM     73  H35 non d ame      -6.124  12.842  70.360  0.00  0.00     0.036 H 
ATOM     74  H36 non d ame      -7.095  11.226  70.456  0.00  0.00     0.036 H 
BRANCH  72  75
ATOM     75  C25 non d ame      -4.987  11.029  69.906  0.00  0.00    -0.001 C 
ATOM     76  C26 non d ame      -4.578  10.721  68.343  0.00  0.00    -0.035 C 
ATOM     77  C27 non d ame      -4.326   9.397  68.211  0.00  0.00     0.085 C 
ATOM     78  H38 non d ame      -5.436  10.883  67.693  0.00  0.00     0.036 H 
ATOM     79  H39 non d ame      -3.621  11.186  68.108  0.00  0.00     0.036 H 
ATOM     80  N5  non d ame      -4.843   8.723  69.460  0.00  0.00    -0.049 N 
ATOM     81  H40 non d ame      -4.923   9.070  67.359  0.00  0.00     0.075 H 
ATOM     82  H41 non d ame      -3.241   9.308  68.183  0.00  0.00     0.075 H 
ATOM     83  C28 non d ame      -5.094   9.904  70.531  0.00  0.00     0.193 C 
ATOM     84  H42 non d ame      -5.734   8.314  69.217  0.00  0.00     0.280 HD
ATOM     85  H43 non d ame      -4.094   8.136  69.799  0.00  0.00     0.280 HD
ATOM     86  H44 non d ame      -4.396  10.066  71.352  0.00  0.00     0.129 H 
ATOM     87  H37 non d ame      -4.217  11.466  70.543  0.00  0.00     0.046 H 
BRANCH  83  88
ATOM     88  O6  non d ame      -6.375   9.750  71.145  0.00  0.00    -0.369 OA
ATOM     89  H45 non d ame      -6.630  10.575  71.565  0.00  0.00     0.212 HD
ENDBRANCH  83  88
ENDBRANCH  72  75
ENDBRANCH  47  72
ENDBRANCH  45  47
ENDBRANCH   1  43
BRANCH   1  90
ATOM     90  C16 non d ame      -6.073  16.699  68.818  0.00  0.00    -0.035 C 
ATOM     91  H21 non d ame      -7.008  17.100  69.214  0.00  0.00     0.037 H 
ATOM     92  H22 non d ame      -5.492  15.991  69.407  0.00  0.00     0.037 H 
BRANCH  90  93
ATOM     93  C17 non d ame      -5.143  17.926  68.558  0.00  0.00    -0.059 C 
ATOM     94  H23 non d ame      -4.384  17.937  69.340  0.00  0.00     0.038 H 
BRANCH  93  95
ATOM     95  C18 non d ame      -4.408  17.828  67.183  0.00  0.00    -0.073 C 
ATOM     96  H24 non d ame      -3.519  18.458  67.201  0.00  0.00     0.028 H 
ATOM     97  H25 non d ame      -4.116  16.794  67.000  0.00  0.00     0.028 H 
ATOM     98  H26 non d ame      -5.076  18.163  66.389  0.00  0.00     0.028 H 
ENDBRANCH  93  95
BRANCH  93  99
ATOM     99  C19 non d ame      -5.924  19.239  68.665  0.00  0.00    -0.073 C 
ATOM    100  H27 non d ame      -6.841  19.070  69.232  0.00  0.00     0.028 H 
ATOM    101  H28 non d ame      -5.313  19.983  69.175  0.00  0.00     0.028 H 
ATOM    102  H29 non d ame      -6.174  19.596  67.666  0.00  0.00     0.028 H 
ENDBRANCH  93  99
ENDBRANCH  90  93
ENDBRANCH   1  90
TORSDOF 26
ENDMDL
MODEL 6
REMARK VINA RESULT:      -6.1      2.068      9.579
REMARK  26 active torsions:
REMARK  status: ('A' for Active; 'I' for Inactive)
REMARK    1  A    between atoms: C2_2  and  C3_3 
REMARK    2  A    between atoms: C4_6  and  C5_7 
REMARK       I    between atoms: C5_7  and  N2_9 
REMARK    3  A    between atoms: N2_9  and  C6_10 
REMARK    4  A    between atoms: C6_10  and  C7_11 
REMARK    5  A    between atoms: C6_10  and  C8_13 
REMARK       I    between atoms: C7_11  and  N3_14 
REMARK    6  A    between atoms: N3_14  and  C9_15 
REMARK    7  A    between atoms: C9_15  and  C10_16 
REMARK    8  A    between atoms: C9_15  and  C11_18 
REMARK       I    between atoms: C10_16  and  N4_21 
REMARK    9  A    between atoms: C11_18  and  C12_19 
REMARK   10  A    between atoms: C11_18  and  C13_20 
REMARK   11  A    between atoms: N4_21  and  C14_22 
REMARK   12  A    between atoms: C14_22  and  C15_23 
REMARK   13  A    between atoms: C14_22  and  C16_25 
REMARK       I    between atoms: C15_23  and  N6_40 
REMARK   14  A    between atoms: C16_25  and  C17_26 
REMARK   15  A    between atoms: C17_26  and  C18_27 
REMARK   16  A    between atoms: C17_26  and  C19_28 
REMARK   17  A    between atoms: C20_29  and  C21_30 
REMARK   18  A    between atoms: C20_29  and  C24_33 
REMARK   19  A    between atoms: C20_29  and  N6_40 
REMARK   20  A    between atoms: C21_30  and  C22_31 
REMARK   21  A    between atoms: C22_31  and  C23_32 
REMARK   22  A    between atoms: C23_32  and  O8_43 
REMARK   23  A    between atoms: C24_33  and  C25_34 
REMARK   24  A    between atoms: C28_38  and  O6_39 
REMARK   25  A    between atoms: C29_42  and  O8_43 
REMARK   26  A    between atoms: C29_42  and  C35_49 
ROOT
ATOM      1  C14 non d ame      -9.477  11.714  65.368  0.00  0.00     0.089 C 
ATOM      2  H20 non d ame      -9.159  12.065  64.385  0.00  0.00     0.087 H 
ENDROOT
BRANCH   1   3
ATOM      3  N4  non d ame      -8.891  10.398  65.573  0.00  0.00    -0.346 N 
ATOM      4  C10 non d ame      -8.757   9.435  64.419  0.00  0.00     0.241 C 
ATOM      5  O4  non d ame      -9.131   9.742  63.335  0.00  0.00    -0.271 OA
ATOM      6  H19 non d ame      -8.581  10.154  66.503  0.00  0.00     0.163 HD
BRANCH   4   7
ATOM      7  C9  non d ame      -8.144   8.079  64.648  0.00  0.00     0.092 C 
ATOM      8  H11 non d ame      -7.262   8.185  65.280  0.00  0.00     0.088 H 
BRANCH   7   9
ATOM      9  N3  non d ame      -9.094   7.228  65.371  0.00  0.00    -0.346 N 
ATOM     10  C7  non d ame      -8.872   6.919  66.761  0.00  0.00     0.240 C 
ATOM     11  O3  non d ame      -7.934   7.346  67.316  0.00  0.00    -0.271 OA
ATOM     12  H10 non d ame      -9.909   6.851  64.906  0.00  0.00     0.163 HD
BRANCH  10  13
ATOM     13  C6  non d ame      -9.886   6.010  67.524  0.00  0.00     0.086 C 
ATOM     14  H6  non d ame      -9.401   5.339  68.233  0.00  0.00     0.086 H 
BRANCH  13  15
ATOM     15  N2  non d ame     -10.784   6.852  68.298  0.00  0.00    -0.343 N 
ATOM     16  C5  non d ame     -10.564   7.012  69.737  0.00  0.00     0.273 C 
ATOM     17  O2  non d ame      -9.664   6.457  70.263  0.00  0.00    -0.266 OA
ATOM     18  H5  non d ame     -11.553   7.321  67.840  0.00  0.00     0.163 HD
BRANCH  16  19
ATOM     19  C4  non d ame     -11.505   7.900  70.565  0.00  0.00     0.154 A 
ATOM     20  C1  non d ame     -11.602   9.328  70.531  0.00  0.00    -0.017 A 
ATOM     21  C2  non d ame     -12.606   9.647  71.471  0.00  0.00     0.077 A 
ATOM     22  H1  non d ame     -11.030  10.025  69.917  0.00  0.00     0.091 H 
ATOM     23  O1  non d ame     -13.032   8.528  71.978  0.00  0.00    -0.218 OA
ATOM     24  N1  non d ame     -12.405   7.494  71.466  0.00  0.00    -0.123 NA
BRANCH  21  25
ATOM     25  C3  non d ame     -13.100  11.044  71.822  0.00  0.00    -0.029 C 
ATOM     26  H2  non d ame     -14.077  11.210  71.367  0.00  0.00     0.036 H 
ATOM     27  H3  non d ame     -13.183  11.139  72.904  0.00  0.00     0.036 H 
ATOM     28  H4  non d ame     -12.394  11.785  71.445  0.00  0.00     0.036 H 
ENDBRANCH  21  25
ENDBRANCH  16  19
ENDBRANCH  13  15
BRANCH  13  29
ATOM     29  C8  non d ame     -10.673   5.189  66.535  0.00  0.00    -0.049 C 
ATOM     30  H7  non d ame     -10.103   5.090  65.611  0.00  0.00     0.030 H 
ATOM     31  H8  non d ame     -10.863   4.201  66.952  0.00  0.00     0.030 H 
ATOM     32  H9  non d ame     -11.621   5.684  66.324  0.00  0.00     0.030 H 
ENDBRANCH  13  29
ENDBRANCH  10  13
ENDBRANCH   7   9
BRANCH   7  33
ATOM     33  C11 non d ame      -7.805   7.425  63.276  0.00  0.00    -0.033 C 
ATOM     34  H12 non d ame      -8.459   7.871  62.529  0.00  0.00     0.042 H 
BRANCH  33  35
ATOM     35  C12 non d ame      -6.333   7.725  62.852  0.00  0.00    -0.071 C 
ATOM     36  H13 non d ame      -6.009   8.663  63.302  0.00  0.00     0.028 H 
ATOM     37  H14 non d ame      -5.686   6.917  63.190  0.00  0.00     0.028 H 
ATOM     38  H15 non d ame      -6.279   7.806  61.767  0.00  0.00     0.028 H 
ENDBRANCH  33  35
BRANCH  33  39
ATOM     39  C13 non d ame      -8.082   5.887  63.306  0.00  0.00    -0.071 C 
ATOM     40  H16 non d ame      -9.132   5.703  63.081  0.00  0.00     0.028 H 
ATOM     41  H17 non d ame      -7.458   5.391  62.562  0.00  0.00     0.028 H 
ATOM     42  H18 non d ame      -7.848   5.495  64.296  0.00  0.00     0.028 H 
ENDBRANCH  33  39
ENDBRANCH   7  33
ENDBRANCH   4   7
ENDBRANCH   1   3
BRANCH   1  43
ATOM     43  C15 non d ame      -8.995  12.653  66.511  0.00  0.00     0.240 C 
ATOM     44  O5  non d ame      -8.512  12.190  67.493  0.00  0.00    -0.271 OA
ATOM     45  N6  non d ame      -9.128  14.132  66.376  0.00  0.00    -0.355 N 
ATOM     46  H46 non d ame      -9.532  14.537  65.545  0.00  0.00     0.162 HD
BRANCH  45  47
ATOM     47  C20 non d ame      -8.664  15.011  67.471  0.00  0.00     0.013 C 
ATOM     48  H30 non d ame      -8.904  16.039  67.201  0.00  0.00     0.072 H 
BRANCH  47  49
ATOM     49  C21 non d ame      -7.170  14.857  67.638  0.00  0.00    -0.038 C 
ATOM     50  H31 non d ame      -7.017  14.575  68.680  0.00  0.00     0.036 H 
ATOM     51  H32 non d ame      -6.851  14.186  66.840  0.00  0.00     0.036 H 
BRANCH  49  52
ATOM     52  C22 non d ame      -6.404  16.181  67.428  0.00  0.00     0.018 C 
ATOM     53  H33 non d ame      -5.403  15.896  67.102  0.00  0.00     0.048 H 
ATOM     54  H34 non d ame      -7.035  16.788  66.779  0.00  0.00     0.048 H 
BRANCH  52  55
ATOM     55  C23 non d ame      -6.210  17.007  68.731  0.00  0.00     0.259 C 
ATOM     56  O7  non d ame      -6.337  16.492  69.794  0.00  0.00    -0.265 OA
BRANCH  55  57
ATOM     57  O8  non d ame      -5.892  18.390  68.638  0.00  0.00    -0.317 OA
BRANCH  57  58
ATOM     58  C29 non d ame      -6.877  19.253  69.215  0.00  0.00     0.052 C 
ATOM     59  H47 non d ame      -7.218  18.749  70.119  0.00  0.00     0.082 H 
ATOM     60  H48 non d ame      -6.406  20.233  69.283  0.00  0.00     0.082 H 
BRANCH  58  61
ATOM     61  C35 non d ame      -8.069  19.348  68.226  0.00  0.00    -0.034 A 
ATOM     62  C30 non d ame      -9.348  18.989  68.638  0.00  0.00    -0.075 A 
ATOM     63  C31 non d ame     -10.418  19.075  67.749  0.00  0.00    -0.082 A 
ATOM     64  H49 non d ame      -9.512  18.643  69.659  0.00  0.00     0.084 H 
ATOM     65  C32 non d ame     -10.205  19.517  66.441  0.00  0.00    -0.083 A 
ATOM     66  H50 non d ame     -11.420  18.796  68.077  0.00  0.00     0.083 H 
ATOM     67  C33 non d ame      -8.925  19.870  66.032  0.00  0.00    -0.082 A 
ATOM     68  H51 non d ame     -11.036  19.587  65.739  0.00  0.00     0.083 H 
ATOM     69  C34 non d ame      -7.854  19.788  66.919  0.00  0.00    -0.075 A 
ATOM     70  H52 non d ame      -8.762  20.213  65.010  0.00  0.00     0.083 H 
ATOM     71  H53 non d ame      -6.852  20.069  66.590  0.00  0.00     0.084 H 
ENDBRANCH  58  61
ENDBRANCH  57  58
ENDBRANCH  55  57
ENDBRANCH  52  55
ENDBRANCH  49  52
ENDBRANCH  47  49
BRANCH  47  72
ATOM     72  C24 non d ame      -9.366  14.627  68.773  0.00  0.00    -0.039 C 
ATOM     73  H35 non d ame      -9.221  13.551  68.873  0.00  0.00     0.036 H 
ATOM     74  H36 non d ame      -8.965  15.304  69.528  0.00  0.00     0.036 H 
BRANCH  72  75
ATOM     75  C25 non d ame     -10.945  14.887  68.695  0.00  0.00    -0.001 C 
ATOM     76  C26 non d ame     -11.359  16.120  69.700  0.00  0.00    -0.035 C 
ATOM     77  C27 non d ame     -12.381  15.714  70.491  0.00  0.00     0.085 C 
ATOM     78  H38 non d ame     -10.553  16.314  70.406  0.00  0.00     0.036 H 
ATOM     79  H39 non d ame     -11.791  16.941  69.128  0.00  0.00     0.036 H 
ATOM     80  N5  non d ame     -12.483  14.214  70.343  0.00  0.00    -0.049 N 
ATOM     81  H40 non d ame     -12.073  15.950  71.510  0.00  0.00     0.075 H 
ATOM     82  H41 non d ame     -13.275  16.173  70.071  0.00  0.00     0.075 H 
ATOM     83  C28 non d ame     -11.610  13.835  69.040  0.00  0.00     0.193 C 
ATOM     84  H42 non d ame     -12.038  13.816  71.156  0.00  0.00     0.280 HD
ATOM     85  H43 non d ame     -13.454  14.011  70.149  0.00  0.00     0.280 HD
ATOM     86  H44 non d ame     -12.098  13.591  68.097  0.00  0.00     0.129 H 
ATOM     87  H37 non d ame     -11.303  14.943  67.667  0.00  0.00     0.046 H 
BRANCH  83  88
ATOM     88  O6  non d ame     -10.754  12.727  69.324  0.00  0.00    -0.369 OA
ATOM     89  H45 non d ame     -10.074  12.999  69.945  0.00  0.00     0.212 HD
ENDBRANCH  83  88
ENDBRANCH  72  75
ENDBRANCH  47  72
ENDBRANCH  45  47
ENDBRANCH   1  43
BRANCH   1  90
ATOM     90  C16 non d ame     -10.991  11.594  65.408  0.00  0.00    -0.035 C 
ATOM     91  H21 non d ame     -11.213  10.601  65.015  0.00  0.00     0.037 H 
ATOM     92  H22 non d ame     -11.274  11.851  66.429  0.00  0.00     0.037 H 
BRANCH  90  93
ATOM     93  C17 non d ame     -11.726  12.610  64.477  0.00  0.00    -0.059 C 
ATOM     94  H23 non d ame     -10.967  13.236  64.008  0.00  0.00     0.038 H 
BRANCH  93  95
ATOM     95  C18 non d ame     -12.524  11.897  63.340  0.00  0.00    -0.073 C 
ATOM     96  H24 non d ame     -13.516  11.631  63.705  0.00  0.00     0.028 H 
ATOM     97  H25 non d ame     -12.620  12.569  62.487  0.00  0.00     0.028 H 
ATOM     98  H26 non d ame     -11.994  10.995  63.034  0.00  0.00     0.028 H 
ENDBRANCH  93  95
BRANCH  93  99
ATOM     99  C19 non d ame     -12.639  13.534  65.287  0.00  0.00    -0.073 C 
ATOM    100  H27 non d ame     -13.535  12.989  65.584  0.00  0.00     0.028 H 
ATOM    101  H28 non d ame     -12.110  13.878  66.177  0.00  0.00     0.028 H 
ATOM    102  H29 non d ame     -12.920  14.394  64.678  0.00  0.00     0.028 H 
ENDBRANCH  93  99
ENDBRANCH  90  93
ENDBRANCH   1  90
TORSDOF 26
ENDMDL
MODEL 7
REMARK VINA RESULT:      -6.1      3.315      6.690
REMARK  26 active torsions:
REMARK  status: ('A' for Active; 'I' for Inactive)
REMARK    1  A    between atoms: C2_2  and  C3_3 
REMARK    2  A    between atoms: C4_6  and  C5_7 
REMARK       I    between atoms: C5_7  and  N2_9 
REMARK    3  A    between atoms: N2_9  and  C6_10 
REMARK    4  A    between atoms: C6_10  and  C7_11 
REMARK    5  A    between atoms: C6_10  and  C8_13 
REMARK       I    between atoms: C7_11  and  N3_14 
REMARK    6  A    between atoms: N3_14  and  C9_15 
REMARK    7  A    between atoms: C9_15  and  C10_16 
REMARK    8  A    between atoms: C9_15  and  C11_18 
REMARK       I    between atoms: C10_16  and  N4_21 
REMARK    9  A    between atoms: C11_18  and  C12_19 
REMARK   10  A    between atoms: C11_18  and  C13_20 
REMARK   11  A    between atoms: N4_21  and  C14_22 
REMARK   12  A    between atoms: C14_22  and  C15_23 
REMARK   13  A    between atoms: C14_22  and  C16_25 
REMARK       I    between atoms: C15_23  and  N6_40 
REMARK   14  A    between atoms: C16_25  and  C17_26 
REMARK   15  A    between atoms: C17_26  and  C18_27 
REMARK   16  A    between atoms: C17_26  and  C19_28 
REMARK   17  A    between atoms: C20_29  and  C21_30 
REMARK   18  A    between atoms: C20_29  and  C24_33 
REMARK   19  A    between atoms: C20_29  and  N6_40 
REMARK   20  A    between atoms: C21_30  and  C22_31 
REMARK   21  A    between atoms: C22_31  and  C23_32 
REMARK   22  A    between atoms: C23_32  and  O8_43 
REMARK   23  A    between atoms: C24_33  and  C25_34 
REMARK   24  A    between atoms: C28_38  and  O6_39 
REMARK   25  A    between atoms: C29_42  and  O8_43 
REMARK   26  A    between atoms: C29_42  and  C35_49 
ROOT
ATOM      1  C14 non d ame      -6.345  14.830  68.563  0.00  0.00     0.089 C 
ATOM      2  H20 non d ame      -5.586  15.383  68.008  0.00  0.00     0.087 H 
ENDROOT
BRANCH   1   3
ATOM      3  N4  non d ame      -7.644  15.221  68.038  0.00  0.00    -0.346 N 
ATOM      4  C10 non d ame      -7.794  16.499  67.250  0.00  0.00     0.241 C 
ATOM      5  O4  non d ame      -6.854  17.197  67.054  0.00  0.00    -0.271 OA
ATOM      6  H19 non d ame      -8.433  14.615  68.218  0.00  0.00     0.163 HD
BRANCH   4   7
ATOM      7  C9  non d ame      -9.145  16.886  66.709  0.00  0.00     0.092 C 
ATOM      8  H11 non d ame      -9.013  17.519  65.831  0.00  0.00     0.088 H 
BRANCH   7   9
ATOM      9  N3  non d ame      -9.860  15.683  66.270  0.00  0.00    -0.346 N 
ATOM     10  C7  non d ame     -10.728  15.739  65.121  0.00  0.00     0.240 C 
ATOM     11  O3  non d ame     -10.866  16.744  64.536  0.00  0.00    -0.271 OA
ATOM     12  H10 non d ame      -9.752  14.809  66.765  0.00  0.00     0.163 HD
BRANCH  10  13
ATOM     13  C6  non d ame     -11.488  14.456  64.662  0.00  0.00     0.086 C 
ATOM     14  H6  non d ame     -12.029  14.598  63.726  0.00  0.00     0.086 H 
BRANCH  13  15
ATOM     15  N2  non d ame     -10.523  13.395  64.427  0.00  0.00    -0.343 N 
ATOM     16  C5  non d ame     -10.895  12.251  63.592  0.00  0.00     0.273 C 
ATOM     17  O2  non d ame     -11.975  12.193  63.116  0.00  0.00    -0.266 OA
ATOM     18  H5  non d ame      -9.602  13.452  64.840  0.00  0.00     0.163 HD
BRANCH  16  19
ATOM     19  C4  non d ame      -9.884  11.123  63.335  0.00  0.00     0.154 A 
ATOM     20  C1  non d ame      -8.826  11.113  62.370  0.00  0.00    -0.017 A 
ATOM     21  C2  non d ame      -8.195   9.861  62.538  0.00  0.00     0.077 A 
ATOM     22  H1  non d ame      -8.558  11.895  61.660  0.00  0.00     0.091 H 
ATOM     23  O1  non d ame      -8.821   9.234  63.490  0.00  0.00    -0.218 OA
ATOM     24  N1  non d ame      -9.811   9.951  63.971  0.00  0.00    -0.123 NA
BRANCH  21  25
ATOM     25  C3  non d ame      -6.999   9.343  61.749  0.00  0.00    -0.029 C 
ATOM     26  H2  non d ame      -6.946   9.856  60.789  0.00  0.00     0.036 H 
ATOM     27  H3  non d ame      -6.084   9.529  62.311  0.00  0.00     0.036 H 
ATOM     28  H4  non d ame      -7.110   8.270  61.583  0.00  0.00     0.036 H 
ENDBRANCH  21  25
ENDBRANCH  16  19
ENDBRANCH  13  15
BRANCH  13  29
ATOM     29  C8  non d ame     -12.466  14.037  65.730  0.00  0.00    -0.049 C 
ATOM     30  H7  non d ame     -11.920  13.764  66.634  0.00  0.00     0.030 H 
ATOM     31  H8  non d ame     -13.142  14.863  65.949  0.00  0.00     0.030 H 
ATOM     32  H9  non d ame     -13.040  13.179  65.381  0.00  0.00     0.030 H 
ENDBRANCH  13  29
ENDBRANCH  10  13
ENDBRANCH   7   9
BRANCH   7  33
ATOM     33  C11 non d ame      -9.966  17.597  67.824  0.00  0.00    -0.033 C 
ATOM     34  H12 non d ame      -9.270  17.892  68.608  0.00  0.00     0.042 H 
BRANCH  33  35
ATOM     35  C12 non d ame     -10.648  18.895  67.289  0.00  0.00    -0.071 C 
ATOM     36  H13 non d ame     -10.524  19.697  68.016  0.00  0.00     0.028 H 
ATOM     37  H14 non d ame     -10.187  19.185  66.346  0.00  0.00     0.028 H 
ATOM     38  H15 non d ame     -11.710  18.707  67.133  0.00  0.00     0.028 H 
ENDBRANCH  33  35
BRANCH  33  39
ATOM     39  C13 non d ame     -11.016  16.624  68.452  0.00  0.00    -0.071 C 
ATOM     40  H16 non d ame     -11.646  17.172  69.152  0.00  0.00     0.028 H 
ATOM     41  H17 non d ame     -11.636  16.199  67.661  0.00  0.00     0.028 H 
ATOM     42  H18 non d ame     -10.499  15.822  68.978  0.00  0.00     0.028 H 
ENDBRANCH  33  39
ENDBRANCH   7  33
ENDBRANCH   4   7
ENDBRANCH   1   3
BRANCH   1  43
ATOM     43  C15 non d ame      -6.188  13.291  68.399  0.00  0.00     0.240 C 
ATOM     44  O5  non d ame      -6.197  12.590  69.358  0.00  0.00    -0.271 OA
ATOM     45  N6  non d ame      -6.037  12.691  67.042  0.00  0.00    -0.355 N 
ATOM     46  H46 non d ame      -6.033  13.276  66.220  0.00  0.00     0.162 HD
BRANCH  45  47
ATOM     47  C20 non d ame      -5.890  11.226  66.902  0.00  0.00     0.013 C 
ATOM     48  H30 non d ame      -5.720  10.809  67.895  0.00  0.00     0.072 H 
BRANCH  47  49
ATOM     49  C21 non d ame      -4.709  10.925  66.007  0.00  0.00    -0.038 C 
ATOM     50  H31 non d ame      -5.060  11.092  64.990  0.00  0.00     0.036 H 
ATOM     51  H32 non d ame      -3.882  11.516  66.402  0.00  0.00     0.036 H 
BRANCH  49  52
ATOM     52  C22 non d ame      -4.264   9.448  66.079  0.00  0.00     0.018 C 
ATOM     53  H33 non d ame      -3.190   9.471  66.264  0.00  0.00     0.048 H 
ATOM     54  H34 non d ame      -4.930   8.974  66.800  0.00  0.00     0.048 H 
BRANCH  52  55
ATOM     55  C23 non d ame      -4.452   8.671  64.746  0.00  0.00     0.259 C 
ATOM     56  O7  non d ame      -3.607   8.694  63.911  0.00  0.00    -0.265 OA
BRANCH  55  57
ATOM     57  O8  non d ame      -5.654   7.943  64.528  0.00  0.00    -0.317 OA
BRANCH  57  58
ATOM     58  C29 non d ame      -5.473   6.524  64.480  0.00  0.00     0.052 C 
ATOM     59  H47 non d ame      -4.831   6.338  63.620  0.00  0.00     0.082 H 
ATOM     60  H48 non d ame      -5.145   6.234  65.478  0.00  0.00     0.082 H 
BRANCH  58  61
ATOM     61  C35 non d ame      -6.857   5.875  64.210  0.00  0.00    -0.034 A 
ATOM     62  C30 non d ame      -7.332   5.760  62.908  0.00  0.00    -0.075 A 
ATOM     63  C31 non d ame      -8.575   5.176  62.667  0.00  0.00    -0.082 A 
ATOM     64  H49 non d ame      -6.730   6.126  62.076  0.00  0.00     0.084 H 
ATOM     65  C32 non d ame      -9.346   4.710  63.735  0.00  0.00    -0.083 A 
ATOM     66  H50 non d ame      -8.943   5.085  61.644  0.00  0.00     0.083 H 
ATOM     67  C33 non d ame      -8.870   4.830  65.034  0.00  0.00    -0.082 A 
ATOM     68  H51 non d ame     -10.318   4.251  63.555  0.00  0.00     0.083 H 
ATOM     69  C34 non d ame      -7.627   5.410  65.278  0.00  0.00    -0.075 A 
ATOM     70  H52 non d ame      -9.475   4.466  65.865  0.00  0.00     0.083 H 
ATOM     71  H53 non d ame      -7.259   5.499  66.302  0.00  0.00     0.084 H 
ENDBRANCH  58  61
ENDBRANCH  57  58
ENDBRANCH  55  57
ENDBRANCH  52  55
ENDBRANCH  49  52
ENDBRANCH  47  49
BRANCH  47  72
ATOM     72  C24 non d ame      -7.158  10.637  66.288  0.00  0.00    -0.039 C 
ATOM     73  H35 non d ame      -7.654  11.471  65.791  0.00  0.00     0.036 H 
ATOM     74  H36 non d ame      -6.827   9.777  65.706  0.00  0.00     0.036 H 
BRANCH  72  75
ATOM     75  C25 non d ame      -8.162  10.090  67.411  0.00  0.00    -0.001 C 
ATOM     76  C26 non d ame      -8.582   8.536  67.076  0.00  0.00    -0.035 C 
ATOM     77  C27 non d ame      -9.933   8.434  67.107  0.00  0.00     0.085 C 
ATOM     78  H38 non d ame      -8.333   8.295  66.043  0.00  0.00     0.036 H 
ATOM     79  H39 non d ame      -8.259   7.879  67.883  0.00  0.00     0.036 H 
ATOM     80  N5  non d ame     -10.482   9.840  67.108  0.00  0.00    -0.049 N 
ATOM     81  H40 non d ame     -10.210   7.945  66.173  0.00  0.00     0.075 H 
ATOM     82  H41 non d ame     -10.167   7.960  68.060  0.00  0.00     0.075 H 
ATOM     83  C28 non d ame      -9.237  10.803  67.465  0.00  0.00     0.193 C 
ATOM     84  H42 non d ame     -10.778  10.033  66.163  0.00  0.00     0.280 HD
ATOM     85  H43 non d ame     -11.150   9.886  67.865  0.00  0.00     0.280 HD
ATOM     86  H44 non d ame      -9.138  11.236  68.460  0.00  0.00     0.129 H 
ATOM     87  H37 non d ame      -7.807  10.302  68.420  0.00  0.00     0.046 H 
BRANCH  83  88
ATOM     88  O6  non d ame      -9.195  11.910  66.562  0.00  0.00    -0.369 OA
ATOM     89  H45 non d ame      -8.462  11.797  65.952  0.00  0.00     0.212 HD
ENDBRANCH  83  88
ENDBRANCH  72  75
ENDBRANCH  47  72
ENDBRANCH  45  47
ENDBRANCH   1  43
BRANCH   1  90
ATOM     90  C16 non d ame      -6.275  15.196  70.037  0.00  0.00    -0.035 C 
ATOM     91  H21 non d ame      -7.056  15.944  70.186  0.00  0.00     0.037 H 
ATOM     92  H22 non d ame      -6.320  14.249  70.573  0.00  0.00     0.037 H 
BRANCH  90  93
ATOM     93  C17 non d ame      -4.931  15.875  70.451  0.00  0.00    -0.059 C 
ATOM     94  H23 non d ame      -5.106  16.412  71.383  0.00  0.00     0.038 H 
BRANCH  93  95
ATOM     95  C18 non d ame      -3.798  14.831  70.709  0.00  0.00    -0.073 C 
ATOM     96  H24 non d ame      -4.046  13.895  70.208  0.00  0.00     0.028 H 
ATOM     97  H25 non d ame      -2.856  15.214  70.317  0.00  0.00     0.028 H 
ATOM     98  H26 non d ame      -3.702  14.656  71.781  0.00  0.00     0.028 H 
ENDBRANCH  93  95
BRANCH  93  99
ATOM     99  C19 non d ame      -4.494  16.907  69.407  0.00  0.00    -0.073 C 
ATOM    100  H27 non d ame      -3.766  16.454  68.732  0.00  0.00     0.028 H 
ATOM    101  H28 non d ame      -5.363  17.236  68.838  0.00  0.00     0.028 H 
ATOM    102  H29 non d ame      -4.043  17.763  69.909  0.00  0.00     0.028 H 
ENDBRANCH  93  99
ENDBRANCH  90  93
ENDBRANCH   1  90
TORSDOF 26
ENDMDL
MODEL 8
REMARK VINA RESULT:      -6.1      2.299      9.761
REMARK  26 active torsions:
REMARK  status: ('A' for Active; 'I' for Inactive)
REMARK    1  A    between atoms: C2_2  and  C3_3 
REMARK    2  A    between atoms: C4_6  and  C5_7 
REMARK       I    between atoms: C5_7  and  N2_9 
REMARK    3  A    between atoms: N2_9  and  C6_10 
REMARK    4  A    between atoms: C6_10  and  C7_11 
REMARK    5  A    between atoms: C6_10  and  C8_13 
REMARK       I    between atoms: C7_11  and  N3_14 
REMARK    6  A    between atoms: N3_14  and  C9_15 
REMARK    7  A    between atoms: C9_15  and  C10_16 
REMARK    8  A    between atoms: C9_15  and  C11_18 
REMARK       I    between atoms: C10_16  and  N4_21 
REMARK    9  A    between atoms: C11_18  and  C12_19 
REMARK   10  A    between atoms: C11_18  and  C13_20 
REMARK   11  A    between atoms: N4_21  and  C14_22 
REMARK   12  A    between atoms: C14_22  and  C15_23 
REMARK   13  A    between atoms: C14_22  and  C16_25 
REMARK       I    between atoms: C15_23  and  N6_40 
REMARK   14  A    between atoms: C16_25  and  C17_26 
REMARK   15  A    between atoms: C17_26  and  C18_27 
REMARK   16  A    between atoms: C17_26  and  C19_28 
REMARK   17  A    between atoms: C20_29  and  C21_30 
REMARK   18  A    between atoms: C20_29  and  C24_33 
REMARK   19  A    between atoms: C20_29  and  N6_40 
REMARK   20  A    between atoms: C21_30  and  C22_31 
REMARK   21  A    between atoms: C22_31  and  C23_32 
REMARK   22  A    between atoms: C23_32  and  O8_43 
REMARK   23  A    between atoms: C24_33  and  C25_34 
REMARK   24  A    between atoms: C28_38  and  O6_39 
REMARK   25  A    between atoms: C29_42  and  O8_43 
REMARK   26  A    between atoms: C29_42  and  C35_49 
ROOT
ATOM      1  C14 non d ame     -10.498  10.567  67.648  0.00  0.00     0.089 C 
ATOM      2  H20 non d ame      -9.469  10.644  68.001  0.00  0.00     0.087 H 
ENDROOT
BRANCH   1   3
ATOM      3  N4  non d ame     -11.135   9.487  68.387  0.00  0.00    -0.346 N 
ATOM      4  C10 non d ame     -10.721   9.188  69.807  0.00  0.00     0.241 C 
ATOM      5  O4  non d ame      -9.871   9.829  70.332  0.00  0.00    -0.271 OA
ATOM      6  H19 non d ame     -11.854   8.951  67.922  0.00  0.00     0.163 HD
BRANCH   4   7
ATOM      7  C9  non d ame     -11.394   8.070  70.559  0.00  0.00     0.092 C 
ATOM      8  H11 non d ame     -12.346   7.838  70.081  0.00  0.00     0.088 H 
BRANCH   7   9
ATOM      9  N3  non d ame     -10.566   6.862  70.484  0.00  0.00    -0.346 N 
ATOM     10  C7  non d ame     -10.682   5.978  69.351  0.00  0.00     0.240 C 
ATOM     11  O3  non d ame     -11.437   6.222  68.490  0.00  0.00    -0.271 OA
ATOM     12  H10 non d ame      -9.911   6.638  71.220  0.00  0.00     0.163 HD
BRANCH  10  13
ATOM     13  C6  non d ame      -9.800   4.693  69.279  0.00  0.00     0.086 C 
ATOM     14  H6  non d ame     -10.320   3.849  68.824  0.00  0.00     0.086 H 
BRANCH  13  15
ATOM     15  N2  non d ame      -8.640   4.964  68.446  0.00  0.00    -0.343 N 
ATOM     16  C5  non d ame      -8.640   4.535  67.046  0.00  0.00     0.273 C 
ATOM     17  O2  non d ame      -9.577   3.971  66.600  0.00  0.00    -0.266 OA
ATOM     18  H5  non d ame      -7.841   5.444  68.837  0.00  0.00     0.163 HD
BRANCH  16  19
ATOM     19  C4  non d ame      -7.421   4.816  66.154  0.00  0.00     0.154 A 
ATOM     20  C1  non d ame      -7.389   5.587  64.949  0.00  0.00    -0.017 A 
ATOM     21  C2  non d ame      -6.044   5.539  64.522  0.00  0.00     0.077 A 
ATOM     22  H1  non d ame      -8.216   6.103  64.460  0.00  0.00     0.091 H 
ATOM     23  O1  non d ame      -5.388   4.824  65.388  0.00  0.00    -0.218 OA
ATOM     24  N1  non d ame      -6.169   4.391  66.350  0.00  0.00    -0.123 NA
BRANCH  21  25
ATOM     25  C3  non d ame      -5.469   6.204  63.278  0.00  0.00    -0.029 C 
ATOM     26  H2  non d ame      -4.962   7.126  63.560  0.00  0.00     0.036 H 
ATOM     27  H3  non d ame      -4.759   5.530  62.800  0.00  0.00     0.036 H 
ATOM     28  H4  non d ame      -6.277   6.432  62.581  0.00  0.00     0.036 H 
ENDBRANCH  21  25
ENDBRANCH  16  19
ENDBRANCH  13  15
BRANCH  13  29
ATOM     29  C8  non d ame      -9.360   4.303  70.667  0.00  0.00    -0.049 C 
ATOM     30  H7  non d ame      -9.450   3.223  70.787  0.00  0.00     0.030 H 
ATOM     31  H8  non d ame      -8.322   4.600  70.817  0.00  0.00     0.030 H 
ATOM     32  H9  non d ame      -9.991   4.803  71.402  0.00  0.00     0.030 H 
ENDBRANCH  13  29
ENDBRANCH  10  13
ENDBRANCH   7   9
BRANCH   7  33
ATOM     33  C11 non d ame     -11.573   8.482  72.049  0.00  0.00    -0.033 C 
ATOM     34  H12 non d ame     -11.002   9.396  72.209  0.00  0.00     0.042 H 
BRANCH  33  35
ATOM     35  C12 non d ame     -13.066   8.798  72.377  0.00  0.00    -0.071 C 
ATOM     36  H13 non d ame     -13.390   9.661  71.796  0.00  0.00     0.028 H 
ATOM     37  H14 non d ame     -13.683   7.937  72.124  0.00  0.00     0.028 H 
ATOM     38  H15 non d ame     -13.164   9.017  73.439  0.00  0.00     0.028 H 
ENDBRANCH  33  35
BRANCH  33  39
ATOM     39  C13 non d ame     -11.004   7.384  73.005  0.00  0.00    -0.071 C 
ATOM     40  H16 non d ame     -11.819   6.750  73.355  0.00  0.00     0.028 H 
ATOM     41  H17 non d ame     -10.276   6.776  72.467  0.00  0.00     0.028 H 
ATOM     42  H18 non d ame     -10.521   7.859  73.858  0.00  0.00     0.028 H 
ENDBRANCH  33  39
ENDBRANCH   7  33
ENDBRANCH   4   7
ENDBRANCH   1   3
BRANCH   1  43
ATOM     43  C15 non d ame     -11.303  11.875  67.893  0.00  0.00     0.240 C 
ATOM     44  O5  non d ame     -12.104  12.236  67.093  0.00  0.00    -0.271 OA
ATOM     45  N6  non d ame     -11.081  12.675  69.132  0.00  0.00    -0.355 N 
ATOM     46  H46 non d ame     -10.406  12.376  69.821  0.00  0.00     0.162 HD
BRANCH  45  47
ATOM     47  C20 non d ame     -11.854  13.916  69.351  0.00  0.00     0.013 C 
ATOM     48  H30 non d ame     -12.643  13.957  68.600  0.00  0.00     0.072 H 
BRANCH  47  49
ATOM     49  C21 non d ame     -10.938  15.109  69.202  0.00  0.00    -0.038 C 
ATOM     50  H31 non d ame     -11.504  15.963  69.574  0.00  0.00     0.036 H 
ATOM     51  H32 non d ame     -10.002  14.824  69.684  0.00  0.00     0.036 H 
BRANCH  49  52
ATOM     52  C22 non d ame     -10.594  15.421  67.729  0.00  0.00     0.018 C 
ATOM     53  H33 non d ame      -9.581  15.049  67.577  0.00  0.00     0.048 H 
ATOM     54  H34 non d ame     -11.417  15.015  67.142  0.00  0.00     0.048 H 
BRANCH  52  55
ATOM     55  C23 non d ame     -10.545  16.940  67.405  0.00  0.00     0.259 C 
ATOM     56  O7  non d ame     -11.026  17.731  68.150  0.00  0.00    -0.265 OA
BRANCH  55  57
ATOM     57  O8  non d ame      -9.930  17.376  66.199  0.00  0.00    -0.317 OA
BRANCH  57  58
ATOM     58  C29 non d ame      -9.202  18.601  66.327  0.00  0.00     0.052 C 
ATOM     59  H47 non d ame      -9.073  18.975  65.312  0.00  0.00     0.082 H 
ATOM     60  H48 non d ame      -9.750  19.194  67.060  0.00  0.00     0.082 H 
BRANCH  58  61
ATOM     61  C35 non d ame      -7.804  18.269  66.911  0.00  0.00    -0.034 A 
ATOM     62  C30 non d ame      -7.427  18.775  68.151  0.00  0.00    -0.075 A 
ATOM     63  C31 non d ame      -6.170  18.475  68.675  0.00  0.00    -0.082 A 
ATOM     64  H49 non d ame      -8.117  19.405  68.712  0.00  0.00     0.084 H 
ATOM     65  C32 non d ame      -5.287  17.670  67.952  0.00  0.00    -0.083 A 
ATOM     66  H50 non d ame      -5.880  18.871  69.648  0.00  0.00     0.083 H 
ATOM     67  C33 non d ame      -5.665  17.170  66.713  0.00  0.00    -0.082 A 
ATOM     68  H51 non d ame      -4.303  17.430  68.355  0.00  0.00     0.083 H 
ATOM     69  C34 non d ame      -6.921  17.464  66.187  0.00  0.00    -0.075 A 
ATOM     70  H52 non d ame      -4.972  16.543  66.151  0.00  0.00     0.083 H 
ATOM     71  H53 non d ame      -7.211  17.067  65.214  0.00  0.00     0.084 H 
ENDBRANCH  58  61
ENDBRANCH  57  58
ENDBRANCH  55  57
ENDBRANCH  52  55
ENDBRANCH  49  52
ENDBRANCH  47  49
BRANCH  47  72
ATOM     72  C24 non d ame     -12.458  13.907  70.754  0.00  0.00    -0.039 C 
ATOM     73  H35 non d ame     -13.413  13.391  70.655  0.00  0.00     0.036 H 
ATOM     74  H36 non d ame     -11.682  13.496  71.401  0.00  0.00     0.036 H 
BRANCH  72  75
ATOM     75  C25 non d ame     -12.772  15.389  71.275  0.00  0.00    -0.001 C 
ATOM     76  C26 non d ame     -11.720  15.796  72.471  0.00  0.00    -0.035 C 
ATOM     77  C27 non d ame     -12.425  16.249  73.536  0.00  0.00     0.085 C 
ATOM     78  H38 non d ame     -11.226  14.904  72.854  0.00  0.00     0.036 H 
ATOM     79  H39 non d ame     -11.129  16.661  72.172  0.00  0.00     0.036 H 
ATOM     80  N5  non d ame     -13.870  15.881  73.297  0.00  0.00    -0.049 N 
ATOM     81  H40 non d ame     -12.053  15.687  74.393  0.00  0.00     0.075 H 
ATOM     82  H41 non d ame     -12.327  17.333  73.510  0.00  0.00     0.075 H 
ATOM     83  C28 non d ame     -13.974  15.478  71.737  0.00  0.00     0.193 C 
ATOM     84  H42 non d ame     -14.052  15.059  73.854  0.00  0.00     0.280 HD
ATOM     85  H43 non d ame     -14.409  16.722  73.447  0.00  0.00     0.280 HD
ATOM     86  H44 non d ame     -14.414  16.165  71.015  0.00  0.00     0.129 H 
ATOM     87  H37 non d ame     -12.888  16.098  70.454  0.00  0.00     0.046 H 
BRANCH  83  88
ATOM     88  O6  non d ame     -14.699  14.256  71.590  0.00  0.00    -0.369 OA
ATOM     89  H45 non d ame     -15.236  14.296  70.795  0.00  0.00     0.212 HD
ENDBRANCH  83  88
ENDBRANCH  72  75
ENDBRANCH  47  72
ENDBRANCH  45  47
ENDBRANCH   1  43
BRANCH   1  90
ATOM     90  C16 non d ame     -10.511  10.228  66.166  0.00  0.00    -0.035 C 
ATOM     91  H21 non d ame     -10.752   9.166  66.115  0.00  0.00     0.037 H 
ATOM     92  H22 non d ame     -11.176  10.960  65.709  0.00  0.00     0.037 H 
BRANCH  90  93
ATOM     93  C17 non d ame      -9.122  10.399  65.472  0.00  0.00    -0.059 C 
ATOM     94  H23 non d ame      -9.204  11.227  64.768  0.00  0.00     0.038 H 
BRANCH  93  95
ATOM     95  C18 non d ame      -7.992  10.752  66.492  0.00  0.00    -0.073 C 
ATOM     96  H24 non d ame      -7.754   9.871  67.088  0.00  0.00     0.028 H 
ATOM     97  H25 non d ame      -7.104  11.076  65.951  0.00  0.00     0.028 H 
ATOM     98  H26 non d ame      -8.333  11.554  67.148  0.00  0.00     0.028 H 
ENDBRANCH  93  95
BRANCH  93  99
ATOM     99  C19 non d ame      -8.756   9.151  64.665  0.00  0.00    -0.073 C 
ATOM    100  H27 non d ame      -8.273   8.424  65.319  0.00  0.00     0.028 H 
ATOM    101  H28 non d ame      -9.662   8.715  64.242  0.00  0.00     0.028 H 
ATOM    102  H29 non d ame      -8.076   9.425  63.859  0.00  0.00     0.028 H 
ENDBRANCH  93  99
ENDBRANCH  90  93
ENDBRANCH   1  90
TORSDOF 26
ENDMDL
MODEL 9
REMARK VINA RESULT:      -6.1      2.696      9.505
REMARK  26 active torsions:
REMARK  status: ('A' for Active; 'I' for Inactive)
REMARK    1  A    between atoms: C2_2  and  C3_3 
REMARK    2  A    between atoms: C4_6  and  C5_7 
REMARK       I    between atoms: C5_7  and  N2_9 
REMARK    3  A    between atoms: N2_9  and  C6_10 
REMARK    4  A    between atoms: C6_10  and  C7_11 
REMARK    5  A    between atoms: C6_10  and  C8_13 
REMARK       I    between atoms: C7_11  and  N3_14 
REMARK    6  A    between atoms: N3_14  and  C9_15 
REMARK    7  A    between atoms: C9_15  and  C10_16 
REMARK    8  A    between atoms: C9_15  and  C11_18 
REMARK       I    between atoms: C10_16  and  N4_21 
REMARK    9  A    between atoms: C11_18  and  C12_19 
REMARK   10  A    between atoms: C11_18  and  C13_20 
REMARK   11  A    between atoms: N4_21  and  C14_22 
REMARK   12  A    between atoms: C14_22  and  C15_23 
REMARK   13  A    between atoms: C14_22  and  C16_25 
REMARK       I    between atoms: C15_23  and  N6_40 
REMARK   14  A    between atoms: C16_25  and  C17_26 
REMARK   15  A    between atoms: C17_26  and  C18_27 
REMARK   16  A    between atoms: C17_26  and  C19_28 
REMARK   17  A    between atoms: C20_29  and  C21_30 
REMARK   18  A    between atoms: C20_29  and  C24_33 
REMARK   19  A    between atoms: C20_29  and  N6_40 
REMARK   20  A    between atoms: C21_30  and  C22_31 
REMARK   21  A    between atoms: C22_31  and  C23_32 
REMARK   22  A    between atoms: C23_32  and  O8_43 
REMARK   23  A    between atoms: C24_33  and  C25_34 
REMARK   24  A    between atoms: C28_38  and  O6_39 
REMARK   25  A    between atoms: C29_42  and  O8_43 
REMARK   26  A    between atoms: C29_42  and  C35_49 
ROOT
ATOM      1  C14 non d ame      -8.054  10.132  64.408  0.00  0.00     0.089 C 
ATOM      2  H20 non d ame      -7.256  10.793  64.068  0.00  0.00     0.087 H 
ENDROOT
BRANCH   1   3
ATOM      3  N4  non d ame      -7.463   9.171  65.329  0.00  0.00    -0.346 N 
ATOM      4  C10 non d ame      -6.258   9.548  66.153  0.00  0.00     0.241 C 
ATOM      5  O4  non d ame      -5.779  10.630  66.056  0.00  0.00    -0.271 OA
ATOM      6  H19 non d ame      -7.884   8.255  65.395  0.00  0.00     0.163 HD
BRANCH   4   7
ATOM      7  C9  non d ame      -5.662   8.544  67.105  0.00  0.00     0.092 C 
ATOM      8  H11 non d ame      -5.455   9.031  68.058  0.00  0.00     0.088 H 
BRANCH   7   9
ATOM      9  N3  non d ame      -6.638   7.481  67.366  0.00  0.00    -0.346 N 
ATOM     10  C7  non d ame      -7.313   7.419  68.638  0.00  0.00     0.240 C 
ATOM     11  O3  non d ame      -7.084   8.216  69.465  0.00  0.00    -0.271 OA
ATOM     12  H10 non d ame      -6.845   6.785  66.663  0.00  0.00     0.163 HD
BRANCH  10  13
ATOM     13  C6  non d ame      -8.347   6.283  68.912  0.00  0.00     0.086 C 
ATOM     14  H6  non d ame      -7.995   5.558  69.646  0.00  0.00     0.086 H 
BRANCH  13  15
ATOM     15  N2  non d ame      -9.560   6.870  69.457  0.00  0.00    -0.343 N 
ATOM     16  C5  non d ame      -9.972   6.539  70.823  0.00  0.00     0.273 C 
ATOM     17  O2  non d ame      -9.323   5.796  71.473  0.00  0.00    -0.266 OA
ATOM     18  H5  non d ame     -10.110   7.502  68.893  0.00  0.00     0.163 HD
BRANCH  16  19
ATOM     19  C4  non d ame     -11.250   7.154  71.412  0.00  0.00     0.154 A 
ATOM     20  C1  non d ame     -12.598   6.913  70.995  0.00  0.00    -0.017 A 
ATOM     21  C2  non d ame     -13.391   7.711  71.848  0.00  0.00     0.077 A 
ATOM     22  H1  non d ame     -12.947   6.259  70.195  0.00  0.00     0.091 H 
ATOM     23  O1  non d ame     -12.585   8.332  72.659  0.00  0.00    -0.218 OA
ATOM     24  N1  non d ame     -11.330   8.023  72.424  0.00  0.00    -0.123 NA
BRANCH  21  25
ATOM     25  C3  non d ame     -14.910   7.822  71.825  0.00  0.00    -0.029 C 
ATOM     26  H2  non d ame     -15.329   6.967  71.294  0.00  0.00     0.036 H 
ATOM     27  H3  non d ame     -15.289   7.838  72.846  0.00  0.00     0.036 H 
ATOM     28  H4  non d ame     -15.200   8.743  71.316  0.00  0.00     0.036 H 
ENDBRANCH  21  25
ENDBRANCH  16  19
ENDBRANCH  13  15
BRANCH  13  29
ATOM     29  C8  non d ame      -8.657   5.561  67.625  0.00  0.00    -0.049 C 
ATOM     30  H7  non d ame      -9.077   4.580  67.851  0.00  0.00     0.030 H 
ATOM     31  H8  non d ame      -9.377   6.140  67.047  0.00  0.00     0.030 H 
ATOM     32  H9  non d ame      -7.741   5.438  67.048  0.00  0.00     0.030 H 
ENDBRANCH  13  29
ENDBRANCH  10  13
ENDBRANCH   7   9
BRANCH   7  33
ATOM     33  C11 non d ame      -4.382   7.926  66.472  0.00  0.00    -0.033 C 
ATOM     34  H12 non d ame      -4.385   8.177  65.412  0.00  0.00     0.042 H 
BRANCH  33  35
ATOM     35  C12 non d ame      -3.088   8.538  67.095  0.00  0.00    -0.071 C 
ATOM     36  H13 non d ame      -3.359   9.338  67.784  0.00  0.00     0.028 H 
ATOM     37  H14 non d ame      -2.544   7.764  67.635  0.00  0.00     0.028 H 
ATOM     38  H15 non d ame      -2.459   8.940  66.302  0.00  0.00     0.028 H 
ENDBRANCH  33  35
BRANCH  33  39
ATOM     39  C13 non d ame      -4.390   6.369  66.601  0.00  0.00    -0.071 C 
ATOM     40  H16 non d ame      -3.453   5.968  66.215  0.00  0.00     0.028 H 
ATOM     41  H17 non d ame      -4.499   6.092  67.651  0.00  0.00     0.028 H 
ATOM     42  H18 non d ame      -5.223   5.961  66.030  0.00  0.00     0.028 H 
ENDBRANCH  33  39
ENDBRANCH   7  33
ENDBRANCH   4   7
ENDBRANCH   1   3
BRANCH   1  43
ATOM     43  C15 non d ame      -9.179  10.904  65.154  0.00  0.00     0.240 C 
ATOM     44  O5  non d ame     -10.300  10.515  65.098  0.00  0.00    -0.271 OA
ATOM     45  N6  non d ame      -8.857  12.125  65.947  0.00  0.00    -0.355 N 
ATOM     46  H46 non d ame      -7.907  12.462  66.005  0.00  0.00     0.162 HD
BRANCH  45  47
ATOM     47  C20 non d ame      -9.938  12.847  66.651  0.00  0.00     0.013 C 
ATOM     48  H30 non d ame     -10.889  12.516  66.235  0.00  0.00     0.072 H 
BRANCH  47  49
ATOM     49  C21 non d ame      -9.770  14.334  66.434  0.00  0.00    -0.038 C 
ATOM     50  H31 non d ame      -8.813  14.451  65.927  0.00  0.00     0.036 H 
ATOM     51  H32 non d ame     -10.688  14.667  65.950  0.00  0.00     0.036 H 
BRANCH  49  52
ATOM     52  C22 non d ame      -9.663  15.124  67.757  0.00  0.00     0.018 C 
ATOM     53  H33 non d ame     -10.104  14.483  68.521  0.00  0.00     0.048 H 
ATOM     54  H34 non d ame      -8.619  15.426  67.837  0.00  0.00     0.048 H 
BRANCH  52  55
ATOM     55  C23 non d ame     -10.492  16.438  67.771  0.00  0.00     0.259 C 
ATOM     56  O7  non d ame     -10.250  17.312  67.003  0.00  0.00    -0.265 OA
BRANCH  55  57
ATOM     57  O8  non d ame     -11.538  16.592  68.722  0.00  0.00    -0.317 OA
BRANCH  57  58
ATOM     58  C29 non d ame     -12.104  15.356  69.169  0.00  0.00     0.052 C 
ATOM     59  H47 non d ame     -13.008  15.215  68.577  0.00  0.00     0.082 H 
ATOM     60  H48 non d ame     -11.298  14.626  69.114  0.00  0.00     0.082 H 
BRANCH  58  61
ATOM     61  C35 non d ame     -12.512  15.526  70.657  0.00  0.00    -0.034 A 
ATOM     62  C30 non d ame     -11.615  16.074  71.567  0.00  0.00    -0.075 A 
ATOM     63  C31 non d ame     -11.981  16.227  72.904  0.00  0.00    -0.082 A 
ATOM     64  H49 non d ame     -10.624  16.385  71.234  0.00  0.00     0.084 H 
ATOM     65  C32 non d ame     -13.250  15.826  73.329  0.00  0.00    -0.083 A 
ATOM     66  H50 non d ame     -11.277  16.660  73.614  0.00  0.00     0.083 H 
ATOM     67  C33 non d ame     -14.142  15.276  72.417  0.00  0.00    -0.082 A 
ATOM     68  H51 non d ame     -13.545  15.942  74.372  0.00  0.00     0.083 H 
ATOM     69  C34 non d ame     -13.780  15.124  71.080  0.00  0.00    -0.075 A 
ATOM     70  H52 non d ame     -15.131  14.962  72.753  0.00  0.00     0.083 H 
ATOM     71  H53 non d ame     -14.487  14.692  70.370  0.00  0.00     0.084 H 
ENDBRANCH  58  61
ENDBRANCH  57  58
ENDBRANCH  55  57
ENDBRANCH  52  55
ENDBRANCH  49  52
ENDBRANCH  47  49
BRANCH  47  72
ATOM     72  C24 non d ame      -9.875  12.539  68.146  0.00  0.00    -0.039 C 
ATOM     73  H35 non d ame      -8.847  12.229  68.335  0.00  0.00     0.036 H 
ATOM     74  H36 non d ame     -10.277  13.423  68.641  0.00  0.00     0.036 H 
BRANCH  72  75
ATOM     75  C25 non d ame     -10.820  11.306  68.538  0.00  0.00    -0.001 C 
ATOM     76  C26 non d ame     -12.070  11.833  69.468  0.00  0.00    -0.035 C 
ATOM     77  C27 non d ame     -12.138  11.066  70.582  0.00  0.00     0.085 C 
ATOM     78  H38 non d ame     -11.854  12.828  69.856  0.00  0.00     0.036 H 
ATOM     79  H39 non d ame     -13.018  11.638  68.966  0.00  0.00     0.036 H 
ATOM     80  N5  non d ame     -10.852  10.278  70.654  0.00  0.00    -0.049 N 
ATOM     81  H40 non d ame     -12.173  11.767  71.417  0.00  0.00     0.075 H 
ATOM     82  H41 non d ame     -12.966  10.379  70.412  0.00  0.00     0.075 H 
ATOM     83  C28 non d ame     -10.169  10.408  69.197  0.00  0.00     0.193 C 
ATOM     84  H42 non d ame     -10.265  10.749  71.327  0.00  0.00     0.280 HD
ATOM     85  H43 non d ame     -11.115   9.314  70.800  0.00  0.00     0.280 HD
ATOM     86  H44 non d ame     -10.206   9.578  68.492  0.00  0.00     0.129 H 
ATOM     87  H37 non d ame     -11.070  10.688  67.675  0.00  0.00     0.046 H 
BRANCH  83  88
ATOM     88  O6  non d ame      -8.784  10.735  69.329  0.00  0.00    -0.369 OA
ATOM     89  H45 non d ame      -8.265   9.927  69.344  0.00  0.00     0.212 HD
ENDBRANCH  83  88
ENDBRANCH  72  75
ENDBRANCH  47  72
ENDBRANCH  45  47
ENDBRANCH   1  43
BRANCH   1  90
ATOM     90  C16 non d ame      -8.644   9.385  63.223  0.00  0.00    -0.035 C 
ATOM     91  H21 non d ame      -8.612   8.330  63.502  0.00  0.00     0.037 H 
ATOM     92  H22 non d ame      -9.601   9.867  63.026  0.00  0.00     0.037 H 
BRANCH  90  93
ATOM     93  C17 non d ame      -7.803   9.520  61.914  0.00  0.00    -0.059 C 
ATOM     94  H23 non d ame      -8.233   8.845  61.175  0.00  0.00     0.038 H 
BRANCH  93  95
ATOM     95  C18 non d ame      -7.855  10.966  61.327  0.00  0.00    -0.073 C 
ATOM     96  H24 non d ame      -7.178  11.610  61.887  0.00  0.00     0.028 H 
ATOM     97  H25 non d ame      -7.553  10.944  60.280  0.00  0.00     0.028 H 
ATOM     98  H26 non d ame      -8.872  11.353  61.403  0.00  0.00     0.028 H 
ENDBRANCH  93  95
BRANCH  93  99
ATOM     99  C19 non d ame      -6.355   9.078  62.145  0.00  0.00    -0.073 C 
ATOM    100  H27 non d ame      -5.733   9.954  62.331  0.00  0.00     0.028 H 
ATOM    101  H28 non d ame      -6.313   8.412  63.008  0.00  0.00     0.028 H 
ATOM    102  H29 non d ame      -5.991   8.551  61.264  0.00  0.00     0.028 H 
ENDBRANCH  93  99
ENDBRANCH  90  93
ENDBRANCH   1  90
TORSDOF 26
ENDMDL
MODEL 10
REMARK VINA RESULT:      -6.1      2.248     10.206
REMARK  26 active torsions:
REMARK  status: ('A' for Active; 'I' for Inactive)
REMARK    1  A    between atoms: C2_2  and  C3_3 
REMARK    2  A    between atoms: C4_6  and  C5_7 
REMARK       I    between atoms: C5_7  and  N2_9 
REMARK    3  A    between atoms: N2_9  and  C6_10 
REMARK    4  A    between atoms: C6_10  and  C7_11 
REMARK    5  A    between atoms: C6_10  and  C8_13 
REMARK       I    between atoms: C7_11  and  N3_14 
REMARK    6  A    between atoms: N3_14  and  C9_15 
REMARK    7  A    between atoms: C9_15  and  C10_16 
REMARK    8  A    between atoms: C9_15  and  C11_18 
REMARK       I    between atoms: C10_16  and  N4_21 
REMARK    9  A    between atoms: C11_18  and  C12_19 
REMARK   10  A    between atoms: C11_18  and  C13_20 
REMARK   11  A    between atoms: N4_21  and  C14_22 
REMARK   12  A    between atoms: C14_22  and  C15_23 
REMARK   13  A    between atoms: C14_22  and  C16_25 
REMARK       I    between atoms: C15_23  and  N6_40 
REMARK   14  A    between atoms: C16_25  and  C17_26 
REMARK   15  A    between atoms: C17_26  and  C18_27 
REMARK   16  A    between atoms: C17_26  and  C19_28 
REMARK   17  A    between atoms: C20_29  and  C21_30 
REMARK   18  A    between atoms: C20_29  and  C24_33 
REMARK   19  A    between atoms: C20_29  and  N6_40 
REMARK   20  A    between atoms: C21_30  and  C22_31 
REMARK   21  A    between atoms: C22_31  and  C23_32 
REMARK   22  A    between atoms: C23_32  and  O8_43 
REMARK   23  A    between atoms: C24_33  and  C25_34 
REMARK   24  A    between atoms: C28_38  and  O6_39 
REMARK   25  A    between atoms: C29_42  and  O8_43 
REMARK   26  A    between atoms: C29_42  and  C35_49 
ROOT
ATOM      1  C14 non d ame     -11.807  13.204  69.426  0.00  0.00     0.089 C 
ATOM      2  H20 non d ame     -12.823  13.072  69.052  0.00  0.00     0.087 H 
ENDROOT
BRANCH   1   3
ATOM      3  N4  non d ame     -11.331  11.901  69.867  0.00  0.00    -0.346 N 
ATOM      4  C10 non d ame     -11.481  10.693  68.976  0.00  0.00     0.241 C 
ATOM      5  O4  non d ame     -11.991  10.795  67.908  0.00  0.00    -0.271 OA
ATOM      6  H19 non d ame     -10.903  11.835  70.779  0.00  0.00     0.163 HD
BRANCH   4   7
ATOM      7  C9  non d ame     -10.979   9.353  69.446  0.00  0.00     0.092 C 
ATOM      8  H11 non d ame     -11.736   8.886  70.075  0.00  0.00     0.088 H 
BRANCH   7   9
ATOM      9  N3  non d ame     -10.775   8.474  68.290  0.00  0.00    -0.346 N 
ATOM     10  C7  non d ame     -10.940   7.049  68.430  0.00  0.00     0.240 C 
ATOM     11  O3  non d ame     -11.235   6.591  69.466  0.00  0.00    -0.271 OA
ATOM     12  H10 non d ame     -10.520   8.855  67.389  0.00  0.00     0.163 HD
BRANCH  10  13
ATOM     13  C6  non d ame     -10.719   6.119  67.197  0.00  0.00     0.086 C 
ATOM     14  H6  non d ame     -11.654   5.760  66.766  0.00  0.00     0.086 H 
BRANCH  13  15
ATOM     15  N2  non d ame     -10.043   6.872  66.154  0.00  0.00    -0.343 N 
ATOM     16  C5  non d ame      -8.583   6.984  66.174  0.00  0.00     0.273 C 
ATOM     17  O2  non d ame      -7.962   6.467  67.036  0.00  0.00    -0.266 OA
ATOM     18  H5  non d ame     -10.582   7.314  65.422  0.00  0.00     0.163 HD
BRANCH  16  19
ATOM     19  C4  non d ame      -7.856   7.777  65.077  0.00  0.00     0.154 A 
ATOM     20  C1  non d ame      -8.207   7.859  63.692  0.00  0.00    -0.017 A 
ATOM     21  C2  non d ame      -7.232   8.705  63.120  0.00  0.00     0.077 A 
ATOM     22  H1  non d ame      -9.042   7.380  63.182  0.00  0.00     0.091 H 
ATOM     23  O1  non d ame      -6.421   9.063  64.072  0.00  0.00    -0.218 OA
ATOM     24  N1  non d ame      -6.765   8.534  65.224  0.00  0.00    -0.123 NA
BRANCH  21  25
ATOM     25  C3  non d ame      -7.147   9.122  61.657  0.00  0.00    -0.029 C 
ATOM     26  H2  non d ame      -6.121   9.403  61.418  0.00  0.00     0.036 H 
ATOM     27  H3  non d ame      -7.453   8.291  61.024  0.00  0.00     0.036 H 
ATOM     28  H4  non d ame      -7.807   9.974  61.483  0.00  0.00     0.036 H 
ENDBRANCH  21  25
ENDBRANCH  16  19
ENDBRANCH  13  15
BRANCH  13  29
ATOM     29  C8  non d ame      -9.882   4.933  67.602  0.00  0.00    -0.049 C 
ATOM     30  H7  non d ame      -9.200   5.225  68.401  0.00  0.00     0.030 H 
ATOM     31  H8  non d ame     -10.531   4.131  67.953  0.00  0.00     0.030 H 
ATOM     32  H9  non d ame      -9.306   4.585  66.744  0.00  0.00     0.030 H 
ENDBRANCH  13  29
ENDBRANCH  10  13
ENDBRANCH   7   9
BRANCH   7  33
ATOM     33  C11 non d ame      -9.628   9.541  70.196  0.00  0.00    -0.033 C 
ATOM     34  H12 non d ame      -9.577  10.577  70.529  0.00  0.00     0.042 H 
BRANCH  33  35
ATOM     35  C12 non d ame      -9.553   8.636  71.466  0.00  0.00    -0.071 C 
ATOM     36  H13 non d ame     -10.425   8.818  72.094  0.00  0.00     0.028 H 
ATOM     37  H14 non d ame      -9.534   7.589  71.165  0.00  0.00     0.028 H 
ATOM     38  H15 non d ame      -8.647   8.870  72.024  0.00  0.00     0.028 H 
ENDBRANCH  33  35
BRANCH  33  39
ATOM     39  C13 non d ame      -8.418   9.279  69.243  0.00  0.00    -0.071 C 
ATOM     40  H16 non d ame      -8.390  10.048  68.471  0.00  0.00     0.028 H 
ATOM     41  H17 non d ame      -7.491   9.307  69.817  0.00  0.00     0.028 H 
ATOM     42  H18 non d ame      -8.527   8.300  68.777  0.00  0.00     0.028 H 
ENDBRANCH  33  39
ENDBRANCH   7  33
ENDBRANCH   4   7
ENDBRANCH   1   3
BRANCH   1  43
ATOM     43  C15 non d ame     -10.842  13.737  68.329  0.00  0.00     0.240 C 
ATOM     44  O5  non d ame      -9.682  13.486  68.389  0.00  0.00    -0.271 OA
ATOM     45  N6  non d ame     -11.366  14.554  67.197  0.00  0.00    -0.355 N 
ATOM     46  H46 non d ame     -12.350  14.769  67.133  0.00  0.00     0.162 HD
BRANCH  45  47
ATOM     47  C20 non d ame     -10.435  15.053  66.162  0.00  0.00     0.013 C 
ATOM     48  H30 non d ame      -9.427  14.746  66.440  0.00  0.00     0.072 H 
BRANCH  47  49
ATOM     49  C21 non d ame     -10.517  16.561  66.100  0.00  0.00    -0.038 C 
ATOM     50  H31 non d ame      -9.695  16.875  65.458  0.00  0.00     0.036 H 
ATOM     51  H32 non d ame     -11.546  16.789  65.820  0.00  0.00     0.036 H 
BRANCH  49  52
ATOM     52  C22 non d ame     -10.279  17.230  67.472  0.00  0.00     0.018 C 
ATOM     53  H33 non d ame     -11.177  17.031  68.058  0.00  0.00     0.048 H 
ATOM     54  H34 non d ame      -9.313  16.864  67.815  0.00  0.00     0.048 H 
BRANCH  52  55
ATOM     55  C23 non d ame     -10.150  18.777  67.400  0.00  0.00     0.259 C 
ATOM     56  O7  non d ame     -10.624  19.380  66.492  0.00  0.00    -0.265 OA
BRANCH  55  57
ATOM     57  O8  non d ame      -9.446  19.466  68.426  0.00  0.00    -0.317 OA
BRANCH  57  58
ATOM     58  C29 non d ame      -8.116  18.986  68.641  0.00  0.00     0.052 C 
ATOM     59  H47 non d ame      -7.762  19.491  69.539  0.00  0.00     0.082 H 
ATOM     60  H48 non d ame      -8.188  17.899  68.620  0.00  0.00     0.082 H 
BRANCH  58  61
ATOM     61  C35 non d ame      -7.242  19.444  67.443  0.00  0.00    -0.034 A 
ATOM     62  C30 non d ame      -6.751  18.507  66.540  0.00  0.00    -0.075 A 
ATOM     63  C31 non d ame      -5.967  18.919  65.463  0.00  0.00    -0.082 A 
ATOM     64  H49 non d ame      -6.982  17.450  66.674  0.00  0.00     0.084 H 
ATOM     65  C32 non d ame      -5.671  20.274  65.294  0.00  0.00    -0.083 A 
ATOM     66  H50 non d ame      -5.586  18.182  64.755  0.00  0.00     0.083 H 
ATOM     67  C33 non d ame      -6.160  21.206  66.200  0.00  0.00    -0.082 A 
ATOM     68  H51 non d ame      -5.059  20.605  64.455  0.00  0.00     0.083 H 
ATOM     69  C34 non d ame      -6.946  20.798  67.276  0.00  0.00    -0.075 A 
ATOM     70  H52 non d ame      -5.925  22.262  66.066  0.00  0.00     0.083 H 
ATOM     71  H53 non d ame      -7.328  21.536  67.982  0.00  0.00     0.084 H 
ENDBRANCH  58  61
ENDBRANCH  57  58
ENDBRANCH  55  57
ENDBRANCH  52  55
ENDBRANCH  49  52
ENDBRANCH  47  49
BRANCH  47  72
ATOM     72  C24 non d ame     -10.813  14.465  64.803  0.00  0.00    -0.039 C 
ATOM     73  H35 non d ame     -11.647  15.071  64.447  0.00  0.00     0.036 H 
ATOM     74  H36 non d ame      -9.883  14.431  64.233  0.00  0.00     0.036 H 
BRANCH  72  75
ATOM     75  C25 non d ame     -11.343  12.959  64.934  0.00  0.00    -0.001 C 
ATOM     76  C26 non d ame     -10.070  11.918  64.949  0.00  0.00    -0.035 C 
ATOM     77  C27 non d ame     -10.286  10.953  64.023  0.00  0.00     0.085 C 
ATOM     78  H38 non d ame      -9.172  12.419  64.590  0.00  0.00     0.036 H 
ATOM     79  H39 non d ame     -10.049  11.368  65.890  0.00  0.00     0.036 H 
ATOM     80  N5  non d ame     -11.427  11.423  63.153  0.00  0.00    -0.049 N 
ATOM     81  H40 non d ame      -9.375  10.915  63.424  0.00  0.00     0.075 H 
ATOM     82  H41 non d ame     -10.605  10.076  64.586  0.00  0.00     0.075 H 
ATOM     83  C28 non d ame     -12.116  12.648  63.948  0.00  0.00     0.193 C 
ATOM     84  H42 non d ame     -11.012  11.781  62.306  0.00  0.00     0.280 HD
ATOM     85  H43 non d ame     -12.086  10.658  63.109  0.00  0.00     0.280 HD
ATOM     86  H44 non d ame     -13.060  12.507  64.473  0.00  0.00     0.129 H 
ATOM     87  H37 non d ame     -12.083  12.850  65.727  0.00  0.00     0.046 H 
BRANCH  83  88
ATOM     88  O6  non d ame     -12.332  13.750  63.064  0.00  0.00    -0.369 OA
ATOM     89  H45 non d ame     -11.681  13.725  62.358  0.00  0.00     0.212 HD
ENDBRANCH  83  88
ENDBRANCH  72  75
ENDBRANCH  47  72
ENDBRANCH  45  47
ENDBRANCH   1  43
BRANCH   1  90
ATOM     90  C16 non d ame     -11.813  14.157  70.610  0.00  0.00    -0.035 C 
ATOM     91  H21 non d ame     -11.192  13.678  71.369  0.00  0.00     0.037 H 
ATOM     92  H22 non d ame     -11.524  15.125  70.202  0.00  0.00     0.037 H 
BRANCH  90  93
ATOM     93  C17 non d ame     -13.223  14.350  71.252  0.00  0.00    -0.059 C 
ATOM     94  H23 non d ame     -13.954  14.371  70.444  0.00  0.00     0.038 H 
BRANCH  93  95
ATOM     95  C18 non d ame     -13.602  13.174  72.208  0.00  0.00    -0.073 C 
ATOM     96  H24 non d ame     -12.925  13.168  73.062  0.00  0.00     0.028 H 
ATOM     97  H25 non d ame     -14.626  13.307  72.557  0.00  0.00     0.028 H 
ATOM     98  H26 non d ame     -13.521  12.229  71.670  0.00  0.00     0.028 H 
ENDBRANCH  93  95
BRANCH  93  99
ATOM     99  C19 non d ame     -13.313  15.695  71.980  0.00  0.00    -0.073 C 
ATOM    100  H27 non d ame     -13.992  16.355  71.439  0.00  0.00     0.028 H 
ATOM    101  H28 non d ame     -13.689  15.534  72.991  0.00  0.00     0.028 H 
ATOM    102  H29 non d ame     -12.324  16.149  72.029  0.00  0.00     0.028 H 
ENDBRANCH  93  99
ENDBRANCH  90  93
ENDBRANCH   1  90
TORSDOF 26
ENDMDL
MODEL 11
REMARK VINA RESULT:      -6.1      2.433     10.941
REMARK  26 active torsions:
REMARK  status: ('A' for Active; 'I' for Inactive)
REMARK    1  A    between atoms: C2_2  and  C3_3 
REMARK    2  A    between atoms: C4_6  and  C5_7 
REMARK       I    between atoms: C5_7  and  N2_9 
REMARK    3  A    between atoms: N2_9  and  C6_10 
REMARK    4  A    between atoms: C6_10  and  C7_11 
REMARK    5  A    between atoms: C6_10  and  C8_13 
REMARK       I    between atoms: C7_11  and  N3_14 
REMARK    6  A    between atoms: N3_14  and  C9_15 
REMARK    7  A    between atoms: C9_15  and  C10_16 
REMARK    8  A    between atoms: C9_15  and  C11_18 
REMARK       I    between atoms: C10_16  and  N4_21 
REMARK    9  A    between atoms: C11_18  and  C12_19 
REMARK   10  A    between atoms: C11_18  and  C13_20 
REMARK   11  A    between atoms: N4_21  and  C14_22 
REMARK   12  A    between atoms: C14_22  and  C15_23 
REMARK   13  A    between atoms: C14_22  and  C16_25 
REMARK       I    between atoms: C15_23  and  N6_40 
REMARK   14  A    between atoms: C16_25  and  C17_26 
REMARK   15  A    between atoms: C17_26  and  C18_27 
REMARK   16  A    between atoms: C17_26  and  C19_28 
REMARK   17  A    between atoms: C20_29  and  C21_30 
REMARK   18  A    between atoms: C20_29  and  C24_33 
REMARK   19  A    between atoms: C20_29  and  N6_40 
REMARK   20  A    between atoms: C21_30  and  C22_31 
REMARK   21  A    between atoms: C22_31  and  C23_32 
REMARK   22  A    between atoms: C23_32  and  O8_43 
REMARK   23  A    between atoms: C24_33  and  C25_34 
REMARK   24  A    between atoms: C28_38  and  O6_39 
REMARK   25  A    between atoms: C29_42  and  O8_43 
REMARK   26  A    between atoms: C29_42  and  C35_49 
ROOT
ATOM      1  C14 non d ame     -12.067  13.783  69.556  0.00  0.00     0.089 C 
ATOM      2  H20 non d ame     -13.061  13.699  69.114  0.00  0.00     0.087 H 
ENDROOT
BRANCH   1   3
ATOM      3  N4  non d ame     -11.691  12.464  70.041  0.00  0.00    -0.346 N 
ATOM      4  C10 non d ame     -11.875  11.248  69.167  0.00  0.00     0.241 C 
ATOM      5  O4  non d ame     -12.331  11.358  68.076  0.00  0.00    -0.271 OA
ATOM      6  H19 non d ame     -11.307  12.391  70.973  0.00  0.00     0.163 HD
BRANCH   4   7
ATOM      7  C9  non d ame     -11.476   9.891  69.683  0.00  0.00     0.092 C 
ATOM      8  H11 non d ame     -12.090   9.129  69.203  0.00  0.00     0.088 H 
BRANCH   7   9
ATOM      9  N3  non d ame     -10.083   9.619  69.315  0.00  0.00    -0.346 N 
ATOM     10  C7  non d ame      -9.778   9.026  68.037  0.00  0.00     0.240 C 
ATOM     11  O3  non d ame     -10.640   8.760  67.291  0.00  0.00    -0.271 OA
ATOM     12  H10 non d ame      -9.327   9.842  69.948  0.00  0.00     0.163 HD
BRANCH  10  13
ATOM     13  C6  non d ame      -8.293   8.735  67.652  0.00  0.00     0.086 C 
ATOM     14  H6  non d ame      -7.593   8.992  68.447  0.00  0.00     0.086 H 
BRANCH  13  15
ATOM     15  N2  non d ame      -8.140   7.310  67.407  0.00  0.00    -0.343 N 
ATOM     16  C5  non d ame      -8.163   6.377  68.536  0.00  0.00     0.273 C 
ATOM     17  O2  non d ame      -8.301   6.784  69.637  0.00  0.00    -0.266 OA
ATOM     18  H5  non d ame      -8.019   6.972  66.463  0.00  0.00     0.163 HD
BRANCH  16  19
ATOM     19  C4  non d ame      -8.003   4.869  68.291  0.00  0.00     0.154 A 
ATOM     20  C1  non d ame      -7.453   3.900  69.190  0.00  0.00    -0.017 A 
ATOM     21  C2  non d ame      -7.534   2.673  68.496  0.00  0.00     0.077 A 
ATOM     22  H1  non d ame      -7.058   4.063  70.193  0.00  0.00     0.091 H 
ATOM     23  O1  non d ame      -8.070   2.919  67.336  0.00  0.00    -0.218 OA
ATOM     24  N1  non d ame      -8.353   4.193  67.194  0.00  0.00    -0.123 NA
BRANCH  21  25
ATOM     25  C3  non d ame      -7.079   1.314  69.011  0.00  0.00    -0.029 C 
ATOM     26  H2  non d ame      -7.334   0.545  68.282  0.00  0.00     0.036 H 
ATOM     27  H3  non d ame      -6.000   1.326  69.164  0.00  0.00     0.036 H 
ATOM     28  H4  non d ame      -7.577   1.099  69.957  0.00  0.00     0.036 H 
ENDBRANCH  21  25
ENDBRANCH  16  19
ENDBRANCH  13  15
BRANCH  13  29
ATOM     29  C8  non d ame      -7.930   9.514  66.413  0.00  0.00    -0.049 C 
ATOM     30  H7  non d ame      -8.477  10.457  66.404  0.00  0.00     0.030 H 
ATOM     31  H8  non d ame      -6.859   9.714  66.409  0.00  0.00     0.030 H 
ATOM     32  H9  non d ame      -8.195   8.933  65.529  0.00  0.00     0.030 H 
ENDBRANCH  13  29
ENDBRANCH  10  13
ENDBRANCH   7   9
BRANCH   7  33
ATOM     33  C11 non d ame     -11.615   9.865  71.233  0.00  0.00    -0.033 C 
ATOM     34  H12 non d ame     -11.348  10.853  71.604  0.00  0.00     0.042 H 
BRANCH  33  35
ATOM     35  C12 non d ame     -13.087   9.581  71.667  0.00  0.00    -0.071 C 
ATOM     36  H13 non d ame     -13.357   8.562  71.392  0.00  0.00     0.028 H 
ATOM     37  H14 non d ame     -13.178   9.703  72.745  0.00  0.00     0.028 H 
ATOM     38  H15 non d ame     -13.753  10.281  71.164  0.00  0.00     0.028 H 
ENDBRANCH  33  35
BRANCH  33  39
ATOM     39  C13 non d ame     -10.630   8.829  71.865  0.00  0.00    -0.071 C 
ATOM     40  H16 non d ame     -11.181   7.936  72.159  0.00  0.00     0.028 H 
ATOM     41  H17 non d ame      -9.867   8.560  71.134  0.00  0.00     0.028 H 
ATOM     42  H18 non d ame     -10.154   9.268  72.742  0.00  0.00     0.028 H 
ENDBRANCH  33  39
ENDBRANCH   7  33
ENDBRANCH   4   7
ENDBRANCH   1   3
BRANCH   1  43
ATOM     43  C15 non d ame     -11.003  14.251  68.523  0.00  0.00     0.240 C 
ATOM     44  O5  non d ame      -9.847  14.180  68.791  0.00  0.00    -0.271 OA
ATOM     45  N6  non d ame     -11.424  14.782  67.195  0.00  0.00    -0.355 N 
ATOM     46  H46 non d ame     -12.403  14.843  66.955  0.00  0.00     0.162 HD
BRANCH  45  47
ATOM     47  C20 non d ame     -10.400  15.223  66.224  0.00  0.00     0.013 C 
ATOM     48  H30 non d ame      -9.426  14.906  66.596  0.00  0.00     0.072 H 
BRANCH  47  49
ATOM     49  C21 non d ame     -10.442  16.729  66.102  0.00  0.00    -0.038 C 
ATOM     50  H31 non d ame      -9.486  17.015  65.664  0.00  0.00     0.036 H 
ATOM     51  H32 non d ame     -11.371  16.957  65.580  0.00  0.00     0.036 H 
BRANCH  49  52
ATOM     52  C22 non d ame     -10.525  17.438  67.471  0.00  0.00     0.018 C 
ATOM     53  H33 non d ame     -11.532  17.248  67.843  0.00  0.00     0.048 H 
ATOM     54  H34 non d ame      -9.661  17.090  68.037  0.00  0.00     0.048 H 
BRANCH  52  55
ATOM     55  C23 non d ame     -10.386  18.984  67.386  0.00  0.00     0.259 C 
ATOM     56  O7  non d ame     -10.997  19.600  66.574  0.00  0.00    -0.265 OA
BRANCH  55  57
ATOM     57  O8  non d ame      -9.508  19.655  68.281  0.00  0.00    -0.317 OA
BRANCH  57  58
ATOM     58  C29 non d ame      -8.240  19.012  68.444  0.00  0.00     0.052 C 
ATOM     59  H47 non d ame      -7.854  19.361  69.401  0.00  0.00     0.082 H 
ATOM     60  H48 non d ame      -8.426  17.950  68.286  0.00  0.00     0.082 H 
BRANCH  58  61
ATOM     61  C35 non d ame      -7.299  19.518  67.319  0.00  0.00    -0.034 A 
ATOM     62  C30 non d ame      -7.117  18.759  66.167  0.00  0.00    -0.075 A 
ATOM     63  C31 non d ame      -6.271  19.214  65.157  0.00  0.00    -0.082 A 
ATOM     64  H49 non d ame      -7.638  17.808  66.056  0.00  0.00     0.084 H 
ATOM     65  C32 non d ame      -5.602  20.432  65.303  0.00  0.00    -0.083 A 
ATOM     66  H50 non d ame      -6.134  18.618  64.254  0.00  0.00     0.083 H 
ATOM     67  C33 non d ame      -5.783  21.185  66.456  0.00  0.00    -0.082 A 
ATOM     68  H51 non d ame      -4.940  20.796  64.517  0.00  0.00     0.083 H 
ATOM     69  C34 non d ame      -6.630  20.735  67.467  0.00  0.00    -0.075 A 
ATOM     70  H52 non d ame      -5.258  22.134  66.567  0.00  0.00     0.083 H 
ATOM     71  H53 non d ame      -6.768  21.333  68.368  0.00  0.00     0.084 H 
ENDBRANCH  58  61
ENDBRANCH  57  58
ENDBRANCH  55  57
ENDBRANCH  52  55
ENDBRANCH  49  52
ENDBRANCH  47  49
BRANCH  47  72
ATOM     72  C24 non d ame     -10.678  14.593  64.860  0.00  0.00    -0.039 C 
ATOM     73  H35 non d ame     -11.430  15.230  64.394  0.00  0.00     0.036 H 
ATOM     74  H36 non d ame      -9.701  14.473  64.391  0.00  0.00     0.036 H 
BRANCH  72  75
ATOM     75  C25 non d ame     -11.317  13.131  65.000  0.00  0.00    -0.001 C 
ATOM     76  C26 non d ame     -10.130  11.994  64.947  0.00  0.00    -0.035 C 
ATOM     77  C27 non d ame     -10.462  11.060  64.023  0.00  0.00     0.085 C 
ATOM     78  H38 non d ame      -9.213  12.429  64.552  0.00  0.00     0.036 H 
ATOM     79  H39 non d ame     -10.109  11.431  65.880  0.00  0.00     0.036 H 
ATOM     80  N5  non d ame     -11.602  11.629  63.211  0.00  0.00    -0.049 N 
ATOM     81  H40 non d ame      -9.585  10.960  63.382  0.00  0.00     0.075 H 
ATOM     82  H41 non d ame     -10.823  10.204  64.591  0.00  0.00     0.075 H 
ATOM     83  C28 non d ame     -12.156  12.893  64.048  0.00  0.00     0.193 C 
ATOM     84  H42 non d ame     -11.199  11.965  62.349  0.00  0.00     0.280 HD
ATOM     85  H43 non d ame     -12.320  10.919  63.190  0.00  0.00     0.280 HD
ATOM     86  H44 non d ame     -13.084  12.819  64.615  0.00  0.00     0.129 H 
ATOM     87  H37 non d ame     -12.027  13.069  65.826  0.00  0.00     0.046 H 
BRANCH  83  88
ATOM     88  O6  non d ame     -12.325  14.020  63.186  0.00  0.00    -0.369 OA
ATOM     89  H45 non d ame     -12.596  14.781  63.704  0.00  0.00     0.212 HD
ENDBRANCH  83  88
ENDBRANCH  72  75
ENDBRANCH  47  72
ENDBRANCH  45  47
ENDBRANCH   1  43
BRANCH   1  90
ATOM     90  C16 non d ame     -12.104  14.750  70.727  0.00  0.00    -0.035 C 
ATOM     91  H21 non d ame     -11.147  14.626  71.235  0.00  0.00     0.037 H 
ATOM     92  H22 non d ame     -12.371  15.715  70.296  0.00  0.00     0.037 H 
BRANCH  90  93
ATOM     93  C17 non d ame     -13.208  14.417  71.781  0.00  0.00    -0.059 C 
ATOM     94  H23 non d ame     -13.408  13.348  71.723  0.00  0.00     0.038 H 
BRANCH  93  95
ATOM     95  C18 non d ame     -12.748  14.738  73.239  0.00  0.00    -0.073 C 
ATOM     96  H24 non d ame     -12.920  15.794  73.450  0.00  0.00     0.028 H 
ATOM     97  H25 non d ame     -13.317  14.130  73.941  0.00  0.00     0.028 H 
ATOM     98  H26 non d ame     -11.686  14.514  73.342  0.00  0.00     0.028 H 
ENDBRANCH  93  95
BRANCH  93  99
ATOM     99  C19 non d ame     -14.516  15.142  71.451  0.00  0.00    -0.073 C 
ATOM    100  H27 non d ame     -15.282  14.409  71.195  0.00  0.00     0.028 H 
ATOM    101  H28 non d ame     -14.839  15.719  72.318  0.00  0.00     0.028 H 
ATOM    102  H29 non d ame     -14.358  15.813  70.607  0.00  0.00     0.028 H 
ENDBRANCH  93  99
ENDBRANCH  90  93
ENDBRANCH   1  90
TORSDOF 26
ENDMDL
MODEL 12
REMARK VINA RESULT:      -6.0      3.164      6.910
REMARK  26 active torsions:
REMARK  status: ('A' for Active; 'I' for Inactive)
REMARK    1  A    between atoms: C2_2  and  C3_3 
REMARK    2  A    between atoms: C4_6  and  C5_7 
REMARK       I    between atoms: C5_7  and  N2_9 
REMARK    3  A    between atoms: N2_9  and  C6_10 
REMARK    4  A    between atoms: C6_10  and  C7_11 
REMARK    5  A    between atoms: C6_10  and  C8_13 
REMARK       I    between atoms: C7_11  and  N3_14 
REMARK    6  A    between atoms: N3_14  and  C9_15 
REMARK    7  A    between atoms: C9_15  and  C10_16 
REMARK    8  A    between atoms: C9_15  and  C11_18 
REMARK       I    between atoms: C10_16  and  N4_21 
REMARK    9  A    between atoms: C11_18  and  C12_19 
REMARK   10  A    between atoms: C11_18  and  C13_20 
REMARK   11  A    between atoms: N4_21  and  C14_22 
REMARK   12  A    between atoms: C14_22  and  C15_23 
REMARK   13  A    between atoms: C14_22  and  C16_25 
REMARK       I    between atoms: C15_23  and  N6_40 
REMARK   14  A    between atoms: C16_25  and  C17_26 
REMARK   15  A    between atoms: C17_26  and  C18_27 
REMARK   16  A    between atoms: C17_26  and  C19_28 
REMARK   17  A    between atoms: C20_29  and  C21_30 
REMARK   18  A    between atoms: C20_29  and  C24_33 
REMARK   19  A    between atoms: C20_29  and  N6_40 
REMARK   20  A    between atoms: C21_30  and  C22_31 
REMARK   21  A    between atoms: C22_31  and  C23_32 
REMARK   22  A    between atoms: C23_32  and  O8_43 
REMARK   23  A    between atoms: C24_33  and  C25_34 
REMARK   24  A    between atoms: C28_38  and  O6_39 
REMARK   25  A    between atoms: C29_42  and  O8_43 
REMARK   26  A    between atoms: C29_42  and  C35_49 
ROOT
ATOM      1  C14 non d ame      -8.802   8.504  68.311  0.00  0.00     0.089 C 
ATOM      2  H20 non d ame      -8.398   9.296  68.942  0.00  0.00     0.087 H 
ENDROOT
BRANCH   1   3
ATOM      3  N4  non d ame      -9.617   7.643  69.155  0.00  0.00    -0.346 N 
ATOM      4  C10 non d ame      -9.179   7.320  70.562  0.00  0.00     0.241 C 
ATOM      5  O4  non d ame      -8.165   7.763  70.991  0.00  0.00    -0.271 OA
ATOM      6  H19 non d ame     -10.475   7.274  68.771  0.00  0.00     0.163 HD
BRANCH   4   7
ATOM      7  C9  non d ame     -10.037   6.432  71.424  0.00  0.00     0.092 C 
ATOM      8  H11 non d ame      -9.714   6.518  72.462  0.00  0.00     0.088 H 
BRANCH   7   9
ATOM      9  N3  non d ame     -11.429   6.890  71.365  0.00  0.00    -0.346 N 
ATOM     10  C7  non d ame     -11.962   7.714  72.421  0.00  0.00     0.240 C 
ATOM     11  O3  non d ame     -11.287   8.018  73.327  0.00  0.00    -0.271 OA
ATOM     12  H10 non d ame     -12.025   6.636  70.590  0.00  0.00     0.163 HD
BRANCH  10  13
ATOM     13  C6  non d ame     -13.445   8.196  72.354  0.00  0.00     0.086 C 
ATOM     14  H6  non d ame     -14.010   7.948  73.252  0.00  0.00     0.086 H 
BRANCH  13  15
ATOM     15  N2  non d ame     -13.465   9.644  72.236  0.00  0.00    -0.343 N 
ATOM     16  C5  non d ame     -12.642  10.297  71.215  0.00  0.00     0.273 C 
ATOM     17  O2  non d ame     -11.966   9.648  70.496  0.00  0.00    -0.266 OA
ATOM     18  H5  non d ame     -14.044  10.192  72.857  0.00  0.00     0.163 HD
BRANCH  16  19
ATOM     19  C4  non d ame     -12.655  11.827  71.078  0.00  0.00     0.154 A 
ATOM     20  C1  non d ame     -13.378  12.762  71.886  0.00  0.00    -0.017 A 
ATOM     21  C2  non d ame     -13.052  14.029  71.356  0.00  0.00     0.077 A 
ATOM     22  H1  non d ame     -14.037  12.552  72.729  0.00  0.00     0.091 H 
ATOM     23  O1  non d ame     -12.235  13.835  70.362  0.00  0.00    -0.218 OA
ATOM     24  N1  non d ame     -11.988  12.558  70.181  0.00  0.00    -0.123 NA
BRANCH  21  25
ATOM     25  C3  non d ame     -13.561  15.374  71.857  0.00  0.00    -0.029 C 
ATOM     26  H2  non d ame     -14.631  15.452  71.666  0.00  0.00     0.036 H 
ATOM     27  H3  non d ame     -13.375  15.457  72.927  0.00  0.00     0.036 H 
ATOM     28  H4  non d ame     -13.040  16.178  71.335  0.00  0.00     0.036 H 
ENDBRANCH  21  25
ENDBRANCH  16  19
ENDBRANCH  13  15
BRANCH  13  29
ATOM     29  C8  non d ame     -14.126   7.571  71.162  0.00  0.00    -0.049 C 
ATOM     30  H7  non d ame     -14.202   6.494  71.312  0.00  0.00     0.030 H 
ATOM     31  H8  non d ame     -15.123   7.994  71.050  0.00  0.00     0.030 H 
ATOM     32  H9  non d ame     -13.542   7.772  70.264  0.00  0.00     0.030 H 
ENDBRANCH  13  29
ENDBRANCH  10  13
ENDBRANCH   7   9
BRANCH   7  33
ATOM     33  C11 non d ame      -9.953   4.967  70.904  0.00  0.00    -0.033 C 
ATOM     34  H12 non d ame     -10.739   4.836  70.161  0.00  0.00     0.042 H 
BRANCH  33  35
ATOM     35  C12 non d ame      -8.588   4.692  70.199  0.00  0.00    -0.071 C 
ATOM     36  H13 non d ame      -7.804   4.598  70.949  0.00  0.00     0.028 H 
ATOM     37  H14 non d ame      -8.656   3.768  69.626  0.00  0.00     0.028 H 
ATOM     38  H15 non d ame      -8.354   5.519  69.530  0.00  0.00     0.028 H 
ENDBRANCH  33  35
BRANCH  33  39
ATOM     39  C13 non d ame     -10.207   3.948  72.061  0.00  0.00    -0.071 C 
ATOM     40  H16 non d ame     -10.588   3.015  71.647  0.00  0.00     0.028 H 
ATOM     41  H17 non d ame      -9.271   3.756  72.588  0.00  0.00     0.028 H 
ATOM     42  H18 non d ame     -10.937   4.362  72.757  0.00  0.00     0.028 H 
ENDBRANCH  33  39
ENDBRANCH   7  33
ENDBRANCH   4   7
ENDBRANCH   1   3
BRANCH   1  43
ATOM     43  C15 non d ame      -9.695   9.062  67.166  0.00  0.00     0.240 C 
ATOM     44  O5  non d ame     -10.863   8.845  67.168  0.00  0.00    -0.271 OA
ATOM     45  N6  non d ame      -9.094   9.877  66.072  0.00  0.00    -0.355 N 
ATOM     46  H46 non d ame      -8.104  10.072  66.062  0.00  0.00     0.162 HD
BRANCH  45  47
ATOM     47  C20 non d ame      -9.956  10.402  64.991  0.00  0.00     0.013 C 
ATOM     48  H30 non d ame     -10.908   9.873  65.034  0.00  0.00     0.072 H 
BRANCH  47  49
ATOM     49  C21 non d ame      -9.290  10.158  63.656  0.00  0.00    -0.038 C 
ATOM     50  H31 non d ame     -10.067   9.751  63.010  0.00  0.00     0.036 H 
ATOM     51  H32 non d ame      -8.800  11.096  63.395  0.00  0.00     0.036 H 
BRANCH  49  52
ATOM     52  C22 non d ame      -8.178   9.089  63.728  0.00  0.00     0.018 C 
ATOM     53  H33 non d ame      -7.274   9.622  64.025  0.00  0.00     0.048 H 
ATOM     54  H34 non d ame      -8.573   8.294  64.360  0.00  0.00     0.048 H 
BRANCH  52  55
ATOM     55  C23 non d ame      -7.854   8.428  62.359  0.00  0.00     0.259 C 
ATOM     56  O7  non d ame      -7.956   9.049  61.351  0.00  0.00    -0.265 OA
BRANCH  55  57
ATOM     57  O8  non d ame      -7.448   7.066  62.322  0.00  0.00    -0.317 OA
BRANCH  57  58
ATOM     58  C29 non d ame      -8.070   6.246  63.316  0.00  0.00     0.052 C 
ATOM     59  H47 non d ame      -8.700   6.917  63.900  0.00  0.00     0.082 H 
ATOM     60  H48 non d ame      -8.516   5.413  62.774  0.00  0.00     0.082 H 
BRANCH  58  61
ATOM     61  C35 non d ame      -6.956   5.688  64.242  0.00  0.00    -0.034 A 
ATOM     62  C30 non d ame      -7.291   5.062  65.438  0.00  0.00    -0.075 A 
ATOM     63  C31 non d ame      -6.290   4.561  66.269  0.00  0.00    -0.082 A 
ATOM     64  H49 non d ame      -8.339   4.963  65.724  0.00  0.00     0.084 H 
ATOM     65  C32 non d ame      -4.948   4.691  65.901  0.00  0.00    -0.083 A 
ATOM     66  H50 non d ame      -6.557   4.068  67.204  0.00  0.00     0.083 H 
ATOM     67  C33 non d ame      -4.618   5.320  64.708  0.00  0.00    -0.082 A 
ATOM     68  H51 non d ame      -4.160   4.302  66.545  0.00  0.00     0.083 H 
ATOM     69  C34 non d ame      -5.616   5.820  63.874  0.00  0.00    -0.075 A 
ATOM     70  H52 non d ame      -3.569   5.421  64.425  0.00  0.00     0.083 H 
ATOM     71  H53 non d ame      -5.348   6.311  62.938  0.00  0.00     0.084 H 
ENDBRANCH  58  61
ENDBRANCH  57  58
ENDBRANCH  55  57
ENDBRANCH  52  55
ENDBRANCH  49  52
ENDBRANCH  47  49
BRANCH  47  72
ATOM     72  C24 non d ame     -10.173  11.901  65.187  0.00  0.00    -0.039 C 
ATOM     73  H35 non d ame      -9.460  12.199  65.955  0.00  0.00     0.036 H 
ATOM     74  H36 non d ame     -10.111  12.336  64.189  0.00  0.00     0.036 H 
BRANCH  72  75
ATOM     75  C25 non d ame     -11.638  12.221  65.751  0.00  0.00    -0.001 C 
ATOM     76  C26 non d ame     -12.287  13.492  64.935  0.00  0.00    -0.035 C 
ATOM     77  C27 non d ame     -12.730  14.406  65.832  0.00  0.00     0.085 C 
ATOM     78  H38 non d ame     -11.507  14.025  64.392  0.00  0.00     0.036 H 
ATOM     79  H39 non d ame     -13.195  13.181  64.419  0.00  0.00     0.036 H 
ATOM     80  N5  non d ame     -12.148  14.025  67.173  0.00  0.00    -0.049 N 
ATOM     81  H40 non d ame     -12.300  15.357  65.516  0.00  0.00     0.075 H 
ATOM     82  H41 non d ame     -13.811  14.280  65.866  0.00  0.00     0.075 H 
ATOM     83  C28 non d ame     -11.602  12.515  67.008  0.00  0.00     0.193 C 
ATOM     84  H42 non d ame     -11.361  14.637  67.328  0.00  0.00     0.280 HD
ATOM     85  H43 non d ame     -12.918  14.018  67.827  0.00  0.00     0.280 HD
ATOM     86  H44 non d ame     -12.157  11.675  67.425  0.00  0.00     0.129 H 
ATOM     87  H37 non d ame     -12.250  11.323  65.839  0.00  0.00     0.046 H 
BRANCH  83  88
ATOM     88  O6  non d ame     -10.283  12.406  67.549  0.00  0.00    -0.369 OA
ATOM     89  H45 non d ame     -10.204  12.979  68.314  0.00  0.00     0.212 HD
ENDBRANCH  83  88
ENDBRANCH  72  75
ENDBRANCH  47  72
ENDBRANCH  45  47
ENDBRANCH   1  43
BRANCH   1  90
ATOM     90  C16 non d ame      -7.665   7.686  67.720  0.00  0.00    -0.035 C 
ATOM     91  H21 non d ame      -7.598   6.793  68.343  0.00  0.00     0.037 H 
ATOM     92  H22 non d ame      -7.897   7.594  66.659  0.00  0.00     0.037 H 
BRANCH  90  93
ATOM     93  C17 non d ame      -6.274   8.390  67.808  0.00  0.00    -0.059 C 
ATOM     94  H23 non d ame      -5.621   7.756  68.407  0.00  0.00     0.038 H 
BRANCH  93  95
ATOM     95  C18 non d ame      -5.612   8.566  66.404  0.00  0.00    -0.073 C 
ATOM     96  H24 non d ame      -6.268   8.152  65.639  0.00  0.00     0.028 H 
ATOM     97  H25 non d ame      -5.451   9.626  66.210  0.00  0.00     0.028 H 
ATOM     98  H26 non d ame      -4.655   8.043  66.386  0.00  0.00     0.028 H 
ENDBRANCH  93  95
BRANCH  93  99
ATOM     99  C19 non d ame      -6.387   9.736  68.530  0.00  0.00    -0.073 C 
ATOM    100  H27 non d ame      -5.721   9.741  69.394  0.00  0.00     0.028 H 
ATOM    101  H28 non d ame      -6.104  10.538  67.847  0.00  0.00     0.028 H 
ATOM    102  H29 non d ame      -7.414   9.886  68.861  0.00  0.00     0.028 H 
ENDBRANCH  93  99
ENDBRANCH  90  93
ENDBRANCH   1  90
TORSDOF 26
ENDMDL
MODEL 13
REMARK VINA RESULT:      -5.9      2.519     10.109
REMARK  26 active torsions:
REMARK  status: ('A' for Active; 'I' for Inactive)
REMARK    1  A    between atoms: C2_2  and  C3_3 
REMARK    2  A    between atoms: C4_6  and  C5_7 
REMARK       I    between atoms: C5_7  and  N2_9 
REMARK    3  A    between atoms: N2_9  and  C6_10 
REMARK    4  A    between atoms: C6_10  and  C7_11 
REMARK    5  A    between atoms: C6_10  and  C8_13 
REMARK       I    between atoms: C7_11  and  N3_14 
REMARK    6  A    between atoms: N3_14  and  C9_15 
REMARK    7  A    between atoms: C9_15  and  C10_16 
REMARK    8  A    between atoms: C9_15  and  C11_18 
REMARK       I    between atoms: C10_16  and  N4_21 
REMARK    9  A    between atoms: C11_18  and  C12_19 
REMARK   10  A    between atoms: C11_18  and  C13_20 
REMARK   11  A    between atoms: N4_21  and  C14_22 
REMARK   12  A    between atoms: C14_22  and  C15_23 
REMARK   13  A    between atoms: C14_22  and  C16_25 
REMARK       I    between atoms: C15_23  and  N6_40 
REMARK   14  A    between atoms: C16_25  and  C17_26 
REMARK   15  A    between atoms: C17_26  and  C18_27 
REMARK   16  A    between atoms: C17_26  and  C19_28 
REMARK   17  A    between atoms: C20_29  and  C21_30 
REMARK   18  A    between atoms: C20_29  and  C24_33 
REMARK   19  A    between atoms: C20_29  and  N6_40 
REMARK   20  A    between atoms: C21_30  and  C22_31 
REMARK   21  A    between atoms: C22_31  and  C23_32 
REMARK   22  A    between atoms: C23_32  and  O8_43 
REMARK   23  A    between atoms: C24_33  and  C25_34 
REMARK   24  A    between atoms: C28_38  and  O6_39 
REMARK   25  A    between atoms: C29_42  and  O8_43 
REMARK   26  A    between atoms: C29_42  and  C35_49 
ROOT
ATOM      1  C14 non d ame     -10.398  12.773  66.421  0.00  0.00     0.089 C 
ATOM      2  H20 non d ame      -9.314  12.736  66.532  0.00  0.00     0.087 H 
ENDROOT
BRANCH   1   3
ATOM      3  N4  non d ame     -10.929  11.496  66.874  0.00  0.00    -0.346 N 
ATOM      4  C10 non d ame     -10.034  10.504  67.575  0.00  0.00     0.241 C 
ATOM      5  O4  non d ame      -8.888  10.756  67.760  0.00  0.00    -0.271 OA
ATOM      6  H19 non d ame     -11.906  11.300  66.705  0.00  0.00     0.163 HD
BRANCH   4   7
ATOM      7  C9  non d ame     -10.601   9.190  68.043  0.00  0.00     0.092 C 
ATOM      8  H11 non d ame     -11.505   8.967  67.477  0.00  0.00     0.088 H 
BRANCH   7   9
ATOM      9  N3  non d ame      -9.641   8.117  67.764  0.00  0.00    -0.346 N 
ATOM     10  C7  non d ame     -10.097   6.873  67.196  0.00  0.00     0.240 C 
ATOM     11  O3  non d ame     -11.232   6.716  66.957  0.00  0.00    -0.271 OA
ATOM     12  H10 non d ame      -8.659   8.236  67.965  0.00  0.00     0.163 HD
BRANCH  10  13
ATOM     13  C6  non d ame      -9.071   5.733  66.904  0.00  0.00     0.086 C 
ATOM     14  H6  non d ame      -9.488   4.937  66.287  0.00  0.00     0.086 H 
BRANCH  13  15
ATOM     15  N2  non d ame      -7.949   6.287  66.165  0.00  0.00    -0.343 N 
ATOM     16  C5  non d ame      -7.700   5.845  64.791  0.00  0.00     0.273 C 
ATOM     17  O2  non d ame      -8.407   5.041  64.291  0.00  0.00    -0.266 OA
ATOM     18  H5  non d ame      -7.348   6.972  66.601  0.00  0.00     0.163 HD
BRANCH  16  19
ATOM     19  C4  non d ame      -6.518   6.423  63.998  0.00  0.00     0.154 A 
ATOM     20  C1  non d ame      -6.010   7.760  64.055  0.00  0.00    -0.017 A 
ATOM     21  C2  non d ame      -4.930   7.777  63.145  0.00  0.00     0.077 A 
ATOM     22  H1  non d ame      -6.369   8.590  64.664  0.00  0.00     0.091 H 
ATOM     23  O1  non d ame      -4.836   6.585  62.632  0.00  0.00    -0.218 OA
ATOM     24  N1  non d ame      -5.752   5.777  63.115  0.00  0.00    -0.123 NA
BRANCH  21  25
ATOM     25  C3  non d ame      -4.040   8.971  62.825  0.00  0.00    -0.029 C 
ATOM     26  H2  non d ame      -3.678   9.414  63.753  0.00  0.00     0.036 H 
ATOM     27  H3  non d ame      -3.192   8.642  62.225  0.00  0.00     0.036 H 
ATOM     28  H4  non d ame      -4.613   9.713  62.268  0.00  0.00     0.036 H 
ENDBRANCH  21  25
ENDBRANCH  16  19
ENDBRANCH  13  15
BRANCH  13  29
ATOM     29  C8  non d ame      -8.591   5.140  68.204  0.00  0.00    -0.049 C 
ATOM     30  H7  non d ame      -7.985   4.257  67.999  0.00  0.00     0.030 H 
ATOM     31  H8  non d ame      -7.992   5.876  68.741  0.00  0.00     0.030 H 
ATOM     32  H9  non d ame      -9.449   4.856  68.813  0.00  0.00     0.030 H 
ENDBRANCH  13  29
ENDBRANCH  10  13
ENDBRANCH   7   9
BRANCH   7  33
ATOM     33  C11 non d ame     -10.870   9.257  69.575  0.00  0.00    -0.033 C 
ATOM     34  H12 non d ame     -11.559   8.451  69.823  0.00  0.00     0.042 H 
BRANCH  33  35
ATOM     35  C12 non d ame      -9.561   9.024  70.392  0.00  0.00    -0.071 C 
ATOM     36  H13 non d ame      -9.067   8.120  70.038  0.00  0.00     0.028 H 
ATOM     37  H14 non d ame      -8.895   9.877  70.262  0.00  0.00     0.028 H 
ATOM     38  H15 non d ame      -9.809   8.913  71.447  0.00  0.00     0.028 H 
ENDBRANCH  33  35
BRANCH  33  39
ATOM     39  C13 non d ame     -11.547  10.610  69.965  0.00  0.00    -0.071 C 
ATOM     40  H16 non d ame     -12.621  10.461  70.075  0.00  0.00     0.028 H 
ATOM     41  H17 non d ame     -11.131  10.966  70.908  0.00  0.00     0.028 H 
ATOM     42  H18 non d ame     -11.361  11.348  69.185  0.00  0.00     0.028 H 
ENDBRANCH  33  39
ENDBRANCH   7  33
ENDBRANCH   4   7
ENDBRANCH   1   3
BRANCH   1  43
ATOM     43  C15 non d ame     -11.038  13.905  67.273  0.00  0.00     0.240 C 
ATOM     44  O5  non d ame     -12.218  14.042  67.284  0.00  0.00    -0.271 OA
ATOM     45  N6  non d ame     -10.179  14.815  68.085  0.00  0.00    -0.355 N 
ATOM     46  H46 non d ame      -9.175  14.705  68.087  0.00  0.00     0.162 HD
BRANCH  45  47
ATOM     47  C20 non d ame     -10.802  15.886  68.891  0.00  0.00     0.013 C 
ATOM     48  H30 non d ame     -11.806  16.058  68.502  0.00  0.00     0.072 H 
BRANCH  47  49
ATOM     49  C21 non d ame      -9.979  17.148  68.768  0.00  0.00    -0.038 C 
ATOM     50  H31 non d ame     -10.641  17.890  68.323  0.00  0.00     0.036 H 
ATOM     51  H32 non d ame      -9.554  17.320  69.758  0.00  0.00     0.036 H 
BRANCH  49  52
ATOM     52  C22 non d ame      -8.785  16.993  67.802  0.00  0.00     0.018 C 
ATOM     53  H33 non d ame      -7.913  16.821  68.434  0.00  0.00     0.048 H 
ATOM     54  H34 non d ame      -9.088  16.238  67.076  0.00  0.00     0.048 H 
BRANCH  52  55
ATOM     55  C23 non d ame      -8.472  18.275  66.981  0.00  0.00     0.259 C 
ATOM     56  O7  non d ame      -8.187  18.199  65.830  0.00  0.00    -0.265 OA
BRANCH  55  57
ATOM     57  O8  non d ame      -8.515  19.542  67.626  0.00  0.00    -0.317 OA
BRANCH  57  58
ATOM     58  C29 non d ame      -7.455  20.425  67.245  0.00  0.00     0.052 C 
ATOM     59  H47 non d ame      -7.018  19.991  66.346  0.00  0.00     0.082 H 
ATOM     60  H48 non d ame      -7.899  21.419  67.209  0.00  0.00     0.082 H 
BRANCH  58  61
ATOM     61  C35 non d ame      -6.387  20.404  68.370  0.00  0.00    -0.034 A 
ATOM     62  C30 non d ame      -6.739  20.017  69.659  0.00  0.00    -0.075 A 
ATOM     63  C31 non d ame      -5.779  19.998  70.670  0.00  0.00    -0.082 A 
ATOM     64  H49 non d ame      -7.767  19.726  69.877  0.00  0.00     0.084 H 
ATOM     65  C32 non d ame      -4.463  20.373  70.389  0.00  0.00    -0.083 A 
ATOM     66  H50 non d ame      -6.058  19.691  71.678  0.00  0.00     0.083 H 
ATOM     67  C33 non d ame      -4.116  20.763  69.102  0.00  0.00    -0.082 A 
ATOM     68  H51 non d ame      -3.706  20.361  71.173  0.00  0.00     0.083 H 
ATOM     69  C34 non d ame      -5.072  20.781  68.088  0.00  0.00    -0.075 A 
ATOM     70  H52 non d ame      -3.088  21.057  68.887  0.00  0.00     0.083 H 
ATOM     71  H53 non d ame      -4.792  21.087  67.080  0.00  0.00     0.084 H 
ENDBRANCH  58  61
ENDBRANCH  57  58
ENDBRANCH  55  57
ENDBRANCH  52  55
ENDBRANCH  49  52
ENDBRANCH  47  49
BRANCH  47  72
ATOM     72  C24 non d ame     -10.866  15.458  70.356  0.00  0.00    -0.039 C 
ATOM     73  H35 non d ame     -10.852  14.368  70.340  0.00  0.00     0.036 H 
ATOM     74  H36 non d ame     -10.066  16.006  70.853  0.00  0.00     0.036 H 
BRANCH  72  75
ATOM     75  C25 non d ame     -12.242  15.903  71.044  0.00  0.00    -0.001 C 
ATOM     76  C26 non d ame     -11.982  16.277  72.624  0.00  0.00    -0.035 C 
ATOM     77  C27 non d ame     -12.873  15.596  73.386  0.00  0.00     0.085 C 
ATOM     78  H38 non d ame     -11.019  15.885  72.948  0.00  0.00     0.036 H 
ATOM     79  H39 non d ame     -12.235  17.321  72.809  0.00  0.00     0.036 H 
ATOM     80  N5  non d ame     -13.499  14.546  72.500  0.00  0.00    -0.049 N 
ATOM     81  H40 non d ame     -12.280  15.103  74.157  0.00  0.00     0.075 H 
ATOM     82  H41 non d ame     -13.633  16.324  73.665  0.00  0.00     0.075 H 
ATOM     83  C28 non d ame     -13.122  14.960  70.985  0.00  0.00     0.193 C 
ATOM     84  H42 non d ame     -13.038  13.675  72.719  0.00  0.00     0.280 HD
ATOM     85  H43 non d ame     -14.498  14.632  72.617  0.00  0.00     0.280 HD
ATOM     86  H44 non d ame     -13.865  15.422  70.336  0.00  0.00     0.129 H 
ATOM     87  H37 non d ame     -12.786  16.634  70.445  0.00  0.00     0.046 H 
BRANCH  83  88
ATOM     88  O6  non d ame     -12.643  13.821  70.267  0.00  0.00    -0.369 OA
ATOM     89  H45 non d ame     -11.928  14.089  69.685  0.00  0.00     0.212 HD
ENDBRANCH  83  88
ENDBRANCH  72  75
ENDBRANCH  47  72
ENDBRANCH  45  47
ENDBRANCH   1  43
BRANCH   1  90
ATOM     90  C16 non d ame     -10.759  12.968  64.957  0.00  0.00    -0.035 C 
ATOM     91  H21 non d ame     -11.669  13.570  64.962  0.00  0.00     0.037 H 
ATOM     92  H22 non d ame      -9.855  13.352  64.486  0.00  0.00     0.037 H 
BRANCH  90  93
ATOM     93  C17 non d ame     -11.114  11.640  64.216  0.00  0.00    -0.059 C 
ATOM     94  H23 non d ame     -11.358  10.895  64.973  0.00  0.00     0.038 H 
BRANCH  93  95
ATOM     95  C18 non d ame     -12.357  11.799  63.284  0.00  0.00    -0.073 C 
ATOM     96  H24 non d ame     -12.080  12.379  62.404  0.00  0.00     0.028 H 
ATOM     97  H25 non d ame     -12.707  10.814  62.975  0.00  0.00     0.028 H 
ATOM     98  H26 non d ame     -13.152  12.313  63.824  0.00  0.00     0.028 H 
ENDBRANCH  93  95
BRANCH  93  99
ATOM     99  C19 non d ame      -9.909  11.112  63.432  0.00  0.00    -0.073 C 
ATOM    100  H27 non d ame     -10.042  10.047  63.237  0.00  0.00     0.028 H 
ATOM    101  H28 non d ame      -9.829  11.649  62.486  0.00  0.00     0.028 H 
ATOM    102  H29 non d ame      -9.001  11.266  64.014  0.00  0.00     0.028 H 
ENDBRANCH  93  99
ENDBRANCH  90  93
ENDBRANCH   1  90
TORSDOF 26
ENDMDL
MODEL 14
REMARK VINA RESULT:      -5.9      2.367     10.200
REMARK  26 active torsions:
REMARK  status: ('A' for Active; 'I' for Inactive)
REMARK    1  A    between atoms: C2_2  and  C3_3 
REMARK    2  A    between atoms: C4_6  and  C5_7 
REMARK       I    between atoms: C5_7  and  N2_9 
REMARK    3  A    between atoms: N2_9  and  C6_10 
REMARK    4  A    between atoms: C6_10  and  C7_11 
REMARK    5  A    between atoms: C6_10  and  C8_13 
REMARK       I    between atoms: C7_11  and  N3_14 
REMARK    6  A    between atoms: N3_14  and  C9_15 
REMARK    7  A    between atoms: C9_15  and  C10_16 
REMARK    8  A    between atoms: C9_15  and  C11_18 
REMARK       I    between atoms: C10_16  and  N4_21 
REMARK    9  A    between atoms: C11_18  and  C12_19 
REMARK   10  A    between atoms: C11_18  and  C13_20 
REMARK   11  A    between atoms: N4_21  and  C14_22 
REMARK   12  A    between atoms: C14_22  and  C15_23 
REMARK   13  A    between atoms: C14_22  and  C16_25 
REMARK       I    between atoms: C15_23  and  N6_40 
REMARK   14  A    between atoms: C16_25  and  C17_26 
REMARK   15  A    between atoms: C17_26  and  C18_27 
REMARK   16  A    between atoms: C17_26  and  C19_28 
REMARK   17  A    between atoms: C20_29  and  C21_30 
REMARK   18  A    between atoms: C20_29  and  C24_33 
REMARK   19  A    between atoms: C20_29  and  N6_40 
REMARK   20  A    between atoms: C21_30  and  C22_31 
REMARK   21  A    between atoms: C22_31  and  C23_32 
REMARK   22  A    between atoms: C23_32  and  O8_43 
REMARK   23  A    between atoms: C24_33  and  C25_34 
REMARK   24  A    between atoms: C28_38  and  O6_39 
REMARK   25  A    between atoms: C29_42  and  O8_43 
REMARK   26  A    between atoms: C29_42  and  C35_49 
ROOT
ATOM      1  C14 non d ame      -9.917  11.972  65.506  0.00  0.00     0.089 C 
ATOM      2  H20 non d ame      -9.809  12.434  64.524  0.00  0.00     0.087 H 
ENDROOT
BRANCH   1   3
ATOM      3  N4  non d ame      -9.133  10.746  65.503  0.00  0.00    -0.346 N 
ATOM      4  C10 non d ame      -9.080   9.879  64.270  0.00  0.00     0.241 C 
ATOM      5  O4  non d ame      -9.681  10.187  63.293  0.00  0.00    -0.271 OA
ATOM      6  H19 non d ame      -8.631  10.499  66.344  0.00  0.00     0.163 HD
BRANCH   4   7
ATOM      7  C9  non d ame      -8.260   8.616  64.281  0.00  0.00     0.092 C 
ATOM      8  H11 non d ame      -7.302   8.815  64.763  0.00  0.00     0.088 H 
BRANCH   7   9
ATOM      9  N3  non d ame      -8.943   7.596  65.083  0.00  0.00    -0.346 N 
ATOM     10  C7  non d ame      -8.417   7.220  66.371  0.00  0.00     0.240 C 
ATOM     11  O3  non d ame      -7.444   7.726  66.780  0.00  0.00    -0.271 OA
ATOM     12  H10 non d ame      -9.784   7.149  64.743  0.00  0.00     0.163 HD
BRANCH  10  13
ATOM     13  C6  non d ame      -9.148   6.131  67.218  0.00  0.00     0.086 C 
ATOM     14  H6  non d ame      -8.488   5.638  67.931  0.00  0.00     0.086 H 
BRANCH  13  15
ATOM     15  N2  non d ame     -10.200   6.765  67.994  0.00  0.00    -0.343 N 
ATOM     16  C5  non d ame     -10.022   6.950  69.436  0.00  0.00     0.273 C 
ATOM     17  O2  non d ame      -9.030   6.582  69.962  0.00  0.00    -0.266 OA
ATOM     18  H5  non d ame     -11.046   7.074  67.537  0.00  0.00     0.163 HD
BRANCH  16  19
ATOM     19  C4  non d ame     -11.126   7.621  70.269  0.00  0.00     0.154 A 
ATOM     20  C1  non d ame     -11.323   9.023  70.474  0.00  0.00    -0.017 A 
ATOM     21  C2  non d ame     -12.461   9.112  71.305  0.00  0.00     0.077 A 
ATOM     22  H1  non d ame     -10.731   9.850  70.080  0.00  0.00     0.091 H 
ATOM     23  O1  non d ame     -12.865   7.898  71.541  0.00  0.00    -0.218 OA
ATOM     24  N1  non d ame     -12.101   7.010  70.947  0.00  0.00    -0.123 NA
BRANCH  21  25
ATOM     25  C3  non d ame     -13.100  10.393  71.826  0.00  0.00    -0.029 C 
ATOM     26  H2  non d ame     -13.041  10.413  72.914  0.00  0.00     0.036 H 
ATOM     27  H3  non d ame     -12.572  11.254  71.418  0.00  0.00     0.036 H 
ATOM     28  H4  non d ame     -14.146  10.429  71.518  0.00  0.00     0.036 H 
ENDBRANCH  21  25
ENDBRANCH  16  19
ENDBRANCH  13  15
BRANCH  13  29
ATOM     29  C8  non d ame      -9.739   5.090  66.301  0.00  0.00    -0.049 C 
ATOM     30  H7  non d ame      -9.756   4.126  66.810  0.00  0.00     0.030 H 
ATOM     31  H8  non d ame     -10.754   5.377  66.031  0.00  0.00     0.030 H 
ATOM     32  H9  non d ame      -9.130   5.013  65.400  0.00  0.00     0.030 H 
ENDBRANCH  13  29
ENDBRANCH  10  13
ENDBRANCH   7   9
BRANCH   7  33
ATOM     33  C11 non d ame      -8.086   8.097  62.824  0.00  0.00    -0.033 C 
ATOM     34  H12 non d ame      -8.981   8.372  62.268  0.00  0.00     0.042 H 
BRANCH  33  35
ATOM     35  C12 non d ame      -6.869   8.776  62.121  0.00  0.00    -0.071 C 
ATOM     36  H13 non d ame      -6.333   8.035  61.526  0.00  0.00     0.028 H 
ATOM     37  H14 non d ame      -7.224   9.575  61.471  0.00  0.00     0.028 H 
ATOM     38  H15 non d ame      -6.199   9.189  62.874  0.00  0.00     0.028 H 
ENDBRANCH  33  35
BRANCH  33  39
ATOM     39  C13 non d ame      -7.959   6.540  62.797  0.00  0.00    -0.071 C 
ATOM     40  H16 non d ame      -8.653   6.106  63.515  0.00  0.00     0.028 H 
ATOM     41  H17 non d ame      -8.194   6.174  61.796  0.00  0.00     0.028 H 
ATOM     42  H18 non d ame      -6.940   6.254  63.057  0.00  0.00     0.028 H 
ENDBRANCH  33  39
ENDBRANCH   7  33
ENDBRANCH   4   7
ENDBRANCH   1   3
BRANCH   1  43
ATOM     43  C15 non d ame      -9.395  12.889  66.648  0.00  0.00     0.240 C 
ATOM     44  O5  non d ame      -9.355  12.482  67.763  0.00  0.00    -0.271 OA
ATOM     45  N6  non d ame      -8.935  14.276  66.349  0.00  0.00    -0.355 N 
ATOM     46  H46 non d ame      -8.961  14.632  65.405  0.00  0.00     0.162 HD
BRANCH  45  47
ATOM     47  C20 non d ame      -8.441  15.136  67.446  0.00  0.00     0.013 C 
ATOM     48  H30 non d ame      -8.979  14.865  68.354  0.00  0.00     0.072 H 
BRANCH  47  49
ATOM     49  C21 non d ame      -8.704  16.585  67.103  0.00  0.00    -0.038 C 
ATOM     50  H31 non d ame      -8.747  17.110  68.057  0.00  0.00     0.036 H 
ATOM     51  H32 non d ame      -7.949  16.856  66.365  0.00  0.00     0.036 H 
BRANCH  49  52
ATOM     52  C22 non d ame     -10.075  16.800  66.424  0.00  0.00     0.018 C 
ATOM     53  H33 non d ame      -9.959  16.436  65.403  0.00  0.00     0.048 H 
ATOM     54  H34 non d ame     -10.808  16.341  67.087  0.00  0.00     0.048 H 
BRANCH  52  55
ATOM     55  C23 non d ame     -10.485  18.294  66.301  0.00  0.00     0.259 C 
ATOM     56  O7  non d ame     -10.756  18.760  65.242  0.00  0.00    -0.265 OA
BRANCH  55  57
ATOM     57  O8  non d ame     -10.520  19.106  67.469  0.00  0.00    -0.317 OA
BRANCH  57  58
ATOM     58  C29 non d ame      -9.806  20.340  67.341  0.00  0.00     0.052 C 
ATOM     59  H47 non d ame      -9.934  20.648  66.304  0.00  0.00     0.082 H 
ATOM     60  H48 non d ame     -10.171  20.975  68.147  0.00  0.00     0.082 H 
BRANCH  58  61
ATOM     61  C35 non d ame      -8.301  20.050  67.587  0.00  0.00    -0.034 A 
ATOM     62  C30 non d ame      -7.378  20.240  66.563  0.00  0.00    -0.075 A 
ATOM     63  C31 non d ame      -6.027  19.979  66.785  0.00  0.00    -0.082 A 
ATOM     64  H49 non d ame      -7.714  20.594  65.588  0.00  0.00     0.084 H 
ATOM     65  C32 non d ame      -5.600  19.523  68.034  0.00  0.00    -0.083 A 
ATOM     66  H50 non d ame      -5.306  20.133  65.982  0.00  0.00     0.083 H 
ATOM     67  C33 non d ame      -6.525  19.331  69.052  0.00  0.00    -0.082 A 
ATOM     68  H51 non d ame      -4.545  19.318  68.216  0.00  0.00     0.083 H 
ATOM     69  C34 non d ame      -7.876  19.592  68.835  0.00  0.00    -0.075 A 
ATOM     70  H52 non d ame      -6.188  18.973  70.025  0.00  0.00     0.083 H 
ATOM     71  H53 non d ame      -8.597  19.440  69.640  0.00  0.00     0.084 H 
ENDBRANCH  58  61
ENDBRANCH  57  58
ENDBRANCH  55  57
ENDBRANCH  52  55
ENDBRANCH  49  52
ENDBRANCH  47  49
BRANCH  47  72
ATOM     72  C24 non d ame      -6.940  14.921  67.633  0.00  0.00    -0.039 C 
ATOM     73  H35 non d ame      -6.807  13.840  67.687  0.00  0.00     0.036 H 
ATOM     74  H36 non d ame      -6.463  15.489  66.833  0.00  0.00     0.036 H 
BRANCH  72  75
ATOM     75  C25 non d ame      -6.422  15.531  69.020  0.00  0.00    -0.001 C 
ATOM     76  C26 non d ame      -4.852  15.999  68.874  0.00  0.00    -0.035 C 
ATOM     77  C27 non d ame      -4.139  15.456  69.889  0.00  0.00     0.085 C 
ATOM     78  H38 non d ame      -4.410  15.552  67.984  0.00  0.00     0.036 H 
ATOM     79  H39 non d ame      -4.764  17.071  69.046  0.00  0.00     0.036 H 
ATOM     80  N5  non d ame      -5.010  14.398  70.524  0.00  0.00    -0.049 N 
ATOM     81  H40 non d ame      -3.281  14.974  69.417  0.00  0.00     0.075 H 
ATOM     82  H41 non d ame      -3.985  16.264  70.602  0.00  0.00     0.075 H 
ATOM     83  C28 non d ame      -6.504  14.664  69.974  0.00  0.00     0.193 C 
ATOM     84  H42 non d ame      -4.688  13.510  70.167  0.00  0.00     0.280 HD
ATOM     85  H43 non d ame      -4.998  14.577  71.518  0.00  0.00     0.280 HD
ATOM     86  H44 non d ame      -7.253  15.137  70.608  0.00  0.00     0.129 H 
ATOM     87  H37 non d ame      -7.119  16.258  69.437  0.00  0.00     0.046 H 
BRANCH  83  88
ATOM     88  O6  non d ame      -7.094  13.438  69.536  0.00  0.00    -0.369 OA
ATOM     89  H45 non d ame      -6.863  13.282  68.618  0.00  0.00     0.212 HD
ENDBRANCH  83  88
ENDBRANCH  72  75
ENDBRANCH  47  72
ENDBRANCH  45  47
ENDBRANCH   1  43
BRANCH   1  90
ATOM     90  C16 non d ame     -11.376  11.626  65.755  0.00  0.00    -0.035 C 
ATOM     91  H21 non d ame     -11.517  10.636  65.318  0.00  0.00     0.037 H 
ATOM     92  H22 non d ame     -11.531  11.777  66.823  0.00  0.00     0.037 H 
BRANCH  90  93
ATOM     93  C17 non d ame     -12.379  12.575  65.025  0.00  0.00    -0.059 C 
ATOM     94  H23 non d ame     -13.337  12.059  64.962  0.00  0.00     0.038 H 
BRANCH  93  95
ATOM     95  C18 non d ame     -12.607  13.908  65.808  0.00  0.00    -0.073 C 
ATOM     96  H24 non d ame     -13.585  13.884  66.288  0.00  0.00     0.028 H 
ATOM     97  H25 non d ame     -11.833  14.019  66.568  0.00  0.00     0.028 H 
ATOM     98  H26 non d ame     -12.561  14.748  65.116  0.00  0.00     0.028 H 
ENDBRANCH  93  95
BRANCH  93  99
ATOM     99  C19 non d ame     -11.921  12.858  63.591  0.00  0.00    -0.073 C 
ATOM    100  H27 non d ame     -11.512  13.868  63.533  0.00  0.00     0.028 H 
ATOM    101  H28 non d ame     -11.153  12.137  63.308  0.00  0.00     0.028 H 
ATOM    102  H29 non d ame     -12.770  12.769  62.914  0.00  0.00     0.028 H 
ENDBRANCH  93  99
ENDBRANCH  90  93
ENDBRANCH   1  90
TORSDOF 26
ENDMDL
MODEL 15
REMARK VINA RESULT:      -5.8      2.578      7.975
REMARK  26 active torsions:
REMARK  status: ('A' for Active; 'I' for Inactive)
REMARK    1  A    between atoms: C2_2  and  C3_3 
REMARK    2  A    between atoms: C4_6  and  C5_7 
REMARK       I    between atoms: C5_7  and  N2_9 
REMARK    3  A    between atoms: N2_9  and  C6_10 
REMARK    4  A    between atoms: C6_10  and  C7_11 
REMARK    5  A    between atoms: C6_10  and  C8_13 
REMARK       I    between atoms: C7_11  and  N3_14 
REMARK    6  A    between atoms: N3_14  and  C9_15 
REMARK    7  A    between atoms: C9_15  and  C10_16 
REMARK    8  A    between atoms: C9_15  and  C11_18 
REMARK       I    between atoms: C10_16  and  N4_21 
REMARK    9  A    between atoms: C11_18  and  C12_19 
REMARK   10  A    between atoms: C11_18  and  C13_20 
REMARK   11  A    between atoms: N4_21  and  C14_22 
REMARK   12  A    between atoms: C14_22  and  C15_23 
REMARK   13  A    between atoms: C14_22  and  C16_25 
REMARK       I    between atoms: C15_23  and  N6_40 
REMARK   14  A    between atoms: C16_25  and  C17_26 
REMARK   15  A    between atoms: C17_26  and  C18_27 
REMARK   16  A    between atoms: C17_26  and  C19_28 
REMARK   17  A    between atoms: C20_29  and  C21_30 
REMARK   18  A    between atoms: C20_29  and  C24_33 
REMARK   19  A    between atoms: C20_29  and  N6_40 
REMARK   20  A    between atoms: C21_30  and  C22_31 
REMARK   21  A    between atoms: C22_31  and  C23_32 
REMARK   22  A    between atoms: C23_32  and  O8_43 
REMARK   23  A    between atoms: C24_33  and  C25_34 
REMARK   24  A    between atoms: C28_38  and  O6_39 
REMARK   25  A    between atoms: C29_42  and  O8_43 
REMARK   26  A    between atoms: C29_42  and  C35_49 
ROOT
ATOM      1  C14 non d ame      -6.970  13.431  68.597  0.00  0.00     0.089 C 
ATOM      2  H20 non d ame      -6.836  13.323  69.675  0.00  0.00     0.087 H 
ENDROOT
BRANCH   1   3
ATOM      3  N4  non d ame      -7.240  12.108  68.055  0.00  0.00    -0.346 N 
ATOM      4  C10 non d ame      -6.290  10.966  68.323  0.00  0.00     0.241 C 
ATOM      5  O4  non d ame      -5.314  11.139  68.976  0.00  0.00    -0.271 OA
ATOM      6  H19 non d ame      -8.074  11.982  67.500  0.00  0.00     0.163 HD
BRANCH   4   7
ATOM      7  C9  non d ame      -6.587   9.602  67.758  0.00  0.00     0.092 C 
ATOM      8  H11 non d ame      -6.268   8.841  68.471  0.00  0.00     0.088 H 
BRANCH   7   9
ATOM      9  N3  non d ame      -8.035   9.450  67.583  0.00  0.00    -0.346 N 
ATOM     10  C7  non d ame      -8.820   8.802  68.604  0.00  0.00     0.240 C 
ATOM     11  O3  non d ame      -8.305   8.396  69.573  0.00  0.00    -0.271 OA
ATOM     12  H10 non d ame      -8.494   9.794  66.752  0.00  0.00     0.163 HD
BRANCH  10  13
ATOM     13  C6  non d ame     -10.361   8.641  68.410  0.00  0.00     0.086 C 
ATOM     14  H6  non d ame     -10.799   7.920  69.100  0.00  0.00     0.086 H 
BRANCH  13  15
ATOM     15  N2  non d ame     -11.005   9.916  68.675  0.00  0.00    -0.343 N 
ATOM     16  C5  non d ame     -11.341  10.283  70.053  0.00  0.00     0.273 C 
ATOM     17  O2  non d ame     -11.091   9.543  70.940  0.00  0.00    -0.266 OA
ATOM     18  H5  non d ame     -11.218  10.541  67.910  0.00  0.00     0.163 HD
BRANCH  16  19
ATOM     19  C4  non d ame     -12.022  11.628  70.347  0.00  0.00     0.154 A 
ATOM     20  C1  non d ame     -12.839  11.956  71.476  0.00  0.00    -0.017 A 
ATOM     21  C2  non d ame     -13.213  13.303  71.275  0.00  0.00     0.077 A 
ATOM     22  H1  non d ame     -13.116  11.314  72.313  0.00  0.00     0.091 H 
ATOM     23  O1  non d ame     -12.668  13.694  70.161  0.00  0.00    -0.218 OA
ATOM     24  N1  non d ame     -11.968  12.735  69.601  0.00  0.00    -0.123 NA
BRANCH  21  25
ATOM     25  C3  non d ame     -14.091  14.141  72.195  0.00  0.00    -0.029 C 
ATOM     26  H2  non d ame     -13.957  15.198  71.962  0.00  0.00     0.036 H 
ATOM     27  H3  non d ame     -15.135  13.867  72.051  0.00  0.00     0.036 H 
ATOM     28  H4  non d ame     -13.808  13.959  73.233  0.00  0.00     0.036 H 
ENDBRANCH  21  25
ENDBRANCH  16  19
ENDBRANCH  13  15
BRANCH  13  29
ATOM     29  C8  non d ame     -10.649   8.201  66.997  0.00  0.00    -0.049 C 
ATOM     30  H7  non d ame     -11.727   8.138  66.849  0.00  0.00     0.030 H 
ATOM     31  H8  non d ame     -10.228   8.922  66.298  0.00  0.00     0.030 H 
ATOM     32  H9  non d ame     -10.202   7.222  66.823  0.00  0.00     0.030 H 
ENDBRANCH  13  29
ENDBRANCH  10  13
ENDBRANCH   7   9
BRANCH   7  33
ATOM     33  C11 non d ame      -5.881   9.447  66.380  0.00  0.00    -0.033 C 
ATOM     34  H12 non d ame      -6.507   8.807  65.760  0.00  0.00     0.042 H 
BRANCH  33  35
ATOM     35  C12 non d ame      -5.747  10.821  65.652  0.00  0.00    -0.071 C 
ATOM     36  H13 non d ame      -5.833  10.671  64.575  0.00  0.00     0.028 H 
ATOM     37  H14 non d ame      -6.537  11.489  65.990  0.00  0.00     0.028 H 
ATOM     38  H15 non d ame      -4.776  11.258  65.881  0.00  0.00     0.028 H 
ENDBRANCH  33  35
BRANCH  33  39
ATOM     39  C13 non d ame      -4.489   8.753  66.539  0.00  0.00    -0.071 C 
ATOM     40  H16 non d ame      -3.997   9.130  67.435  0.00  0.00     0.028 H 
ATOM     41  H17 non d ame      -4.629   7.675  66.627  0.00  0.00     0.028 H 
ATOM     42  H18 non d ame      -3.873   8.970  65.667  0.00  0.00     0.028 H 
ENDBRANCH  33  39
ENDBRANCH   7  33
ENDBRANCH   4   7
ENDBRANCH   1   3
BRANCH   1  43
ATOM     43  C15 non d ame      -8.164  14.362  68.244  0.00  0.00     0.240 C 
ATOM     44  O5  non d ame      -8.729  14.953  69.106  0.00  0.00    -0.271 OA
ATOM     45  N6  non d ame      -8.598  14.526  66.826  0.00  0.00    -0.355 N 
ATOM     46  H46 non d ame      -8.122  14.032  66.085  0.00  0.00     0.162 HD
BRANCH  45  47
ATOM     47  C20 non d ame      -9.734  15.416  66.506  0.00  0.00     0.013 C 
ATOM     48  H30 non d ame     -10.275  15.616  67.430  0.00  0.00     0.072 H 
BRANCH  47  49
ATOM     49  C21 non d ame     -10.644  14.728  65.514  0.00  0.00    -0.038 C 
ATOM     50  H31 non d ame     -11.406  15.462  65.255  0.00  0.00     0.036 H 
ATOM     51  H32 non d ame      -9.988  14.327  64.740  0.00  0.00     0.036 H 
BRANCH  49  52
ATOM     52  C22 non d ame     -11.390  13.520  66.122  0.00  0.00     0.018 C 
ATOM     53  H33 non d ame     -11.382  13.681  67.201  0.00  0.00     0.048 H 
ATOM     54  H34 non d ame     -12.337  13.458  65.588  0.00  0.00     0.048 H 
BRANCH  52  55
ATOM     55  C23 non d ame     -10.675  12.160  65.888  0.00  0.00     0.259 C 
ATOM     56  O7  non d ame      -9.873  11.758  66.668  0.00  0.00    -0.265 OA
BRANCH  55  57
ATOM     57  O8  non d ame     -10.980  11.405  64.722  0.00  0.00    -0.317 OA
BRANCH  57  58
ATOM     58  C29 non d ame     -10.289  11.843  63.548  0.00  0.00     0.052 C 
ATOM     59  H47 non d ame     -11.040  11.877  62.760  0.00  0.00     0.082 H 
ATOM     60  H48 non d ame      -9.763  12.752  63.839  0.00  0.00     0.082 H 
BRANCH  58  61
ATOM     61  C35 non d ame      -9.237  10.763  63.181  0.00  0.00    -0.034 A 
ATOM     62  C30 non d ame      -9.127   9.607  63.947  0.00  0.00    -0.075 A 
ATOM     63  C31 non d ame      -8.182   8.637  63.617  0.00  0.00    -0.082 A 
ATOM     64  H49 non d ame      -9.782   9.461  64.807  0.00  0.00     0.084 H 
ATOM     65  C32 non d ame      -7.342   8.828  62.516  0.00  0.00    -0.083 A 
ATOM     66  H50 non d ame      -8.100   7.731  64.218  0.00  0.00     0.083 H 
ATOM     67  C33 non d ame      -7.453   9.985  61.756  0.00  0.00    -0.082 A 
ATOM     68  H51 non d ame      -6.601   8.074  62.251  0.00  0.00     0.083 H 
ATOM     69  C34 non d ame      -8.398  10.955  62.082  0.00  0.00    -0.075 A 
ATOM     70  H52 non d ame      -6.794  10.131  60.899  0.00  0.00     0.083 H 
ATOM     71  H53 non d ame      -8.479  11.861  61.479  0.00  0.00     0.084 H 
ENDBRANCH  58  61
ENDBRANCH  57  58
ENDBRANCH  55  57
ENDBRANCH  52  55
ENDBRANCH  49  52
ENDBRANCH  47  49
BRANCH  47  72
ATOM     72  C24 non d ame      -9.214  16.719  65.903  0.00  0.00    -0.039 C 
ATOM     73  H35 non d ame      -8.216  16.488  65.529  0.00  0.00     0.036 H 
ATOM     74  H36 non d ame      -9.991  17.050  65.213  0.00  0.00     0.036 H 
BRANCH  72  75
ATOM     75  C25 non d ame      -9.049  17.862  67.013  0.00  0.00    -0.001 C 
ATOM     76  C26 non d ame     -10.469  18.670  67.199  0.00  0.00    -0.035 C 
ATOM     77  C27 non d ame     -10.231  20.000  67.098  0.00  0.00     0.085 C 
ATOM     78  H38 non d ame     -11.130  18.464  66.358  0.00  0.00     0.036 H 
ATOM     79  H39 non d ame     -10.834  18.554  68.219  0.00  0.00     0.036 H 
ATOM     80  N5  non d ame      -8.839  20.157  66.534  0.00  0.00    -0.049 N 
ATOM     81  H40 non d ame     -10.953  20.370  66.369  0.00  0.00     0.075 H 
ATOM     82  H41 non d ame     -10.245  20.377  68.119  0.00  0.00     0.075 H 
ATOM     83  C28 non d ame      -8.135  18.711  66.679  0.00  0.00     0.193 C 
ATOM     84  H42 non d ame      -8.950  20.364  65.553  0.00  0.00     0.280 HD
ATOM     85  H43 non d ame      -8.358  20.809  67.137  0.00  0.00     0.280 HD
ATOM     86  H44 non d ame      -7.399  18.529  67.461  0.00  0.00     0.129 H 
ATOM     87  H37 non d ame      -8.567  17.492  67.918  0.00  0.00     0.046 H 
BRANCH  83  88
ATOM     88  O6  non d ame      -7.489  18.353  65.456  0.00  0.00    -0.369 OA
ATOM     89  H45 non d ame      -8.141  18.016  64.837  0.00  0.00     0.212 HD
ENDBRANCH  83  88
ENDBRANCH  72  75
ENDBRANCH  47  72
ENDBRANCH  45  47
ENDBRANCH   1  43
BRANCH   1  90
ATOM     90  C16 non d ame      -5.695  13.973  67.972  0.00  0.00    -0.035 C 
ATOM     91  H21 non d ame      -5.102  13.093  67.718  0.00  0.00     0.037 H 
ATOM     92  H22 non d ame      -6.025  14.652  67.186  0.00  0.00     0.037 H 
BRANCH  90  93
ATOM     93  C17 non d ame      -4.827  14.822  68.954  0.00  0.00    -0.059 C 
ATOM     94  H23 non d ame      -3.784  14.553  68.789  0.00  0.00     0.038 H 
BRANCH  93  95
ATOM     95  C18 non d ame      -4.970  16.355  68.692  0.00  0.00    -0.073 C 
ATOM     96  H24 non d ame      -5.387  16.837  69.577  0.00  0.00     0.028 H 
ATOM     97  H25 non d ame      -3.990  16.779  68.475  0.00  0.00     0.028 H 
ATOM     98  H26 non d ame      -5.633  16.518  67.842  0.00  0.00     0.028 H 
ENDBRANCH  93  95
BRANCH  93  99
ATOM     99  C19 non d ame      -5.159  14.484  70.410  0.00  0.00    -0.073 C 
ATOM    100  H27 non d ame      -4.560  15.110  71.073  0.00  0.00     0.028 H 
ATOM    101  H28 non d ame      -6.218  14.670  70.592  0.00  0.00     0.028 H 
ATOM    102  H29 non d ame      -4.936  13.435  70.600  0.00  0.00     0.028 H 
ENDBRANCH  93  99
ENDBRANCH  90  93
ENDBRANCH   1  90
TORSDOF 26
ENDMDL
MODEL 16
REMARK VINA RESULT:      -5.7      3.365      8.394
REMARK  26 active torsions:
REMARK  status: ('A' for Active; 'I' for Inactive)
REMARK    1  A    between atoms: C2_2  and  C3_3 
REMARK    2  A    between atoms: C4_6  and  C5_7 
REMARK       I    between atoms: C5_7  and  N2_9 
REMARK    3  A    between atoms: N2_9  and  C6_10 
REMARK    4  A    between atoms: C6_10  and  C7_11 
REMARK    5  A    between atoms: C6_10  and  C8_13 
REMARK       I    between atoms: C7_11  and  N3_14 
REMARK    6  A    between atoms: N3_14  and  C9_15 
REMARK    7  A    between atoms: C9_15  and  C10_16 
REMARK    8  A    between atoms: C9_15  and  C11_18 
REMARK       I    between atoms: C10_16  and  N4_21 
REMARK    9  A    between atoms: C11_18  and  C12_19 
REMARK   10  A    between atoms: C11_18  and  C13_20 
REMARK   11  A    between atoms: N4_21  and  C14_22 
REMARK   12  A    between atoms: C14_22  and  C15_23 
REMARK   13  A    between atoms: C14_22  and  C16_25 
REMARK       I    between atoms: C15_23  and  N6_40 
REMARK   14  A    between atoms: C16_25  and  C17_26 
REMARK   15  A    between atoms: C17_26  and  C18_27 
REMARK   16  A    between atoms: C17_26  and  C19_28 
REMARK   17  A    between atoms: C20_29  and  C21_30 
REMARK   18  A    between atoms: C20_29  and  C24_33 
REMARK   19  A    between atoms: C20_29  and  N6_40 
REMARK   20  A    between atoms: C21_30  and  C22_31 
REMARK   21  A    between atoms: C22_31  and  C23_32 
REMARK   22  A    between atoms: C23_32  and  O8_43 
REMARK   23  A    between atoms: C24_33  and  C25_34 
REMARK   24  A    between atoms: C28_38  and  O6_39 
REMARK   25  A    between atoms: C29_42  and  O8_43 
REMARK   26  A    between atoms: C29_42  and  C35_49 
ROOT
ATOM      1  C14 non d ame      -9.179  14.688  67.758  0.00  0.00     0.089 C 
ATOM      2  H20 non d ame      -9.341  15.655  67.280  0.00  0.00     0.087 H 
ENDROOT
BRANCH   1   3
ATOM      3  N4  non d ame      -9.694  13.665  66.861  0.00  0.00    -0.346 N 
ATOM      4  C10 non d ame      -9.996  13.997  65.420  0.00  0.00     0.241 C 
ATOM      5  O4  non d ame      -9.818  15.096  65.008  0.00  0.00    -0.271 OA
ATOM      6  H19 non d ame      -9.840  12.737  67.231  0.00  0.00     0.163 HD
BRANCH   4   7
ATOM      7  C9  non d ame     -10.523  12.925  64.503  0.00  0.00     0.092 C 
ATOM      8  H11 non d ame     -10.370  13.230  63.468  0.00  0.00     0.088 H 
BRANCH   7   9
ATOM      9  N3  non d ame      -9.760  11.689  64.707  0.00  0.00    -0.346 N 
ATOM     10  C7  non d ame      -9.257  10.957  63.572  0.00  0.00     0.240 C 
ATOM     11  O3  non d ame      -9.456  11.347  62.486  0.00  0.00    -0.271 OA
ATOM     12  H10 non d ame      -9.581  11.339  65.638  0.00  0.00     0.163 HD
BRANCH  10  13
ATOM     13  C6  non d ame      -8.449   9.641  63.795  0.00  0.00     0.086 C 
ATOM     14  H6  non d ame      -7.480   9.815  64.264  0.00  0.00     0.086 H 
BRANCH  13  15
ATOM     15  N2  non d ame      -9.196   8.776  64.693  0.00  0.00    -0.343 N 
ATOM     16  C5  non d ame      -8.474   7.882  65.601  0.00  0.00     0.273 C 
ATOM     17  O2  non d ame      -7.293   7.864  65.599  0.00  0.00    -0.266 OA
ATOM     18  H5  non d ame     -10.206   8.796  64.686  0.00  0.00     0.163 HD
BRANCH  16  19
ATOM     19  C4  non d ame      -9.252   6.963  66.556  0.00  0.00     0.154 A 
ATOM     20  C1  non d ame      -9.870   7.327  67.795  0.00  0.00    -0.017 A 
ATOM     21  C2  non d ame     -10.448   6.132  68.278  0.00  0.00     0.077 A 
ATOM     22  H1  non d ame      -9.896   8.308  68.270  0.00  0.00     0.091 H 
ATOM     23  O1  non d ame     -10.189   5.198  67.410  0.00  0.00    -0.218 OA
ATOM     24  N1  non d ame      -9.492   5.659  66.397  0.00  0.00    -0.123 NA
BRANCH  21  25
ATOM     25  C3  non d ame     -11.232   5.969  69.573  0.00  0.00    -0.029 C 
ATOM     26  H2  non d ame     -11.635   6.935  69.878  0.00  0.00     0.036 H 
ATOM     27  H3  non d ame     -12.049   5.267  69.418  0.00  0.00     0.036 H 
ATOM     28  H4  non d ame     -10.570   5.589  70.353  0.00  0.00     0.036 H 
ENDBRANCH  21  25
ENDBRANCH  16  19
ENDBRANCH  13  15
BRANCH  13  29
ATOM     29  C8  non d ame      -8.233   8.949  62.473  0.00  0.00    -0.049 C 
ATOM     30  H7  non d ame      -9.139   8.411  62.193  0.00  0.00     0.030 H 
ATOM     31  H8  non d ame      -7.999   9.690  61.709  0.00  0.00     0.030 H 
ATOM     32  H9  non d ame      -7.406   8.245  62.563  0.00  0.00     0.030 H 
ENDBRANCH  13  29
ENDBRANCH  10  13
ENDBRANCH   7   9
BRANCH   7  33
ATOM     33  C11 non d ame     -12.024  12.663  64.821  0.00  0.00    -0.033 C 
ATOM     34  H12 non d ame     -12.068  11.931  65.626  0.00  0.00     0.042 H 
BRANCH  33  35
ATOM     35  C12 non d ame     -12.732  13.959  65.326  0.00  0.00    -0.071 C 
ATOM     36  H13 non d ame     -13.802  13.775  65.422  0.00  0.00     0.028 H 
ATOM     37  H14 non d ame     -12.324  14.242  66.295  0.00  0.00     0.028 H 
ATOM     38  H15 non d ame     -12.565  14.765  64.612  0.00  0.00     0.028 H 
ENDBRANCH  33  35
BRANCH  33  39
ATOM     39  C13 non d ame     -12.762  12.063  63.581  0.00  0.00    -0.071 C 
ATOM     40  H16 non d ame     -12.455  11.027  63.442  0.00  0.00     0.028 H 
ATOM     41  H17 non d ame     -13.840  12.104  63.744  0.00  0.00     0.028 H 
ATOM     42  H18 non d ame     -12.507  12.640  62.692  0.00  0.00     0.028 H 
ENDBRANCH  33  39
ENDBRANCH   7  33
ENDBRANCH   4   7
ENDBRANCH   1   3
BRANCH   1  43
ATOM     43  C15 non d ame      -7.672  14.405  68.018  0.00  0.00     0.240 C 
ATOM     44  O5  non d ame      -6.845  15.012  67.419  0.00  0.00    -0.271 OA
ATOM     45  N6  non d ame      -7.260  13.383  69.022  0.00  0.00    -0.355 N 
ATOM     46  H46 non d ame      -7.954  12.864  69.540  0.00  0.00     0.162 HD
BRANCH  45  47
ATOM     47  C20 non d ame      -5.823  13.125  69.258  0.00  0.00     0.013 C 
ATOM     48  H30 non d ame      -5.280  14.050  69.061  0.00  0.00     0.072 H 
BRANCH  47  49
ATOM     49  C21 non d ame      -5.349  12.039  68.320  0.00  0.00    -0.038 C 
ATOM     50  H31 non d ame      -5.622  12.373  67.320  0.00  0.00     0.036 H 
ATOM     51  H32 non d ame      -4.301  11.869  68.572  0.00  0.00     0.036 H 
BRANCH  49  52
ATOM     52  C22 non d ame      -6.074  10.694  68.545  0.00  0.00     0.018 C 
ATOM     53  H33 non d ame      -5.620   9.992  67.847  0.00  0.00     0.048 H 
ATOM     54  H34 non d ame      -6.022  10.506  69.617  0.00  0.00     0.048 H 
BRANCH  52  55
ATOM     55  C23 non d ame      -7.587  10.732  68.190  0.00  0.00     0.259 C 
ATOM     56  O7  non d ame      -7.939  10.949  67.076  0.00  0.00    -0.265 OA
BRANCH  55  57
ATOM     57  O8  non d ame      -8.549  10.517  69.215  0.00  0.00    -0.317 OA
BRANCH  57  58
ATOM     58  C29 non d ame      -9.892  10.822  68.826  0.00  0.00     0.052 C 
ATOM     59  H47 non d ame      -9.957  11.910  68.819  0.00  0.00     0.082 H 
ATOM     60  H48 non d ame     -10.068  10.260  67.909  0.00  0.00     0.082 H 
BRANCH  58  61
ATOM     61  C35 non d ame     -10.844  10.279  69.925  0.00  0.00    -0.034 A 
ATOM     62  C30 non d ame     -12.156  10.736  69.999  0.00  0.00    -0.075 A 
ATOM     63  C31 non d ame     -13.010  10.247  70.987  0.00  0.00    -0.082 A 
ATOM     64  H49 non d ame     -12.515  11.475  69.283  0.00  0.00     0.084 H 
ATOM     65  C32 non d ame     -12.547   9.301  71.905  0.00  0.00    -0.083 A 
ATOM     66  H50 non d ame     -14.039  10.605  71.040  0.00  0.00     0.083 H 
ATOM     67  C33 non d ame     -11.236   8.851  71.830  0.00  0.00    -0.082 A 
ATOM     68  H51 non d ame     -13.209   8.914  72.679  0.00  0.00     0.083 H 
ATOM     69  C34 non d ame     -10.379   9.335  70.843  0.00  0.00    -0.075 A 
ATOM     70  H52 non d ame     -10.877   8.114  72.549  0.00  0.00     0.083 H 
ATOM     71  H53 non d ame      -9.351   8.975  70.789  0.00  0.00     0.084 H 
ENDBRANCH  58  61
ENDBRANCH  57  58
ENDBRANCH  55  57
ENDBRANCH  52  55
ENDBRANCH  49  52
ENDBRANCH  47  49
BRANCH  47  72
ATOM     72  C24 non d ame      -5.610  12.682  70.704  0.00  0.00    -0.039 C 
ATOM     73  H35 non d ame      -6.481  13.043  71.250  0.00  0.00     0.036 H 
ATOM     74  H36 non d ame      -5.405  11.612  70.652  0.00  0.00     0.036 H 
BRANCH  72  75
ATOM     75  C25 non d ame      -4.322  13.378  71.354  0.00  0.00    -0.001 C 
ATOM     76  C26 non d ame      -3.125  12.268  71.550  0.00  0.00    -0.035 C 
ATOM     77  C27 non d ame      -2.679  12.328  72.828  0.00  0.00     0.085 C 
ATOM     78  H38 non d ame      -3.531  11.261  71.469  0.00  0.00     0.036 H 
ATOM     79  H39 non d ame      -2.252  12.552  70.963  0.00  0.00     0.036 H 
ATOM     80  N5  non d ame      -3.683  13.145  73.607  0.00  0.00    -0.049 N 
ATOM     81  H40 non d ame      -2.699  11.301  73.192  0.00  0.00     0.075 H 
ATOM     82  H41 non d ame      -1.737  12.873  72.783  0.00  0.00     0.075 H 
ATOM     83  C28 non d ame      -4.599  13.891  72.507  0.00  0.00     0.193 C 
ATOM     84  H42 non d ame      -4.258  12.487  74.112  0.00  0.00     0.280 HD
ATOM     85  H43 non d ame      -3.154  13.843  74.110  0.00  0.00     0.280 HD
ATOM     86  H44 non d ame      -4.457  14.949  72.292  0.00  0.00     0.129 H 
ATOM     87  H37 non d ame      -4.058  14.309  70.851  0.00  0.00     0.046 H 
BRANCH  83  88
ATOM     88  O6  non d ame      -5.981  13.751  72.840  0.00  0.00    -0.369 OA
ATOM     89  H45 non d ame      -6.063  13.472  73.755  0.00  0.00     0.212 HD
ENDBRANCH  83  88
ENDBRANCH  72  75
ENDBRANCH  47  72
ENDBRANCH  45  47
ENDBRANCH   1  43
BRANCH   1  90
ATOM     90  C16 non d ame      -9.945  14.628  69.070  0.00  0.00    -0.035 C 
ATOM     91  H21 non d ame     -10.358  13.619  69.117  0.00  0.00     0.037 H 
ATOM     92  H22 non d ame      -9.240  14.964  69.831  0.00  0.00     0.037 H 
BRANCH  90  93
ATOM     93  C17 non d ame     -11.161  15.606  69.132  0.00  0.00    -0.059 C 
ATOM     94  H23 non d ame     -11.996  15.127  68.621  0.00  0.00     0.038 H 
BRANCH  93  95
ATOM     95  C18 non d ame     -11.607  15.900  70.600  0.00  0.00    -0.073 C 
ATOM     96  H24 non d ame     -11.156  15.167  71.270  0.00  0.00     0.028 H 
ATOM     97  H25 non d ame     -11.281  16.901  70.884  0.00  0.00     0.028 H 
ATOM     98  H26 non d ame     -12.693  15.837  70.669  0.00  0.00     0.028 H 
ENDBRANCH  93  95
BRANCH  93  99
ATOM     99  C19 non d ame     -10.856  16.907  68.384  0.00  0.00    -0.073 C 
ATOM    100  H27 non d ame     -11.201  17.755  68.976  0.00  0.00     0.028 H 
ATOM    101  H28 non d ame      -9.781  16.988  68.223  0.00  0.00     0.028 H 
ATOM    102  H29 non d ame     -11.368  16.902  67.422  0.00  0.00     0.028 H 
ENDBRANCH  93  99
ENDBRANCH  90  93
ENDBRANCH   1  90
TORSDOF 26
ENDMDL
MODEL 17
REMARK VINA RESULT:      -5.6      2.430      9.948
REMARK  26 active torsions:
REMARK  status: ('A' for Active; 'I' for Inactive)
REMARK    1  A    between atoms: C2_2  and  C3_3 
REMARK    2  A    between atoms: C4_6  and  C5_7 
REMARK       I    between atoms: C5_7  and  N2_9 
REMARK    3  A    between atoms: N2_9  and  C6_10 
REMARK    4  A    between atoms: C6_10  and  C7_11 
REMARK    5  A    between atoms: C6_10  and  C8_13 
REMARK       I    between atoms: C7_11  and  N3_14 
REMARK    6  A    between atoms: N3_14  and  C9_15 
REMARK    7  A    between atoms: C9_15  and  C10_16 
REMARK    8  A    between atoms: C9_15  and  C11_18 
REMARK       I    between atoms: C10_16  and  N4_21 
REMARK    9  A    between atoms: C11_18  and  C12_19 
REMARK   10  A    between atoms: C11_18  and  C13_20 
REMARK   11  A    between atoms: N4_21  and  C14_22 
REMARK   12  A    between atoms: C14_22  and  C15_23 
REMARK   13  A    between atoms: C14_22  and  C16_25 
REMARK       I    between atoms: C15_23  and  N6_40 
REMARK   14  A    between atoms: C16_25  and  C17_26 
REMARK   15  A    between atoms: C17_26  and  C18_27 
REMARK   16  A    between atoms: C17_26  and  C19_28 
REMARK   17  A    between atoms: C20_29  and  C21_30 
REMARK   18  A    between atoms: C20_29  and  C24_33 
REMARK   19  A    between atoms: C20_29  and  N6_40 
REMARK   20  A    between atoms: C21_30  and  C22_31 
REMARK   21  A    between atoms: C22_31  and  C23_32 
REMARK   22  A    between atoms: C23_32  and  O8_43 
REMARK   23  A    between atoms: C24_33  and  C25_34 
REMARK   24  A    between atoms: C28_38  and  O6_39 
REMARK   25  A    between atoms: C29_42  and  O8_43 
REMARK   26  A    between atoms: C29_42  and  C35_49 
ROOT
ATOM      1  C14 non d ame     -10.934   8.588  70.183  0.00  0.00     0.089 C 
ATOM      2  H20 non d ame     -11.934   8.264  69.891  0.00  0.00     0.087 H 
ENDROOT
BRANCH   1   3
ATOM      3  N4  non d ame     -10.067   7.419  70.144  0.00  0.00    -0.346 N 
ATOM      4  C10 non d ame     -10.527   6.152  69.468  0.00  0.00     0.241 C 
ATOM      5  O4  non d ame     -11.600   6.096  68.964  0.00  0.00    -0.271 OA
ATOM      6  H19 non d ame      -9.158   7.486  70.581  0.00  0.00     0.163 HD
BRANCH   4   7
ATOM      7  C9  non d ame      -9.615   4.953  69.432  0.00  0.00     0.092 C 
ATOM      8  H11 non d ame     -10.071   4.173  68.823  0.00  0.00     0.088 H 
BRANCH   7   9
ATOM      9  N3  non d ame      -8.350   5.321  68.789  0.00  0.00    -0.346 N 
ATOM     10  C7  non d ame      -8.150   5.052  67.387  0.00  0.00     0.240 C 
ATOM     11  O3  non d ame      -8.996   4.541  66.760  0.00  0.00    -0.271 OA
ATOM     12  H10 non d ame      -7.610   5.762  69.317  0.00  0.00     0.163 HD
BRANCH  10  13
ATOM     13  C6  non d ame      -6.800   5.443  66.708  0.00  0.00     0.086 C 
ATOM     14  H6  non d ame      -6.467   4.707  65.976  0.00  0.00     0.086 H 
BRANCH  13  15
ATOM     15  N2  non d ame      -6.979   6.694  65.989  0.00  0.00    -0.343 N 
ATOM     16  C5  non d ame      -6.708   6.744  64.550  0.00  0.00     0.273 C 
ATOM     17  O2  non d ame      -6.344   5.774  63.982  0.00  0.00    -0.266 OA
ATOM     18  H5  non d ame      -7.287   7.519  66.483  0.00  0.00     0.163 HD
BRANCH  16  19
ATOM     19  C4  non d ame      -6.894   8.059  63.777  0.00  0.00     0.154 A 
ATOM     20  C1  non d ame      -7.446   8.222  62.467  0.00  0.00    -0.017 A 
ATOM     21  C2  non d ame      -7.394   9.612  62.221  0.00  0.00     0.077 A 
ATOM     22  H1  non d ame      -7.826   7.450  61.798  0.00  0.00     0.091 H 
ATOM     23  O1  non d ame      -6.875  10.173  63.274  0.00  0.00    -0.218 OA
ATOM     24  N1  non d ame      -6.575   9.287  64.196  0.00  0.00    -0.123 NA
BRANCH  21  25
ATOM     25  C3  non d ame      -7.863  10.321  60.958  0.00  0.00    -0.029 C 
ATOM     26  H2  non d ame      -8.669  11.012  61.207  0.00  0.00     0.036 H 
ATOM     27  H3  non d ame      -7.032  10.875  60.522  0.00  0.00     0.036 H 
ATOM     28  H4  non d ame      -8.226   9.584  60.240  0.00  0.00     0.036 H 
ENDBRANCH  21  25
ENDBRANCH  16  19
ENDBRANCH  13  15
BRANCH  13  29
ATOM     29  C8  non d ame      -5.732   5.601  67.760  0.00  0.00    -0.049 C 
ATOM     30  H7  non d ame      -6.129   5.295  68.729  0.00  0.00     0.030 H 
ATOM     31  H8  non d ame      -4.875   4.979  67.506  0.00  0.00     0.030 H 
ATOM     32  H9  non d ame      -5.423   6.645  67.810  0.00  0.00     0.030 H 
ENDBRANCH  13  29
ENDBRANCH  10  13
ENDBRANCH   7   9
BRANCH   7  33
ATOM     33  C11 non d ame      -9.334   4.472  70.886  0.00  0.00    -0.033 C 
ATOM     34  H12 non d ame     -10.051   4.966  71.540  0.00  0.00     0.042 H 
BRANCH  33  35
ATOM     35  C12 non d ame      -9.552   2.933  71.027  0.00  0.00    -0.071 C 
ATOM     36  H13 non d ame      -8.599   2.418  70.902  0.00  0.00     0.028 H 
ATOM     37  H14 non d ame      -9.957   2.713  72.014  0.00  0.00     0.028 H 
ATOM     38  H15 non d ame     -10.251   2.595  70.263  0.00  0.00     0.028 H 
ENDBRANCH  33  35
BRANCH  33  39
ATOM     39  C13 non d ame      -7.898   4.884  71.344  0.00  0.00    -0.071 C 
ATOM     40  H16 non d ame      -7.183   4.130  71.019  0.00  0.00     0.028 H 
ATOM     41  H17 non d ame      -7.638   5.847  70.901  0.00  0.00     0.028 H 
ATOM     42  H18 non d ame      -7.872   4.966  72.430  0.00  0.00     0.028 H 
ENDBRANCH  33  39
ENDBRANCH   7  33
ENDBRANCH   4   7
ENDBRANCH   1   3
BRANCH   1  43
ATOM     43  C15 non d ame     -10.358   9.663  69.218  0.00  0.00     0.240 C 
ATOM     44  O5  non d ame      -9.206   9.641  68.929  0.00  0.00    -0.271 OA
ATOM     45  N6  non d ame     -11.246  10.715  68.647  0.00  0.00    -0.355 N 
ATOM     46  H46 non d ame     -12.227  10.741  68.883  0.00  0.00     0.162 HD
BRANCH  45  47
ATOM     47  C20 non d ame     -10.684  11.730  67.730  0.00  0.00     0.013 C 
ATOM     48  H30 non d ame      -9.656  11.925  68.035  0.00  0.00     0.072 H 
BRANCH  47  49
ATOM     49  C21 non d ame     -11.500  12.999  67.827  0.00  0.00    -0.038 C 
ATOM     50  H31 non d ame     -11.755  13.263  66.801  0.00  0.00     0.036 H 
ATOM     51  H32 non d ame     -12.290  12.787  68.548  0.00  0.00     0.036 H 
BRANCH  49  52
ATOM     52  C22 non d ame     -10.695  14.187  68.397  0.00  0.00     0.018 C 
ATOM     53  H33 non d ame     -11.035  14.308  69.426  0.00  0.00     0.048 H 
ATOM     54  H34 non d ame      -9.649  13.961  68.192  0.00  0.00     0.048 H 
BRANCH  52  55
ATOM     55  C23 non d ame     -10.988  15.540  67.689  0.00  0.00     0.259 C 
ATOM     56  O7  non d ame     -10.849  15.648  66.514  0.00  0.00    -0.265 OA
BRANCH  55  57
ATOM     57  O8  non d ame     -11.413  16.654  68.465  0.00  0.00    -0.317 OA
BRANCH  57  58
ATOM     58  C29 non d ame     -10.395  17.194  69.313  0.00  0.00     0.052 C 
ATOM     59  H47 non d ame     -10.921  17.746  70.090  0.00  0.00     0.082 H 
ATOM     60  H48 non d ame      -9.757  16.351  69.580  0.00  0.00     0.082 H 
BRANCH  58  61
ATOM     61  C35 non d ame      -9.557  18.197  68.477  0.00  0.00    -0.034 A 
ATOM     62  C30 non d ame      -8.242  17.894  68.136  0.00  0.00    -0.075 A 
ATOM     63  C31 non d ame      -7.490  18.796  67.385  0.00  0.00    -0.082 A 
ATOM     64  H49 non d ame      -7.802  16.950  68.457  0.00  0.00     0.084 H 
ATOM     65  C32 non d ame      -8.056  20.007  66.977  0.00  0.00    -0.083 A 
ATOM     66  H50 non d ame      -6.462  18.554  67.117  0.00  0.00     0.083 H 
ATOM     67  C33 non d ame      -9.367  20.307  67.322  0.00  0.00    -0.082 A 
ATOM     68  H51 non d ame      -7.475  20.717  66.388  0.00  0.00     0.083 H 
ATOM     69  C34 non d ame     -10.123  19.407  68.071  0.00  0.00    -0.075 A 
ATOM     70  H52 non d ame      -9.805  21.253  67.003  0.00  0.00     0.083 H 
ATOM     71  H53 non d ame     -11.153  19.649  68.337  0.00  0.00     0.084 H 
ENDBRANCH  58  61
ENDBRANCH  57  58
ENDBRANCH  55  57
ENDBRANCH  52  55
ENDBRANCH  49  52
ENDBRANCH  47  49
BRANCH  47  72
ATOM     72  C24 non d ame     -10.721  11.206  66.296  0.00  0.00    -0.039 C 
ATOM     73  H35 non d ame      -9.718  10.828  66.100  0.00  0.00     0.036 H 
ATOM     74  H36 non d ame     -11.576  10.530  66.256  0.00  0.00     0.036 H 
BRANCH  72  75
ATOM     75  C25 non d ame     -10.998  12.381  65.242  0.00  0.00    -0.001 C 
ATOM     76  C26 non d ame     -12.475  12.174  64.550  0.00  0.00    -0.035 C 
ATOM     77  C27 non d ame     -12.336  12.231  63.203  0.00  0.00     0.085 C 
ATOM     78  H38 non d ame     -12.833  11.161  64.727  0.00  0.00     0.036 H 
ATOM     79  H39 non d ame     -13.116  13.026  64.775  0.00  0.00     0.036 H 
ATOM     80  N5  non d ame     -10.859  12.129  62.907  0.00  0.00    -0.049 N 
ATOM     81  H40 non d ame     -12.838  11.341  62.821  0.00  0.00     0.075 H 
ATOM     82  H41 non d ame     -12.688  13.221  62.916  0.00  0.00     0.075 H 
ATOM     83  C28 non d ame     -10.105  12.393  64.309  0.00  0.00     0.193 C 
ATOM     84  H42 non d ame     -10.689  11.175  62.625  0.00  0.00     0.280 HD
ATOM     85  H43 non d ame     -10.641  12.888  62.277  0.00  0.00     0.280 HD
ATOM     86  H44 non d ame      -9.623  13.350  64.509  0.00  0.00     0.129 H 
ATOM     87  H37 non d ame     -10.777  13.366  65.655  0.00  0.00     0.046 H 
BRANCH  83  88
ATOM     88  O6  non d ame      -9.094  11.406  64.520  0.00  0.00    -0.369 OA
ATOM     89  H45 non d ame      -9.257  10.654  63.946  0.00  0.00     0.212 HD
ENDBRANCH  83  88
ENDBRANCH  72  75
ENDBRANCH  47  72
ENDBRANCH  45  47
ENDBRANCH   1  43
BRANCH   1  90
ATOM     90  C16 non d ame     -10.964   9.136  71.601  0.00  0.00    -0.035 C 
ATOM     91  H21 non d ame     -10.428   8.403  72.205  0.00  0.00     0.037 H 
ATOM     92  H22 non d ame     -10.590  10.156  71.523  0.00  0.00     0.037 H 
BRANCH  90  93
ATOM     93  C17 non d ame     -12.401   9.237  72.203  0.00  0.00    -0.059 C 
ATOM     94  H23 non d ame     -12.305   9.232  73.289  0.00  0.00     0.038 H 
BRANCH  93  95
ATOM     95  C18 non d ame     -13.120  10.563  71.795  0.00  0.00    -0.073 C 
ATOM     96  H24 non d ame     -13.654  10.412  70.857  0.00  0.00     0.028 H 
ATOM     97  H25 non d ame     -13.827  10.847  72.574  0.00  0.00     0.028 H 
ATOM     98  H26 non d ame     -12.380  11.353  71.670  0.00  0.00     0.028 H 
ENDBRANCH  93  95
BRANCH  93  99
ATOM     99  C19 non d ame     -13.244   8.019  71.817  0.00  0.00    -0.073 C 
ATOM    100  H27 non d ame     -12.912   7.151  72.388  0.00  0.00     0.028 H 
ATOM    101  H28 non d ame     -14.293   8.220  72.037  0.00  0.00     0.028 H 
ATOM    102  H29 non d ame     -13.129   7.820  70.751  0.00  0.00     0.028 H 
ENDBRANCH  93  99
ENDBRANCH  90  93
ENDBRANCH   1  90
TORSDOF 26
ENDMDL
MODEL 18
REMARK VINA RESULT:      -5.6      2.770      9.535
REMARK  26 active torsions:
REMARK  status: ('A' for Active; 'I' for Inactive)
REMARK    1  A    between atoms: C2_2  and  C3_3 
REMARK    2  A    between atoms: C4_6  and  C5_7 
REMARK       I    between atoms: C5_7  and  N2_9 
REMARK    3  A    between atoms: N2_9  and  C6_10 
REMARK    4  A    between atoms: C6_10  and  C7_11 
REMARK    5  A    between atoms: C6_10  and  C8_13 
REMARK       I    between atoms: C7_11  and  N3_14 
REMARK    6  A    between atoms: N3_14  and  C9_15 
REMARK    7  A    between atoms: C9_15  and  C10_16 
REMARK    8  A    between atoms: C9_15  and  C11_18 
REMARK       I    between atoms: C10_16  and  N4_21 
REMARK    9  A    between atoms: C11_18  and  C12_19 
REMARK   10  A    between atoms: C11_18  and  C13_20 
REMARK   11  A    between atoms: N4_21  and  C14_22 
REMARK   12  A    between atoms: C14_22  and  C15_23 
REMARK   13  A    between atoms: C14_22  and  C16_25 
REMARK       I    between atoms: C15_23  and  N6_40 
REMARK   14  A    between atoms: C16_25  and  C17_26 
REMARK   15  A    between atoms: C17_26  and  C18_27 
REMARK   16  A    between atoms: C17_26  and  C19_28 
REMARK   17  A    between atoms: C20_29  and  C21_30 
REMARK   18  A    between atoms: C20_29  and  C24_33 
REMARK   19  A    between atoms: C20_29  and  N6_40 
REMARK   20  A    between atoms: C21_30  and  C22_31 
REMARK   21  A    between atoms: C22_31  and  C23_32 
REMARK   22  A    between atoms: C23_32  and  O8_43 
REMARK   23  A    between atoms: C24_33  and  C25_34 
REMARK   24  A    between atoms: C28_38  and  O6_39 
REMARK   25  A    between atoms: C29_42  and  O8_43 
REMARK   26  A    between atoms: C29_42  and  C35_49 
ROOT
ATOM      1  C14 non d ame      -7.745  10.056  69.161  0.00  0.00     0.089 C 
ATOM      2  H20 non d ame      -8.010  10.543  70.101  0.00  0.00     0.087 H 
ENDROOT
BRANCH   1   3
ATOM      3  N4  non d ame      -8.538   8.841  69.059  0.00  0.00    -0.346 N 
ATOM      4  C10 non d ame      -9.925   8.784  69.651  0.00  0.00     0.241 C 
ATOM      5  O4  non d ame     -10.379   9.730  70.208  0.00  0.00    -0.271 OA
ATOM      6  H19 non d ame      -8.133   8.046  68.585  0.00  0.00     0.163 HD
BRANCH   4   7
ATOM      7  C9  non d ame     -10.735   7.520  69.532  0.00  0.00     0.092 C 
ATOM      8  H11 non d ame     -11.650   7.730  68.979  0.00  0.00     0.088 H 
BRANCH   7   9
ATOM      9  N3  non d ame      -9.981   6.528  68.759  0.00  0.00    -0.346 N 
ATOM     10  C7  non d ame     -10.422   6.158  67.437  0.00  0.00     0.240 C 
ATOM     11  O3  non d ame     -11.381   6.648  66.979  0.00  0.00    -0.271 OA
ATOM     12  H10 non d ame      -9.152   6.095  69.141  0.00  0.00     0.163 HD
BRANCH  10  13
ATOM     13  C6  non d ame      -9.617   5.099  66.620  0.00  0.00     0.086 C 
ATOM     14  H6  non d ame     -10.221   4.238  66.335  0.00  0.00     0.086 H 
BRANCH  13  15
ATOM     15  N2  non d ame      -9.155   5.710  65.384  0.00  0.00    -0.343 N 
ATOM     16  C5  non d ame      -8.364   6.941  65.439  0.00  0.00     0.273 C 
ATOM     17  O2  non d ame      -8.109   7.435  66.481  0.00  0.00    -0.266 OA
ATOM     18  H5  non d ame      -9.380   5.282  64.497  0.00  0.00     0.163 HD
BRANCH  16  19
ATOM     19  C4  non d ame      -7.869   7.596  64.140  0.00  0.00     0.154 A 
ATOM     20  C1  non d ame      -8.251   8.870  63.613  0.00  0.00    -0.017 A 
ATOM     21  C2  non d ame      -7.518   9.002  62.413  0.00  0.00     0.077 A 
ATOM     22  H1  non d ame      -8.953   9.589  64.037  0.00  0.00     0.091 H 
ATOM     23  O1  non d ame      -6.800   7.926  62.277  0.00  0.00    -0.218 OA
ATOM     24  N1  non d ame      -6.988   7.090  63.273  0.00  0.00    -0.123 NA
BRANCH  21  25
ATOM     25  C3  non d ame      -7.560  10.187  61.457  0.00  0.00    -0.029 C 
ATOM     26  H2  non d ame      -7.276   9.858  60.457  0.00  0.00     0.036 H 
ATOM     27  H3  non d ame      -8.568  10.598  61.432  0.00  0.00     0.036 H 
ATOM     28  H4  non d ame      -6.863  10.954  61.798  0.00  0.00     0.036 H 
ENDBRANCH  21  25
ENDBRANCH  16  19
ENDBRANCH  13  15
BRANCH  13  29
ATOM     29  C8  non d ame      -8.440   4.622  67.432  0.00  0.00    -0.049 C 
ATOM     30  H7  non d ame      -8.724   3.732  67.994  0.00  0.00     0.030 H 
ATOM     31  H8  non d ame      -7.611   4.384  66.767  0.00  0.00     0.030 H 
ATOM     32  H9  non d ame      -8.136   5.406  68.126  0.00  0.00     0.030 H 
ENDBRANCH  13  29
ENDBRANCH  10  13
ENDBRANCH   7   9
BRANCH   7  33
ATOM     33  C11 non d ame     -11.026   6.955  70.953  0.00  0.00    -0.033 C 
ATOM     34  H12 non d ame     -10.588   7.641  71.676  0.00  0.00     0.042 H 
BRANCH  33  35
ATOM     35  C12 non d ame     -12.559   6.890  71.236  0.00  0.00    -0.071 C 
ATOM     36  H13 non d ame     -13.066   6.429  70.388  0.00  0.00     0.028 H 
ATOM     37  H14 non d ame     -12.738   6.297  72.132  0.00  0.00     0.028 H 
ATOM     38  H15 non d ame     -12.943   7.898  71.384  0.00  0.00     0.028 H 
ENDBRANCH  33  35
BRANCH  33  39
ATOM     39  C13 non d ame     -10.355   5.557  71.147  0.00  0.00    -0.071 C 
ATOM     40  H16 non d ame     -10.248   5.349  72.211  0.00  0.00     0.028 H 
ATOM     41  H17 non d ame     -10.978   4.788  70.687  0.00  0.00     0.028 H 
ATOM     42  H18 non d ame      -9.372   5.556  70.676  0.00  0.00     0.028 H 
ENDBRANCH  33  39
ENDBRANCH   7  33
ENDBRANCH   4   7
ENDBRANCH   1   3
BRANCH   1  43
ATOM     43  C15 non d ame      -8.052  10.952  67.928  0.00  0.00     0.240 C 
ATOM     44  O5  non d ame      -7.381  10.865  66.951  0.00  0.00    -0.271 OA
ATOM     45  N6  non d ame      -9.191  11.914  67.960  0.00  0.00    -0.355 N 
ATOM     46  H46 non d ame      -9.771  11.994  68.782  0.00  0.00     0.162 HD
BRANCH  45  47
ATOM     47  C20 non d ame      -9.471  12.758  66.779  0.00  0.00     0.013 C 
ATOM     48  H30 non d ame      -9.113  12.229  65.895  0.00  0.00     0.072 H 
BRANCH  47  49
ATOM     49  C21 non d ame      -8.743  14.075  66.921  0.00  0.00    -0.038 C 
ATOM     50  H31 non d ame      -8.332  14.077  67.930  0.00  0.00     0.036 H 
ATOM     51  H32 non d ame      -8.076  14.138  66.060  0.00  0.00     0.036 H 
BRANCH  49  52
ATOM     52  C22 non d ame      -9.687  15.294  66.832  0.00  0.00     0.018 C 
ATOM     53  H33 non d ame      -9.179  16.015  66.191  0.00  0.00     0.048 H 
ATOM     54  H34 non d ame     -10.658  14.895  66.540  0.00  0.00     0.048 H 
BRANCH  52  55
ATOM     55  C23 non d ame      -9.910  16.014  68.192  0.00  0.00     0.259 C 
ATOM     56  O7  non d ame      -9.478  17.106  68.373  0.00  0.00    -0.265 OA
BRANCH  55  57
ATOM     57  O8  non d ame     -10.626  15.347  69.224  0.00  0.00    -0.317 OA
BRANCH  57  58
ATOM     58  C29 non d ame     -11.935  15.875  69.458  0.00  0.00     0.052 C 
ATOM     59  H47 non d ame     -11.829  16.958  69.411  0.00  0.00     0.082 H 
ATOM     60  H48 non d ame     -12.591  15.361  68.756  0.00  0.00     0.082 H 
BRANCH  58  61
ATOM     61  C35 non d ame     -12.358  15.484  70.900  0.00  0.00    -0.034 A 
ATOM     62  C30 non d ame     -11.980  16.279  71.977  0.00  0.00    -0.075 A 
ATOM     63  C31 non d ame     -12.359  15.927  73.271  0.00  0.00    -0.082 A 
ATOM     64  H49 non d ame     -11.387  17.178  71.807  0.00  0.00     0.084 H 
ATOM     65  C32 non d ame     -13.117  14.773  73.487  0.00  0.00    -0.083 A 
ATOM     66  H50 non d ame     -12.064  16.554  74.113  0.00  0.00     0.083 H 
ATOM     67  C33 non d ame     -13.489  13.980  72.409  0.00  0.00    -0.082 A 
ATOM     68  H51 non d ame     -13.419  14.491  74.496  0.00  0.00     0.083 H 
ATOM     69  C34 non d ame     -13.113  14.330  71.114  0.00  0.00    -0.075 A 
ATOM     70  H52 non d ame     -14.079  13.079  72.581  0.00  0.00     0.083 H 
ATOM     71  H53 non d ame     -13.411  13.703  70.272  0.00  0.00     0.084 H 
ENDBRANCH  58  61
ENDBRANCH  57  58
ENDBRANCH  55  57
ENDBRANCH  52  55
ENDBRANCH  49  52
ENDBRANCH  47  49
BRANCH  47  72
ATOM     72  C24 non d ame     -10.973  13.014  66.672  0.00  0.00    -0.039 C 
ATOM     73  H35 non d ame     -11.397  12.641  67.605  0.00  0.00     0.036 H 
ATOM     74  H36 non d ame     -11.070  14.069  66.413  0.00  0.00     0.036 H 
BRANCH  72  75
ATOM     75  C25 non d ame     -11.636  12.172  65.481  0.00  0.00    -0.001 C 
ATOM     76  C26 non d ame     -10.461  11.440  64.593  0.00  0.00    -0.035 C 
ATOM     77  C27 non d ame     -10.661  11.728  63.285  0.00  0.00     0.085 C 
ATOM     78  H38 non d ame      -9.493  11.890  64.809  0.00  0.00     0.036 H 
ATOM     79  H39 non d ame     -10.581  10.357  64.636  0.00  0.00     0.036 H 
ATOM     80  N5  non d ame     -11.665  12.855  63.229  0.00  0.00    -0.049 N 
ATOM     81  H40 non d ame      -9.700  12.091  62.917  0.00  0.00     0.075 H 
ATOM     82  H41 non d ame     -11.107  10.833  62.854  0.00  0.00     0.075 H 
ATOM     83  C28 non d ame     -12.328  12.931  64.699  0.00  0.00     0.193 C 
ATOM     84  H42 non d ame     -11.138  13.700  63.069  0.00  0.00     0.280 HD
ATOM     85  H43 non d ame     -12.377  12.571  62.571  0.00  0.00     0.280 HD
ATOM     86  H44 non d ame     -13.329  12.540  64.878  0.00  0.00     0.129 H 
ATOM     87  H37 non d ame     -12.459  11.546  65.827  0.00  0.00     0.046 H 
BRANCH  83  88
ATOM     88  O6  non d ame     -12.361  14.285  65.155  0.00  0.00    -0.369 OA
ATOM     89  H45 non d ame     -13.242  14.645  65.024  0.00  0.00     0.212 HD
ENDBRANCH  83  88
ENDBRANCH  72  75
ENDBRANCH  47  72
ENDBRANCH  45  47
ENDBRANCH   1  43
BRANCH   1  90
ATOM     90  C16 non d ame      -6.271   9.687  69.171  0.00  0.00    -0.035 C 
ATOM     91  H21 non d ame      -6.237   8.627  68.913  0.00  0.00     0.037 H 
ATOM     92  H22 non d ame      -5.785  10.420  68.527  0.00  0.00     0.037 H 
BRANCH  90  93
ATOM     93  C17 non d ame      -5.600   9.820  70.575  0.00  0.00    -0.059 C 
ATOM     94  H23 non d ame      -5.975  10.734  71.035  0.00  0.00     0.038 H 
BRANCH  93  95
ATOM     95  C18 non d ame      -5.963   8.628  71.517  0.00  0.00    -0.073 C 
ATOM     96  H24 non d ame      -7.033   8.429  71.456  0.00  0.00     0.028 H 
ATOM     97  H25 non d ame      -5.410   7.740  71.209  0.00  0.00     0.028 H 
ATOM     98  H26 non d ame      -5.698   8.883  72.544  0.00  0.00     0.028 H 
ENDBRANCH  93  95
BRANCH  93  99
ATOM     99  C19 non d ame      -4.081   9.968  70.445  0.00  0.00    -0.073 C 
ATOM    100  H27 non d ame      -3.689  10.472  71.329  0.00  0.00     0.028 H 
ATOM    101  H28 non d ame      -3.628   8.981  70.356  0.00  0.00     0.028 H 
ATOM    102  H29 non d ame      -3.848  10.555  69.557  0.00  0.00     0.028 H 
ENDBRANCH  93  99
ENDBRANCH  90  93
ENDBRANCH   1  90
TORSDOF 26
ENDMDL
MODEL 19
REMARK VINA RESULT:      -5.5      3.765      7.511
REMARK  26 active torsions:
REMARK  status: ('A' for Active; 'I' for Inactive)
REMARK    1  A    between atoms: C2_2  and  C3_3 
REMARK    2  A    between atoms: C4_6  and  C5_7 
REMARK       I    between atoms: C5_7  and  N2_9 
REMARK    3  A    between atoms: N2_9  and  C6_10 
REMARK    4  A    between atoms: C6_10  and  C7_11 
REMARK    5  A    between atoms: C6_10  and  C8_13 
REMARK       I    between atoms: C7_11  and  N3_14 
REMARK    6  A    between atoms: N3_14  and  C9_15 
REMARK    7  A    between atoms: C9_15  and  C10_16 
REMARK    8  A    between atoms: C9_15  and  C11_18 
REMARK       I    between atoms: C10_16  and  N4_21 
REMARK    9  A    between atoms: C11_18  and  C12_19 
REMARK   10  A    between atoms: C11_18  and  C13_20 
REMARK   11  A    between atoms: N4_21  and  C14_22 
REMARK   12  A    between atoms: C14_22  and  C15_23 
REMARK   13  A    between atoms: C14_22  and  C16_25 
REMARK       I    between atoms: C15_23  and  N6_40 
REMARK   14  A    between atoms: C16_25  and  C17_26 
REMARK   15  A    between atoms: C17_26  and  C18_27 
REMARK   16  A    between atoms: C17_26  and  C19_28 
REMARK   17  A    between atoms: C20_29  and  C21_30 
REMARK   18  A    between atoms: C20_29  and  C24_33 
REMARK   19  A    between atoms: C20_29  and  N6_40 
REMARK   20  A    between atoms: C21_30  and  C22_31 
REMARK   21  A    between atoms: C22_31  and  C23_32 
REMARK   22  A    between atoms: C23_32  and  O8_43 
REMARK   23  A    between atoms: C24_33  and  C25_34 
REMARK   24  A    between atoms: C28_38  and  O6_39 
REMARK   25  A    between atoms: C29_42  and  O8_43 
REMARK   26  A    between atoms: C29_42  and  C35_49 
ROOT
ATOM      1  C14 non d ame      -8.471   5.799  67.395  0.00  0.00     0.089 C 
ATOM      2  H20 non d ame      -9.248   5.353  66.773  0.00  0.00     0.087 H 
ENDROOT
BRANCH   1   3
ATOM      3  N4  non d ame      -7.384   6.203  66.515  0.00  0.00    -0.346 N 
ATOM      4  C10 non d ame      -7.396   5.809  65.059  0.00  0.00     0.241 C 
ATOM      5  O4  non d ame      -8.291   5.164  64.619  0.00  0.00    -0.271 OA
ATOM      6  H19 non d ame      -6.631   6.749  66.909  0.00  0.00     0.163 HD
BRANCH   4   7
ATOM      7  C9  non d ame      -6.266   6.240  64.161  0.00  0.00     0.092 C 
ATOM      8  H11 non d ame      -6.491   5.947  63.135  0.00  0.00     0.088 H 
BRANCH   7   9
ATOM      9  N3  non d ame      -6.159   7.703  64.178  0.00  0.00    -0.346 N 
ATOM     10  C7  non d ame      -6.938   8.493  63.259  0.00  0.00     0.240 C 
ATOM     11  O3  non d ame      -7.658   7.971  62.498  0.00  0.00    -0.271 OA
ATOM     12  H10 non d ame      -5.542   8.168  64.829  0.00  0.00     0.163 HD
BRANCH  10  13
ATOM     13  C6  non d ame      -6.816  10.049  63.281  0.00  0.00     0.086 C 
ATOM     14  H6  non d ame      -6.686  10.476  62.287  0.00  0.00     0.086 H 
BRANCH  13  15
ATOM     15  N2  non d ame      -8.046  10.611  63.816  0.00  0.00    -0.343 N 
ATOM     16  C5  non d ame      -9.040  11.176  62.901  0.00  0.00     0.273 C 
ATOM     17  O2  non d ame      -8.840  11.176  61.737  0.00  0.00    -0.266 OA
ATOM     18  H5  non d ame      -8.207  10.609  64.814  0.00  0.00     0.163 HD
BRANCH  16  19
ATOM     19  C4  non d ame     -10.344  11.771  63.454  0.00  0.00     0.154 A 
ATOM     20  C1  non d ame     -10.479  12.893  64.332  0.00  0.00    -0.017 A 
ATOM     21  C2  non d ame     -11.870  13.031  64.535  0.00  0.00     0.077 A 
ATOM     22  H1  non d ame      -9.688  13.513  64.756  0.00  0.00     0.091 H 
ATOM     23  O1  non d ame     -12.456  12.095  63.848  0.00  0.00    -0.218 OA
ATOM     24  N1  non d ame     -11.587  11.347  63.209  0.00  0.00    -0.123 NA
BRANCH  21  25
ATOM     25  C3  non d ame     -12.555  14.083  65.397  0.00  0.00    -0.029 C 
ATOM     26  H2  non d ame     -13.629  14.063  65.211  0.00  0.00     0.036 H 
ATOM     27  H3  non d ame     -12.365  13.871  66.449  0.00  0.00     0.036 H 
ATOM     28  H4  non d ame     -12.162  15.070  65.149  0.00  0.00     0.036 H 
ENDBRANCH  21  25
ENDBRANCH  16  19
ENDBRANCH  13  15
BRANCH  13  29
ATOM     29  C8  non d ame      -5.647  10.453  64.142  0.00  0.00    -0.049 C 
ATOM     30  H7  non d ame      -5.386   9.631  64.809  0.00  0.00     0.030 H 
ATOM     31  H8  non d ame      -4.793  10.692  63.509  0.00  0.00     0.030 H 
ATOM     32  H9  non d ame      -5.917  11.328  64.734  0.00  0.00     0.030 H 
ENDBRANCH  13  29
ENDBRANCH  10  13
ENDBRANCH   7   9
BRANCH   7  33
ATOM     33  C11 non d ame      -4.934   5.618  64.670  0.00  0.00    -0.033 C 
ATOM     34  H12 non d ame      -4.335   5.362  63.797  0.00  0.00     0.042 H 
BRANCH  33  35
ATOM     35  C12 non d ame      -4.115   6.642  65.517  0.00  0.00    -0.071 C 
ATOM     36  H13 non d ame      -3.978   6.253  66.525  0.00  0.00     0.028 H 
ATOM     37  H14 non d ame      -3.142   6.801  65.053  0.00  0.00     0.028 H 
ATOM     38  H15 non d ame      -4.655   7.587  65.562  0.00  0.00     0.028 H 
ENDBRANCH  33  35
BRANCH  33  39
ATOM     39  C13 non d ame      -5.201   4.305  65.474  0.00  0.00    -0.071 C 
ATOM     40  H16 non d ame      -5.687   4.550  66.418  0.00  0.00     0.028 H 
ATOM     41  H17 non d ame      -5.848   3.647  64.892  0.00  0.00     0.028 H 
ATOM     42  H18 non d ame      -4.255   3.801  65.673  0.00  0.00     0.028 H 
ENDBRANCH  33  39
ENDBRANCH   7  33
ENDBRANCH   4   7
ENDBRANCH   1   3
BRANCH   1  43
ATOM     43  C15 non d ame      -8.979   7.053  68.161  0.00  0.00     0.240 C 
ATOM     44  O5  non d ame     -10.034   7.525  67.888  0.00  0.00    -0.271 OA
ATOM     45  N6  non d ame      -8.151   7.662  69.242  0.00  0.00    -0.355 N 
ATOM     46  H46 non d ame      -7.255   7.267  69.485  0.00  0.00     0.162 HD
BRANCH  45  47
ATOM     47  C20 non d ame      -8.649   8.854  69.962  0.00  0.00     0.013 C 
ATOM     48  H30 non d ame      -9.643   9.086  69.581  0.00  0.00     0.072 H 
BRANCH  47  49
ATOM     49  C21 non d ame      -7.715  10.016  69.709  0.00  0.00    -0.038 C 
ATOM     50  H31 non d ame      -8.156  10.866  70.231  0.00  0.00     0.036 H 
ATOM     51  H32 non d ame      -6.722   9.662  69.986  0.00  0.00     0.036 H 
BRANCH  49  52
ATOM     52  C22 non d ame      -7.640  10.411  68.218  0.00  0.00     0.018 C 
ATOM     53  H33 non d ame      -6.879  11.190  68.157  0.00  0.00     0.048 H 
ATOM     54  H34 non d ame      -7.508   9.477  67.672  0.00  0.00     0.048 H 
BRANCH  52  55
ATOM     55  C23 non d ame      -8.948  11.046  67.671  0.00  0.00     0.259 C 
ATOM     56  O7  non d ame      -9.383  10.715  66.616  0.00  0.00    -0.265 OA
BRANCH  55  57
ATOM     57  O8  non d ame      -9.615  12.040  68.440  0.00  0.00    -0.317 OA
BRANCH  57  58
ATOM     58  C29 non d ame     -11.021  12.123  68.190  0.00  0.00     0.052 C 
ATOM     59  H47 non d ame     -11.224  13.174  67.990  0.00  0.00     0.082 H 
ATOM     60  H48 non d ame     -11.229  11.373  67.426  0.00  0.00     0.082 H 
BRANCH  58  61
ATOM     61  C35 non d ame     -11.763  11.717  69.491  0.00  0.00    -0.034 A 
ATOM     62  C30 non d ame     -11.847  10.378  69.858  0.00  0.00    -0.075 A 
ATOM     63  C31 non d ame     -12.513  10.014  71.027  0.00  0.00    -0.082 A 
ATOM     64  H49 non d ame     -11.389   9.613  69.230  0.00  0.00     0.084 H 
ATOM     65  C32 non d ame     -13.102  10.996  71.828  0.00  0.00    -0.083 A 
ATOM     66  H50 non d ame     -12.574   8.964  71.313  0.00  0.00     0.083 H 
ATOM     67  C33 non d ame     -13.020  12.331  71.456  0.00  0.00    -0.082 A 
ATOM     68  H51 non d ame     -13.624  10.720  72.745  0.00  0.00     0.083 H 
ATOM     69  C34 non d ame     -12.352  12.699  70.290  0.00  0.00    -0.075 A 
ATOM     70  H52 non d ame     -13.482  13.094  72.084  0.00  0.00     0.083 H 
ATOM     71  H53 non d ame     -12.291  13.750  70.006  0.00  0.00     0.084 H 
ENDBRANCH  58  61
ENDBRANCH  57  58
ENDBRANCH  55  57
ENDBRANCH  52  55
ENDBRANCH  49  52
ENDBRANCH  47  49
BRANCH  47  72
ATOM     72  C24 non d ame      -8.709   8.564  71.460  0.00  0.00    -0.039 C 
ATOM     73  H35 non d ame      -7.679   8.370  71.760  0.00  0.00     0.036 H 
ATOM     74  H36 non d ame      -9.254   9.402  71.896  0.00  0.00     0.036 H 
BRANCH  72  75
ATOM     75  C25 non d ame      -9.550   7.237  71.775  0.00  0.00    -0.001 C 
ATOM     76  C26 non d ame     -10.625   7.530  72.984  0.00  0.00    -0.035 C 
ATOM     77  C27 non d ame     -10.483   6.575  73.934  0.00  0.00     0.085 C 
ATOM     78  H38 non d ame     -10.360   8.449  73.506  0.00  0.00     0.036 H 
ATOM     79  H39 non d ame     -11.643   7.382  72.624  0.00  0.00     0.036 H 
ATOM     80  N5  non d ame      -9.192   5.849  73.641  0.00  0.00    -0.049 N 
ATOM     81  H40 non d ame     -10.382   7.114  74.877  0.00  0.00     0.075 H 
ATOM     82  H41 non d ame     -11.317   5.890  73.785  0.00  0.00     0.075 H 
ATOM     83  C28 non d ame      -8.778   6.268  72.138  0.00  0.00     0.193 C 
ATOM     84  H42 non d ame      -8.504   6.221  74.279  0.00  0.00     0.280 HD
ATOM     85  H43 non d ame      -9.409   4.863  73.651  0.00  0.00     0.280 HD
ATOM     86  H44 non d ame      -8.925   5.576  71.309  0.00  0.00     0.129 H 
ATOM     87  H37 non d ame      -9.938   6.771  70.869  0.00  0.00     0.046 H 
BRANCH  83  88
ATOM     88  O6  non d ame      -7.398   6.633  72.090  0.00  0.00    -0.369 OA
ATOM     89  H45 non d ame      -7.173   6.917  71.200  0.00  0.00     0.212 HD
ENDBRANCH  83  88
ENDBRANCH  72  75
ENDBRANCH  47  72
ENDBRANCH  45  47
ENDBRANCH   1  43
BRANCH   1  90
ATOM     90  C16 non d ame      -7.950   4.771  68.386  0.00  0.00    -0.035 C 
ATOM     91  H21 non d ame      -6.931   5.083  68.617  0.00  0.00     0.037 H 
ATOM     92  H22 non d ame      -8.699   4.727  69.176  0.00  0.00     0.037 H 
BRANCH  90  93
ATOM     93  C17 non d ame      -7.845   3.328  67.796  0.00  0.00    -0.059 C 
ATOM     94  H23 non d ame      -7.250   3.386  66.885  0.00  0.00     0.038 H 
BRANCH  93  95
ATOM     95  C18 non d ame      -7.127   2.343  68.772  0.00  0.00    -0.073 C 
ATOM     96  H24 non d ame      -7.022   1.369  68.292  0.00  0.00     0.028 H 
ATOM     97  H25 non d ame      -6.141   2.733  69.021  0.00  0.00     0.028 H 
ATOM     98  H26 non d ame      -7.718   2.238  69.682  0.00  0.00     0.028 H 
ENDBRANCH  93  95
BRANCH  93  99
ATOM     99  C19 non d ame      -9.226   2.796  67.403  0.00  0.00    -0.073 C 
ATOM    100  H27 non d ame      -9.947   3.615  67.410  0.00  0.00     0.028 H 
ATOM    101  H28 non d ame      -9.177   2.363  66.403  0.00  0.00     0.028 H 
ATOM    102  H29 non d ame      -9.537   2.031  68.114  0.00  0.00     0.028 H 
ENDBRANCH  93  99
ENDBRANCH  90  93
ENDBRANCH   1  90
TORSDOF 26
ENDMDL
MODEL 20
REMARK VINA RESULT:      -5.4      2.246      9.688
REMARK  26 active torsions:
REMARK  status: ('A' for Active; 'I' for Inactive)
REMARK    1  A    between atoms: C2_2  and  C3_3 
REMARK    2  A    between atoms: C4_6  and  C5_7 
REMARK       I    between atoms: C5_7  and  N2_9 
REMARK    3  A    between atoms: N2_9  and  C6_10 
REMARK    4  A    between atoms: C6_10  and  C7_11 
REMARK    5  A    between atoms: C6_10  and  C8_13 
REMARK       I    between atoms: C7_11  and  N3_14 
REMARK    6  A    between atoms: N3_14  and  C9_15 
REMARK    7  A    between atoms: C9_15  and  C10_16 
REMARK    8  A    between atoms: C9_15  and  C11_18 
REMARK       I    between atoms: C10_16  and  N4_21 
REMARK    9  A    between atoms: C11_18  and  C12_19 
REMARK   10  A    between atoms: C11_18  and  C13_20 
REMARK   11  A    between atoms: N4_21  and  C14_22 
REMARK   12  A    between atoms: C14_22  and  C15_23 
REMARK   13  A    between atoms: C14_22  and  C16_25 
REMARK       I    between atoms: C15_23  and  N6_40 
REMARK   14  A    between atoms: C16_25  and  C17_26 
REMARK   15  A    between atoms: C17_26  and  C18_27 
REMARK   16  A    between atoms: C17_26  and  C19_28 
REMARK   17  A    between atoms: C20_29  and  C21_30 
REMARK   18  A    between atoms: C20_29  and  C24_33 
REMARK   19  A    between atoms: C20_29  and  N6_40 
REMARK   20  A    between atoms: C21_30  and  C22_31 
REMARK   21  A    between atoms: C22_31  and  C23_32 
REMARK   22  A    between atoms: C23_32  and  O8_43 
REMARK   23  A    between atoms: C24_33  and  C25_34 
REMARK   24  A    between atoms: C28_38  and  O6_39 
REMARK   25  A    between atoms: C29_42  and  O8_43 
REMARK   26  A    between atoms: C29_42  and  C35_49 
ROOT
ATOM      1  C14 non d ame      -8.618   9.456  64.590  0.00  0.00     0.089 C 
ATOM      2  H20 non d ame      -7.578   9.670  64.841  0.00  0.00     0.087 H 
ENDROOT
BRANCH   1   3
ATOM      3  N4  non d ame      -9.013   8.269  65.333  0.00  0.00    -0.346 N 
ATOM      4  C10 non d ame      -7.970   7.300  65.831  0.00  0.00     0.241 C 
ATOM      5  O4  non d ame      -6.818   7.496  65.618  0.00  0.00    -0.271 OA
ATOM      6  H19 non d ame      -9.998   8.118  65.501  0.00  0.00     0.163 HD
BRANCH   4   7
ATOM      7  C9  non d ame      -8.395   6.079  66.602  0.00  0.00     0.092 C 
ATOM      8  H11 non d ame      -7.690   5.269  66.412  0.00  0.00     0.088 H 
BRANCH   7   9
ATOM      9  N3  non d ame      -8.345   6.366  68.040  0.00  0.00    -0.346 N 
ATOM     10  C7  non d ame      -7.142   6.099  68.786  0.00  0.00     0.240 C 
ATOM     11  O3  non d ame      -6.203   5.652  68.249  0.00  0.00    -0.271 OA
ATOM     12  H10 non d ame      -9.148   6.752  68.518  0.00  0.00     0.163 HD
BRANCH  10  13
ATOM     13  C6  non d ame      -7.096   6.405  70.316  0.00  0.00     0.086 C 
ATOM     14  H6  non d ame      -6.478   7.270  70.556  0.00  0.00     0.086 H 
BRANCH  13  15
ATOM     15  N2  non d ame      -8.441   6.714  70.775  0.00  0.00    -0.343 N 
ATOM     16  C5  non d ame      -8.814   8.108  71.028  0.00  0.00     0.273 C 
ATOM     17  O2  non d ame      -8.025   8.971  70.862  0.00  0.00    -0.266 OA
ATOM     18  H5  non d ame      -9.108   5.969  70.917  0.00  0.00     0.163 HD
BRANCH  16  19
ATOM     19  C4  non d ame     -10.232   8.449  71.512  0.00  0.00     0.154 A 
ATOM     20  C1  non d ame     -11.057   9.535  71.077  0.00  0.00    -0.017 A 
ATOM     21  C2  non d ame     -12.250   9.405  71.820  0.00  0.00     0.077 A 
ATOM     22  H1  non d ame     -10.825  10.299  70.335  0.00  0.00     0.091 H 
ATOM     23  O1  non d ame     -12.118   8.363  72.587  0.00  0.00    -0.218 OA
ATOM     24  N1  non d ame     -10.948   7.788  72.425  0.00  0.00    -0.123 NA
BRANCH  21  25
ATOM     25  C3  non d ame     -13.468  10.316  71.736  0.00  0.00    -0.029 C 
ATOM     26  H2  non d ame     -14.254   9.821  71.166  0.00  0.00     0.036 H 
ATOM     27  H3  non d ame     -13.830  10.533  72.741  0.00  0.00     0.036 H 
ATOM     28  H4  non d ame     -13.192  11.248  71.241  0.00  0.00     0.036 H 
ENDBRANCH  21  25
ENDBRANCH  16  19
ENDBRANCH  13  15
BRANCH  13  29
ATOM     29  C8  non d ame      -6.562   5.205  71.056  0.00  0.00    -0.049 C 
ATOM     30  H7  non d ame      -7.216   4.977  71.899  0.00  0.00     0.030 H 
ATOM     31  H8  non d ame      -6.526   4.349  70.383  0.00  0.00     0.030 H 
ATOM     32  H9  non d ame      -5.559   5.422  71.423  0.00  0.00     0.030 H 
ENDBRANCH  13  29
ENDBRANCH  10  13
ENDBRANCH   7   9
BRANCH   7  33
ATOM     33  C11 non d ame      -9.850   5.694  66.203  0.00  0.00    -0.033 C 
ATOM     34  H12 non d ame     -10.142   6.332  65.371  0.00  0.00     0.042 H 
BRANCH  33  35
ATOM     35  C12 non d ame      -9.932   4.215  65.711  0.00  0.00    -0.071 C 
ATOM     36  H13 non d ame     -10.966   3.969  65.469  0.00  0.00     0.028 H 
ATOM     37  H14 non d ame      -9.312   4.092  64.824  0.00  0.00     0.028 H 
ATOM     38  H15 non d ame      -9.576   3.552  66.499  0.00  0.00     0.028 H 
ENDBRANCH  33  35
BRANCH  33  39
ATOM     39  C13 non d ame     -10.841   5.953  67.383  0.00  0.00    -0.071 C 
ATOM     40  H16 non d ame     -11.206   6.978  67.331  0.00  0.00     0.028 H 
ATOM     41  H17 non d ame     -11.683   5.263  67.309  0.00  0.00     0.028 H 
ATOM     42  H18 non d ame     -10.326   5.797  68.331  0.00  0.00     0.028 H 
ENDBRANCH  33  39
ENDBRANCH   7  33
ENDBRANCH   4   7
ENDBRANCH   1   3
BRANCH   1  43
ATOM     43  C15 non d ame      -9.569  10.623  64.980  0.00  0.00     0.240 C 
ATOM     44  O5  non d ame     -10.663  10.674  64.519  0.00  0.00    -0.271 OA
ATOM     45  N6  non d ame      -9.119  11.673  65.939  0.00  0.00    -0.355 N 
ATOM     46  H46 non d ame      -8.194  11.637  66.341  0.00  0.00     0.162 HD
BRANCH  45  47
ATOM     47  C20 non d ame     -10.036  12.775  66.302  0.00  0.00     0.013 C 
ATOM     48  H30 non d ame     -11.058  12.421  66.164  0.00  0.00     0.072 H 
BRANCH  47  49
ATOM     49  C21 non d ame      -9.775  13.960  65.399  0.00  0.00    -0.038 C 
ATOM     50  H31 non d ame      -9.112  14.617  65.961  0.00  0.00     0.036 H 
ATOM     51  H32 non d ame      -9.449  13.539  64.448  0.00  0.00     0.036 H 
BRANCH  49  52
ATOM     52  C22 non d ame     -11.050  14.778  65.101  0.00  0.00     0.018 C 
ATOM     53  H33 non d ame     -11.298  14.570  64.060  0.00  0.00     0.048 H 
ATOM     54  H34 non d ame     -11.757  14.522  65.890  0.00  0.00     0.048 H 
BRANCH  52  55
ATOM     55  C23 non d ame     -10.844  16.316  65.193  0.00  0.00     0.259 C 
ATOM     56  O7  non d ame     -11.244  17.030  64.331  0.00  0.00    -0.265 OA
BRANCH  55  57
ATOM     57  O8  non d ame     -10.158  16.861  66.313  0.00  0.00    -0.317 OA
BRANCH  57  58
ATOM     58  C29 non d ame     -10.405  18.254  66.524  0.00  0.00     0.052 C 
ATOM     59  H47 non d ame     -10.621  18.668  65.540  0.00  0.00     0.082 H 
ATOM     60  H48 non d ame     -11.155  18.304  67.313  0.00  0.00     0.082 H 
BRANCH  58  61
ATOM     61  C35 non d ame      -9.095  18.898  67.052  0.00  0.00    -0.034 A 
ATOM     62  C30 non d ame      -8.295  19.651  66.199  0.00  0.00    -0.075 A 
ATOM     63  C31 non d ame      -7.119  20.229  66.673  0.00  0.00    -0.082 A 
ATOM     64  H49 non d ame      -8.591  19.789  65.158  0.00  0.00     0.084 H 
ATOM     65  C32 non d ame      -6.741  20.048  68.006  0.00  0.00    -0.083 A 
ATOM     66  H50 non d ame      -6.496  20.821  66.002  0.00  0.00     0.083 H 
ATOM     67  C33 non d ame      -7.540  19.292  68.854  0.00  0.00    -0.082 A 
ATOM     68  H51 non d ame      -5.823  20.497  68.385  0.00  0.00     0.083 H 
ATOM     69  C34 non d ame      -8.718  18.715  68.384  0.00  0.00    -0.075 A 
ATOM     70  H52 non d ame      -7.241  19.152  69.893  0.00  0.00     0.083 H 
ATOM     71  H53 non d ame      -9.341  18.124  69.056  0.00  0.00     0.084 H 
ENDBRANCH  58  61
ENDBRANCH  57  58
ENDBRANCH  55  57
ENDBRANCH  52  55
ENDBRANCH  49  52
ENDBRANCH  47  49
BRANCH  47  72
ATOM     72  C24 non d ame      -9.806  13.180  67.756  0.00  0.00    -0.039 C 
ATOM     73  H35 non d ame     -10.717  13.696  68.061  0.00  0.00     0.036 H 
ATOM     74  H36 non d ame      -9.500  12.267  68.267  0.00  0.00     0.036 H 
BRANCH  72  75
ATOM     75  C25 non d ame      -8.601  14.226  67.897  0.00  0.00    -0.001 C 
ATOM     76  C26 non d ame      -7.180  13.421  68.087  0.00  0.00    -0.035 C 
ATOM     77  C27 non d ame      -6.538  13.919  69.171  0.00  0.00     0.085 C 
ATOM     78  H38 non d ame      -7.371  12.383  68.358  0.00  0.00     0.036 H 
ATOM     79  H39 non d ame      -6.505  13.653  67.263  0.00  0.00     0.036 H 
ATOM     80  N5  non d ame      -7.537  14.761  69.927  0.00  0.00    -0.049 N 
ATOM     81  H40 non d ame      -6.274  13.051  69.777  0.00  0.00     0.075 H 
ATOM     82  H41 non d ame      -5.756  14.565  68.775  0.00  0.00     0.075 H 
ATOM     83  C28 non d ame      -8.771  15.003  68.915  0.00  0.00     0.193 C 
ATOM     84  H42 non d ame      -7.860  14.197  70.699  0.00  0.00     0.280 HD
ATOM     85  H43 non d ame      -7.088  15.648  70.103  0.00  0.00     0.280 HD
ATOM     86  H44 non d ame      -8.897  15.962  68.413  0.00  0.00     0.129 H 
ATOM     87  H37 non d ame      -8.634  15.000  67.129  0.00  0.00     0.046 H 
BRANCH  83  88
ATOM     88  O6  non d ame     -10.011  14.754  69.580  0.00  0.00    -0.369 OA
ATOM     89  H45 non d ame     -10.220  15.495  70.154  0.00  0.00     0.212 HD
ENDBRANCH  83  88
ENDBRANCH  72  75
ENDBRANCH  47  72
ENDBRANCH  45  47
ENDBRANCH   1  43
BRANCH   1  90
ATOM     90  C16 non d ame      -8.740   9.173  63.101  0.00  0.00    -0.035 C 
ATOM     91  H21 non d ame      -8.766   8.086  63.015  0.00  0.00     0.037 H 
ATOM     92  H22 non d ame      -9.589   9.767  62.763  0.00  0.00     0.037 H 
BRANCH  90  93
ATOM     93  C17 non d ame      -7.508   9.651  62.269  0.00  0.00    -0.059 C 
ATOM     94  H23 non d ame      -7.198   8.823  61.632  0.00  0.00     0.038 H 
BRANCH  93  95
ATOM     95  C18 non d ame      -7.855  10.861  61.343  0.00  0.00    -0.073 C 
ATOM     96  H24 non d ame      -7.209  10.843  60.466  0.00  0.00     0.028 H 
ATOM     97  H25 non d ame      -8.896  10.790  61.029  0.00  0.00     0.028 H 
ATOM     98  H26 non d ame      -7.702  11.792  61.889  0.00  0.00     0.028 H 
ENDBRANCH  93  95
BRANCH  93  99
ATOM     99  C19 non d ame      -6.326   9.987  63.183  0.00  0.00    -0.073 C 
ATOM    100  H27 non d ame      -5.468   9.374  62.907  0.00  0.00     0.028 H 
ATOM    101  H28 non d ame      -6.071  11.041  63.073  0.00  0.00     0.028 H 
ATOM    102  H29 non d ame      -6.600   9.787  64.219  0.00  0.00     0.028 H 
ENDBRANCH  93  99
ENDBRANCH  90  93
ENDBRANCH   1  90
TORSDOF 26
ENDMDL
