MODEL 1
REMARK VINA RESULT:      -6.5      0.000      0.000
REMARK  26 active torsions:
REMARK  status: ('A' for Active; 'I' for Inactive)
REMARK    1  A    between atoms: C2_2  and  C3_3 
REMARK    2  A    between atoms: C4_6  and  C5_7 
REMARK       I    between atoms: C5_7  and  N2_9 
REMARK    3  A    between atoms: N2_9  and  C6_10 
REMARK    4  A    between atoms: C6_10  and  C7_11 
REMARK    5  A    between atoms: C6_10  and  C8_13 
REMARK       I    between atoms: C7_11  and  N3_14 
REMARK    6  A    between atoms: N3_14  and  C9_15 
REMARK    7  A    between atoms: C9_15  and  C10_16 
REMARK    8  A    between atoms: C9_15  and  C11_18 
REMARK       I    between atoms: C10_16  and  N4_21 
REMARK    9  A    between atoms: C11_18  and  C12_19 
REMARK   10  A    between atoms: C11_18  and  C13_20 
REMARK   11  A    between atoms: N4_21  and  C14_22 
REMARK   12  A    between atoms: C14_22  and  C15_23 
REMARK   13  A    between atoms: C14_22  and  C16_25 
REMARK       I    between atoms: C15_23  and  N6_40 
REMARK   14  A    between atoms: C16_25  and  C17_26 
REMARK   15  A    between atoms: C17_26  and  C18_27 
REMARK   16  A    between atoms: C17_26  and  C19_28 
REMARK   17  A    between atoms: C20_29  and  C21_30 
REMARK   18  A    between atoms: C20_29  and  C24_33 
REMARK   19  A    between atoms: C20_29  and  N6_40 
REMARK   20  A    between atoms: C21_30  and  C22_31 
REMARK   21  A    between atoms: C22_31  and  C23_32 
REMARK   22  A    between atoms: C23_32  and  O8_43 
REMARK   23  A    between atoms: C24_33  and  C25_34 
REMARK   24  A    between atoms: C28_38  and  O6_39 
REMARK   25  A    between atoms: C29_42  and  O8_43 
REMARK   26  A    between atoms: C29_42  and  C35_49 
ROOT
ATOM      1  C14 non d ame      -5.632  13.791  68.997  0.00  0.00     0.089 C 
ATOM      2  H20 non d ame      -4.648  13.860  68.529  0.00  0.00     0.087 H 
ENDROOT
BRANCH   1   3
ATOM      3  N4  non d ame      -6.238  15.113  68.939  0.00  0.00    -0.346 N 
ATOM      4  C10 non d ame      -5.735  16.139  67.954  0.00  0.00     0.241 C 
ATOM      5  O4  non d ame      -4.840  15.878  67.219  0.00  0.00    -0.271 OA
ATOM      6  H19 non d ame      -6.996  15.316  69.574  0.00  0.00     0.163 HD
BRANCH   4   7
ATOM      7  C9  non d ame      -6.377  17.500  67.904  0.00  0.00     0.092 C 
ATOM      8  H11 non d ame      -5.923  18.082  67.102  0.00  0.00     0.088 H 
BRANCH   7   9
ATOM      9  N3  non d ame      -7.801  17.358  67.582  0.00  0.00    -0.346 N 
ATOM     10  C7  non d ame      -8.372  18.111  66.494  0.00  0.00     0.240 C 
ATOM     11  O3  non d ame      -7.703  18.837  65.866  0.00  0.00    -0.271 OA
ATOM     12  H10 non d ame      -8.392  16.736  68.115  0.00  0.00     0.163 HD
BRANCH  10  13
ATOM     13  C6  non d ame      -9.889  17.958  66.158  0.00  0.00     0.086 C 
ATOM     14  H6  non d ame     -10.151  18.380  65.188  0.00  0.00     0.086 H 
BRANCH  13  15
ATOM     15  N2  non d ame     -10.217  16.543  66.098  0.00  0.00    -0.343 N 
ATOM     16  C5  non d ame     -10.990  16.028  64.966  0.00  0.00     0.273 C 
ATOM     17  O2  non d ame     -11.346  16.761  64.110  0.00  0.00    -0.266 OA
ATOM     18  H5  non d ame      -9.911  15.924  66.836  0.00  0.00     0.163 HD
BRANCH  16  19
ATOM     19  C4  non d ame     -11.343  14.535  64.889  0.00  0.00     0.154 A 
ATOM     20  C1  non d ame     -10.521  13.476  64.387  0.00  0.00    -0.017 A 
ATOM     21  C2  non d ame     -11.301  12.308  64.539  0.00  0.00     0.077 A 
ATOM     22  H1  non d ame      -9.514  13.545  63.976  0.00  0.00     0.091 H 
ATOM     23  O1  non d ame     -12.434  12.664  65.069  0.00  0.00    -0.218 OA
ATOM     24  N1  non d ame     -12.483  13.959  65.283  0.00  0.00    -0.123 NA
BRANCH  21  25
ATOM     25  C3  non d ame     -10.888  10.893  64.154  0.00  0.00    -0.029 C 
ATOM     26  H2  non d ame      -9.814  10.775  64.301  0.00  0.00     0.036 H 
ATOM     27  H3  non d ame     -11.421  10.177  64.779  0.00  0.00     0.036 H 
ATOM     28  H4  non d ame     -11.133  10.715  63.106  0.00  0.00     0.036 H 
ENDBRANCH  21  25
ENDBRANCH  16  19
ENDBRANCH  13  15
BRANCH  13  29
ATOM     29  C8  non d ame     -10.713  18.634  67.223  0.00  0.00    -0.049 C 
ATOM     30  H7  non d ame     -11.766  18.610  66.938  0.00  0.00     0.030 H 
ATOM     31  H8  non d ame     -10.582  18.114  68.171  0.00  0.00     0.030 H 
ATOM     32  H9  non d ame     -10.391  19.670  67.329  0.00  0.00     0.030 H 
ENDBRANCH  13  29
ENDBRANCH  10  13
ENDBRANCH   7   9
BRANCH   7  33
ATOM     33  C11 non d ame      -6.228  18.195  69.289  0.00  0.00    -0.033 C 
ATOM     34  H12 non d ame      -6.861  17.660  69.995  0.00  0.00     0.042 H 
BRANCH  33  35
ATOM     35  C12 non d ame      -4.761  18.108  69.813  0.00  0.00    -0.071 C 
ATOM     36  H13 non d ame      -4.221  19.012  69.534  0.00  0.00     0.028 H 
ATOM     37  H14 non d ame      -4.768  18.009  70.898  0.00  0.00     0.028 H 
ATOM     38  H15 non d ame      -4.270  17.241  69.372  0.00  0.00     0.028 H 
ENDBRANCH  33  35
BRANCH  33  39
ATOM     39  C13 non d ame      -6.719  19.677  69.227  0.00  0.00    -0.071 C 
ATOM     40  H16 non d ame      -6.052  20.254  68.587  0.00  0.00     0.028 H 
ATOM     41  H17 non d ame      -7.730  19.708  68.819  0.00  0.00     0.028 H 
ATOM     42  H18 non d ame      -6.719  20.103  70.230  0.00  0.00     0.028 H 
ENDBRANCH  33  39
ENDBRANCH   7  33
ENDBRANCH   4   7
ENDBRANCH   1   3
BRANCH   1  43
ATOM     43  C15 non d ame      -6.563  12.787  68.260  0.00  0.00     0.240 C 
ATOM     44  O5  non d ame      -6.368  12.528  67.117  0.00  0.00    -0.271 OA
ATOM     45  N6  non d ame      -7.696  12.141  68.983  0.00  0.00    -0.355 N 
ATOM     46  H46 non d ame      -7.869  12.350  69.955  0.00  0.00     0.162 HD
BRANCH  45  47
ATOM     47  C20 non d ame      -8.573  11.188  68.268  0.00  0.00     0.013 C 
ATOM     48  H30 non d ame      -7.959  10.635  67.558  0.00  0.00     0.072 H 
BRANCH  47  49
ATOM     49  C21 non d ame      -9.649  11.954  67.532  0.00  0.00    -0.038 C 
ATOM     50  H31 non d ame      -9.124  12.690  66.925  0.00  0.00     0.036 H 
ATOM     51  H32 non d ame     -10.274  11.198  67.055  0.00  0.00     0.036 H 
BRANCH  49  52
ATOM     52  C22 non d ame     -10.573  12.749  68.480  0.00  0.00     0.018 C 
ATOM     53  H33 non d ame     -11.587  12.579  68.117  0.00  0.00     0.048 H 
ATOM     54  H34 non d ame     -10.297  12.442  69.489  0.00  0.00     0.048 H 
BRANCH  52  55
ATOM     55  C23 non d ame     -10.352  14.287  68.426  0.00  0.00     0.259 C 
ATOM     56  O7  non d ame      -9.276  14.734  68.192  0.00  0.00    -0.265 OA
BRANCH  55  57
ATOM     57  O8  non d ame     -11.450  15.157  68.672  0.00  0.00    -0.317 OA
BRANCH  57  58
ATOM     58  C29 non d ame     -11.216  16.109  69.715  0.00  0.00     0.052 C 
ATOM     59  H47 non d ame     -10.143  16.081  69.903  0.00  0.00     0.082 H 
ATOM     60  H48 non d ame     -11.687  17.033  69.382  0.00  0.00     0.082 H 
BRANCH  58  61
ATOM     61  C35 non d ame     -11.951  15.613  70.988  0.00  0.00    -0.034 A 
ATOM     62  C30 non d ame     -12.740  14.469  70.938  0.00  0.00    -0.075 A 
ATOM     63  C31 non d ame     -13.401  14.025  72.082  0.00  0.00    -0.082 A 
ATOM     64  H49 non d ame     -12.841  13.920  70.001  0.00  0.00     0.084 H 
ATOM     65  C32 non d ame     -13.273  14.732  73.280  0.00  0.00    -0.083 A 
ATOM     66  H50 non d ame     -14.016  13.126  72.039  0.00  0.00     0.083 H 
ATOM     67  C33 non d ame     -12.487  15.876  73.326  0.00  0.00    -0.082 A 
ATOM     68  H51 non d ame     -13.785  14.391  74.180  0.00  0.00     0.083 H 
ATOM     69  C34 non d ame     -11.823  16.322  72.185  0.00  0.00    -0.075 A 
ATOM     70  H52 non d ame     -12.391  16.426  74.262  0.00  0.00     0.083 H 
ATOM     71  H53 non d ame     -11.207  17.221  72.229  0.00  0.00     0.084 H 
ENDBRANCH  58  61
ENDBRANCH  57  58
ENDBRANCH  55  57
ENDBRANCH  52  55
ENDBRANCH  49  52
ENDBRANCH  47  49
BRANCH  47  72
ATOM     72  C24 non d ame      -9.220  10.233  69.269  0.00  0.00    -0.039 C 
ATOM     73  H35 non d ame      -8.558  10.229  70.135  0.00  0.00     0.036 H 
ATOM     74  H36 non d ame     -10.250  10.575  69.372  0.00  0.00     0.036 H 
BRANCH  72  75
ATOM     75  C25 non d ame      -9.273   8.733  68.708  0.00  0.00    -0.001 C 
ATOM     76  C26 non d ame      -8.672   8.686  67.178  0.00  0.00    -0.035 C 
ATOM     77  C27 non d ame      -9.563   8.052  66.379  0.00  0.00     0.085 C 
ATOM     78  H38 non d ame      -8.628   9.692  66.763  0.00  0.00     0.036 H 
ATOM     79  H39 non d ame      -7.794   8.042  67.141  0.00  0.00     0.036 H 
ATOM     80  N5  non d ame     -10.857   7.953  67.152  0.00  0.00    -0.049 N 
ATOM     81  H40 non d ame      -9.710   8.712  65.524  0.00  0.00     0.075 H 
ATOM     82  H41 non d ame      -9.161   7.050  66.232  0.00  0.00     0.075 H 
ATOM     83  C28 non d ame     -10.483   8.283  68.688  0.00  0.00     0.193 C 
ATOM     84  H42 non d ame     -11.456   8.686  66.802  0.00  0.00     0.280 HD
ATOM     85  H43 non d ame     -11.152   6.989  67.095  0.00  0.00     0.280 HD
ATOM     86  H44 non d ame     -10.411   7.485  69.425  0.00  0.00     0.129 H 
ATOM     87  H37 non d ame      -8.872   8.012  69.421  0.00  0.00     0.046 H 
BRANCH  83  88
ATOM     88  O6  non d ame     -11.415   9.221  69.231  0.00  0.00    -0.369 OA
ATOM     89  H45 non d ame     -12.072   8.753  69.752  0.00  0.00     0.212 HD
ENDBRANCH  83  88
ENDBRANCH  72  75
ENDBRANCH  47  72
ENDBRANCH  45  47
ENDBRANCH   1  43
BRANCH   1  90
ATOM     90  C16 non d ame      -5.482  13.377  70.451  0.00  0.00    -0.035 C 
ATOM     91  H21 non d ame      -5.871  14.215  71.032  0.00  0.00     0.037 H 
ATOM     92  H22 non d ame      -5.957  12.399  70.523  0.00  0.00     0.037 H 
BRANCH  90  93
ATOM     93  C17 non d ame      -3.999  13.181  70.899  0.00  0.00    -0.059 C 
ATOM     94  H23 non d ame      -3.957  12.288  71.522  0.00  0.00     0.038 H 
BRANCH  93  95
ATOM     95  C18 non d ame      -3.041  12.960  69.685  0.00  0.00    -0.073 C 
ATOM     96  H24 non d ame      -3.271  13.686  68.904  0.00  0.00     0.028 H 
ATOM     97  H25 non d ame      -2.008  13.091  70.009  0.00  0.00     0.028 H 
ATOM     98  H26 non d ame      -3.175  11.951  69.295  0.00  0.00     0.028 H 
ENDBRANCH  93  95
BRANCH  93  99
ATOM     99  C19 non d ame      -3.526  14.357  71.758  0.00  0.00    -0.073 C 
ATOM    100  H27 non d ame      -3.567  15.275  71.171  0.00  0.00     0.028 H 
ATOM    101  H28 non d ame      -4.176  14.453  72.629  0.00  0.00     0.028 H 
ATOM    102  H29 non d ame      -2.503  14.179  72.087  0.00  0.00     0.028 H 
ENDBRANCH  93  99
ENDBRANCH  90  93
ENDBRANCH   1  90
TORSDOF 26
ENDMDL
MODEL 2
REMARK VINA RESULT:      -6.2      3.163      8.078
REMARK  26 active torsions:
REMARK  status: ('A' for Active; 'I' for Inactive)
REMARK    1  A    between atoms: C2_2  and  C3_3 
REMARK    2  A    between atoms: C4_6  and  C5_7 
REMARK       I    between atoms: C5_7  and  N2_9 
REMARK    3  A    between atoms: N2_9  and  C6_10 
REMARK    4  A    between atoms: C6_10  and  C7_11 
REMARK    5  A    between atoms: C6_10  and  C8_13 
REMARK       I    between atoms: C7_11  and  N3_14 
REMARK    6  A    between atoms: N3_14  and  C9_15 
REMARK    7  A    between atoms: C9_15  and  C10_16 
REMARK    8  A    between atoms: C9_15  and  C11_18 
REMARK       I    between atoms: C10_16  and  N4_21 
REMARK    9  A    between atoms: C11_18  and  C12_19 
REMARK   10  A    between atoms: C11_18  and  C13_20 
REMARK   11  A    between atoms: N4_21  and  C14_22 
REMARK   12  A    between atoms: C14_22  and  C15_23 
REMARK   13  A    between atoms: C14_22  and  C16_25 
REMARK       I    between atoms: C15_23  and  N6_40 
REMARK   14  A    between atoms: C16_25  and  C17_26 
REMARK   15  A    between atoms: C17_26  and  C18_27 
REMARK   16  A    between atoms: C17_26  and  C19_28 
REMARK   17  A    between atoms: C20_29  and  C21_30 
REMARK   18  A    between atoms: C20_29  and  C24_33 
REMARK   19  A    between atoms: C20_29  and  N6_40 
REMARK   20  A    between atoms: C21_30  and  C22_31 
REMARK   21  A    between atoms: C22_31  and  C23_32 
REMARK   22  A    between atoms: C23_32  and  O8_43 
REMARK   23  A    between atoms: C24_33  and  C25_34 
REMARK   24  A    between atoms: C28_38  and  O6_39 
REMARK   25  A    between atoms: C29_42  and  O8_43 
REMARK   26  A    between atoms: C29_42  and  C35_49 
ROOT
ATOM      1  C14 non d ame     -10.778   9.164  69.391  0.00  0.00     0.089 C 
ATOM      2  H20 non d ame     -11.628   8.481  69.365  0.00  0.00     0.087 H 
ENDROOT
BRANCH   1   3
ATOM      3  N4  non d ame      -9.628   8.452  68.853  0.00  0.00    -0.346 N 
ATOM      4  C10 non d ame      -9.696   6.964  68.616  0.00  0.00     0.241 C 
ATOM      5  O4  non d ame     -10.687   6.361  68.868  0.00  0.00    -0.271 OA
ATOM      6  H19 non d ame      -8.793   8.983  68.647  0.00  0.00     0.163 HD
BRANCH   4   7
ATOM      7  C9  non d ame      -8.499   6.244  68.053  0.00  0.00     0.092 C 
ATOM      8  H11 non d ame      -8.828   5.326  67.566  0.00  0.00     0.088 H 
BRANCH   7   9
ATOM      9  N3  non d ame      -7.866   7.076  67.025  0.00  0.00    -0.346 N 
ATOM     10  C7  non d ame      -7.481   6.494  65.764  0.00  0.00     0.240 C 
ATOM     11  O3  non d ame      -7.671   5.358  65.558  0.00  0.00    -0.271 OA
ATOM     12  H10 non d ame      -7.695   8.058  67.188  0.00  0.00     0.163 HD
BRANCH  10  13
ATOM     13  C6  non d ame      -6.805   7.385  64.675  0.00  0.00     0.086 C 
ATOM     14  H6  non d ame      -6.854   6.944  63.679  0.00  0.00     0.086 H 
BRANCH  13  15
ATOM     15  N2  non d ame      -7.507   8.655  64.603  0.00  0.00    -0.343 N 
ATOM     16  C5  non d ame      -8.512   8.867  63.558  0.00  0.00     0.273 C 
ATOM     17  O2  non d ame      -8.745   8.009  62.779  0.00  0.00    -0.266 OA
ATOM     18  H5  non d ame      -7.299   9.384  65.271  0.00  0.00     0.163 HD
BRANCH  16  19
ATOM     19  C4  non d ame      -9.262  10.204  63.471  0.00  0.00     0.154 A 
ATOM     20  C1  non d ame     -10.273  10.689  64.362  0.00  0.00    -0.017 A 
ATOM     21  C2  non d ame     -10.634  11.954  63.847  0.00  0.00     0.077 A 
ATOM     22  H1  non d ame     -10.680  10.198  65.246  0.00  0.00     0.091 H 
ATOM     23  O1  non d ame      -9.910  12.163  62.787  0.00  0.00    -0.218 OA
ATOM     24  N1  non d ame      -9.101  11.156  62.547  0.00  0.00    -0.123 NA
BRANCH  21  25
ATOM     25  C3  non d ame     -11.678  12.898  64.428  0.00  0.00    -0.029 C 
ATOM     26  H2  non d ame     -11.380  13.930  64.241  0.00  0.00     0.036 H 
ATOM     27  H3  non d ame     -12.643  12.707  63.959  0.00  0.00     0.036 H 
ATOM     28  H4  non d ame     -11.759  12.733  65.504  0.00  0.00     0.036 H 
ENDBRANCH  21  25
ENDBRANCH  16  19
ENDBRANCH  13  15
BRANCH  13  29
ATOM     29  C8  non d ame      -5.359   7.614  65.035  0.00  0.00    -0.049 C 
ATOM     30  H7  non d ame      -5.240   8.622  65.434  0.00  0.00     0.030 H 
ATOM     31  H8  non d ame      -5.051   6.887  65.785  0.00  0.00     0.030 H 
ATOM     32  H9  non d ame      -4.741   7.502  64.144  0.00  0.00     0.030 H 
ENDBRANCH  13  29
ENDBRANCH  10  13
ENDBRANCH   7   9
BRANCH   7  33
ATOM     33  C11 non d ame      -7.477   5.967  69.195  0.00  0.00    -0.033 C 
ATOM     34  H12 non d ame      -8.002   6.083  70.142  0.00  0.00     0.042 H 
BRANCH  33  35
ATOM     35  C12 non d ame      -6.938   4.504  69.132  0.00  0.00    -0.071 C 
ATOM     36  H13 non d ame      -5.856   4.520  68.998  0.00  0.00     0.028 H 
ATOM     37  H14 non d ame      -7.181   3.988  70.061  0.00  0.00     0.028 H 
ATOM     38  H15 non d ame      -7.400   3.983  68.295  0.00  0.00     0.028 H 
ENDBRANCH  33  35
BRANCH  33  39
ATOM     39  C13 non d ame      -6.307   7.002  69.161  0.00  0.00    -0.071 C 
ATOM     40  H16 non d ame      -5.746   6.886  68.234  0.00  0.00     0.028 H 
ATOM     41  H17 non d ame      -6.714   8.013  69.215  0.00  0.00     0.028 H 
ATOM     42  H18 non d ame      -5.646   6.832  70.010  0.00  0.00     0.028 H 
ENDBRANCH  33  39
ENDBRANCH   7  33
ENDBRANCH   4   7
ENDBRANCH   1   3
BRANCH   1  43
ATOM     43  C15 non d ame     -11.019  10.436  68.529  0.00  0.00     0.240 C 
ATOM     44  O5  non d ame     -11.608  10.350  67.501  0.00  0.00    -0.271 OA
ATOM     45  N6  non d ame     -10.523  11.764  68.992  0.00  0.00    -0.355 N 
ATOM     46  H46 non d ame     -10.026  11.849  69.866  0.00  0.00     0.162 HD
BRANCH  45  47
ATOM     47  C20 non d ame     -10.762  12.964  68.161  0.00  0.00     0.013 C 
ATOM     48  H30 non d ame     -10.922  12.636  67.134  0.00  0.00     0.072 H 
BRANCH  47  49
ATOM     49  C21 non d ame      -9.552  13.869  68.231  0.00  0.00    -0.038 C 
ATOM     50  H31 non d ame      -9.874  14.748  68.788  0.00  0.00     0.036 H 
ATOM     51  H32 non d ame      -8.741  13.247  68.612  0.00  0.00     0.036 H 
BRANCH  49  52
ATOM     52  C22 non d ame      -9.101  14.373  66.843  0.00  0.00     0.018 C 
ATOM     53  H33 non d ame      -8.043  14.614  66.945  0.00  0.00     0.048 H 
ATOM     54  H34 non d ame      -9.419  13.610  66.133  0.00  0.00     0.048 H 
BRANCH  52  55
ATOM     55  C23 non d ame      -9.798  15.689  66.397  0.00  0.00     0.259 C 
ATOM     56  O7  non d ame     -10.008  15.901  65.247  0.00  0.00    -0.265 OA
BRANCH  55  57
ATOM     57  O8  non d ame     -10.171  16.647  67.380  0.00  0.00    -0.317 OA
BRANCH  57  58
ATOM     58  C29 non d ame     -10.235  17.990  66.890  0.00  0.00     0.052 C 
ATOM     59  H47 non d ame     -10.224  17.907  65.804  0.00  0.00     0.082 H 
ATOM     60  H48 non d ame     -11.086  18.447  67.393  0.00  0.00     0.082 H 
BRANCH  58  61
ATOM     61  C35 non d ame      -8.945  18.725  67.340  0.00  0.00    -0.034 A 
ATOM     62  C30 non d ame      -8.304  18.352  68.518  0.00  0.00    -0.075 A 
ATOM     63  C31 non d ame      -7.145  19.014  68.922  0.00  0.00    -0.082 A 
ATOM     64  H49 non d ame      -8.710  17.541  69.123  0.00  0.00     0.084 H 
ATOM     65  C32 non d ame      -6.630  20.055  68.146  0.00  0.00    -0.083 A 
ATOM     66  H50 non d ame      -6.644  18.716  69.843  0.00  0.00     0.083 H 
ATOM     67  C33 non d ame      -7.274  20.427  66.974  0.00  0.00    -0.082 A 
ATOM     68  H51 non d ame      -5.724  20.576  68.455  0.00  0.00     0.083 H 
ATOM     69  C34 non d ame      -8.431  19.766  66.565  0.00  0.00    -0.075 A 
ATOM     70  H52 non d ame      -6.869  21.241  66.372  0.00  0.00     0.083 H 
ATOM     71  H53 non d ame      -8.931  20.064  65.642  0.00  0.00     0.084 H 
ENDBRANCH  58  61
ENDBRANCH  57  58
ENDBRANCH  55  57
ENDBRANCH  52  55
ENDBRANCH  49  52
ENDBRANCH  47  49
BRANCH  47  72
ATOM     72  C24 non d ame     -11.989  13.713  68.677  0.00  0.00    -0.039 C 
ATOM     73  H35 non d ame     -12.096  14.579  68.023  0.00  0.00     0.036 H 
ATOM     74  H36 non d ame     -12.784  12.968  68.727  0.00  0.00     0.036 H 
BRANCH  72  75
ATOM     75  C25 non d ame     -11.766  14.267  70.163  0.00  0.00    -0.001 C 
ATOM     76  C26 non d ame     -12.725  13.445  71.216  0.00  0.00    -0.035 C 
ATOM     77  C27 non d ame     -13.419  14.338  71.961  0.00  0.00     0.085 C 
ATOM     78  H38 non d ame     -13.501  12.907  70.674  0.00  0.00     0.036 H 
ATOM     79  H39 non d ame     -12.112  12.923  71.951  0.00  0.00     0.036 H 
ATOM     80  N5  non d ame     -13.268  15.683  71.292  0.00  0.00    -0.049 N 
ATOM     81  H40 non d ame     -14.462  14.024  71.896  0.00  0.00     0.075 H 
ATOM     82  H41 non d ame     -12.917  14.364  72.927  0.00  0.00     0.075 H 
ATOM     83  C28 non d ame     -12.052  15.523  70.243  0.00  0.00     0.193 C 
ATOM     84  H42 non d ame     -14.120  15.843  70.775  0.00  0.00     0.280 HD
ATOM     85  H43 non d ame     -12.986  16.332  72.013  0.00  0.00     0.280 HD
ATOM     86  H44 non d ame     -11.069  15.937  70.466  0.00  0.00     0.129 H 
ATOM     87  H37 non d ame     -10.709  14.351  70.417  0.00  0.00     0.046 H 
BRANCH  83  88
ATOM     88  O6  non d ame     -12.418  16.073  68.976  0.00  0.00    -0.369 OA
ATOM     89  H45 non d ame     -12.843  16.924  69.107  0.00  0.00     0.212 HD
ENDBRANCH  83  88
ENDBRANCH  72  75
ENDBRANCH  47  72
ENDBRANCH  45  47
ENDBRANCH   1  43
BRANCH   1  90
ATOM     90  C16 non d ame     -10.484   9.567  70.827  0.00  0.00    -0.035 C 
ATOM     91  H21 non d ame      -9.588   9.010  71.105  0.00  0.00     0.037 H 
ATOM     92  H22 non d ame     -10.469  10.657  70.823  0.00  0.00     0.037 H 
BRANCH  90  93
ATOM     93  C17 non d ame     -11.597   9.144  71.837  0.00  0.00    -0.059 C 
ATOM     94  H23 non d ame     -11.321   9.535  72.816  0.00  0.00     0.038 H 
BRANCH  93  95
ATOM     95  C18 non d ame     -12.991   9.741  71.462  0.00  0.00    -0.073 C 
ATOM     96  H24 non d ame     -13.698   9.548  72.270  0.00  0.00     0.028 H 
ATOM     97  H25 non d ame     -12.897  10.816  71.311  0.00  0.00     0.028 H 
ATOM     98  H26 non d ame     -13.351   9.275  70.545  0.00  0.00     0.028 H 
ENDBRANCH  93  95
BRANCH  93  99
ATOM     99  C19 non d ame     -11.673   7.620  71.962  0.00  0.00    -0.073 C 
ATOM    100  H27 non d ame     -12.521   7.349  72.593  0.00  0.00     0.028 H 
ATOM    101  H28 non d ame     -11.801   7.181  70.972  0.00  0.00     0.028 H 
ATOM    102  H29 non d ame     -10.752   7.245  72.408  0.00  0.00     0.028 H 
ENDBRANCH  93  99
ENDBRANCH  90  93
ENDBRANCH   1  90
TORSDOF 26
ENDMDL
MODEL 3
REMARK VINA RESULT:      -6.2      2.369      6.324
REMARK  26 active torsions:
REMARK  status: ('A' for Active; 'I' for Inactive)
REMARK    1  A    between atoms: C2_2  and  C3_3 
REMARK    2  A    between atoms: C4_6  and  C5_7 
REMARK       I    between atoms: C5_7  and  N2_9 
REMARK    3  A    between atoms: N2_9  and  C6_10 
REMARK    4  A    between atoms: C6_10  and  C7_11 
REMARK    5  A    between atoms: C6_10  and  C8_13 
REMARK       I    between atoms: C7_11  and  N3_14 
REMARK    6  A    between atoms: N3_14  and  C9_15 
REMARK    7  A    between atoms: C9_15  and  C10_16 
REMARK    8  A    between atoms: C9_15  and  C11_18 
REMARK       I    between atoms: C10_16  and  N4_21 
REMARK    9  A    between atoms: C11_18  and  C12_19 
REMARK   10  A    between atoms: C11_18  and  C13_20 
REMARK   11  A    between atoms: N4_21  and  C14_22 
REMARK   12  A    between atoms: C14_22  and  C15_23 
REMARK   13  A    between atoms: C14_22  and  C16_25 
REMARK       I    between atoms: C15_23  and  N6_40 
REMARK   14  A    between atoms: C16_25  and  C17_26 
REMARK   15  A    between atoms: C17_26  and  C18_27 
REMARK   16  A    between atoms: C17_26  and  C19_28 
REMARK   17  A    between atoms: C20_29  and  C21_30 
REMARK   18  A    between atoms: C20_29  and  C24_33 
REMARK   19  A    between atoms: C20_29  and  N6_40 
REMARK   20  A    between atoms: C21_30  and  C22_31 
REMARK   21  A    between atoms: C22_31  and  C23_32 
REMARK   22  A    between atoms: C23_32  and  O8_43 
REMARK   23  A    between atoms: C24_33  and  C25_34 
REMARK   24  A    between atoms: C28_38  and  O6_39 
REMARK   25  A    between atoms: C29_42  and  O8_43 
REMARK   26  A    between atoms: C29_42  and  C35_49 
ROOT
ATOM      1  C14 non d ame      -6.452  13.648  67.518  0.00  0.00     0.089 C 
ATOM      2  H20 non d ame      -5.982  13.812  66.548  0.00  0.00     0.087 H 
ENDROOT
BRANCH   1   3
ATOM      3  N4  non d ame      -6.794  14.952  68.066  0.00  0.00    -0.346 N 
ATOM      4  C10 non d ame      -6.091  16.193  67.574  0.00  0.00     0.241 C 
ATOM      5  O4  non d ame      -5.252  16.116  66.738  0.00  0.00    -0.271 OA
ATOM      6  H19 non d ame      -7.508  14.997  68.779  0.00  0.00     0.163 HD
BRANCH   4   7
ATOM      7  C9  non d ame      -6.460  17.535  68.148  0.00  0.00     0.092 C 
ATOM      8  H11 non d ame      -6.141  18.320  67.462  0.00  0.00     0.088 H 
BRANCH   7   9
ATOM      9  N3  non d ame      -7.919  17.632  68.268  0.00  0.00    -0.346 N 
ATOM     10  C7  non d ame      -8.722  17.885  67.098  0.00  0.00     0.240 C 
ATOM     11  O3  non d ame      -8.213  18.014  66.052  0.00  0.00    -0.271 OA
ATOM     12  H10 non d ame      -8.372  17.523  69.164  0.00  0.00     0.163 HD
BRANCH  10  13
ATOM     13  C6  non d ame     -10.274  17.990  67.232  0.00  0.00     0.086 C 
ATOM     14  H6  non d ame     -10.803  17.432  66.459  0.00  0.00     0.086 H 
BRANCH  13  15
ATOM     15  N2  non d ame     -10.676  17.417  68.507  0.00  0.00    -0.343 N 
ATOM     16  C5  non d ame     -11.220  16.058  68.548  0.00  0.00     0.273 C 
ATOM     17  O2  non d ame     -11.334  15.435  67.551  0.00  0.00    -0.266 OA
ATOM     18  H5  non d ame     -10.578  17.959  69.354  0.00  0.00     0.163 HD
BRANCH  16  19
ATOM     19  C4  non d ame     -11.648  15.441  69.889  0.00  0.00     0.154 A 
ATOM     20  C1  non d ame     -11.699  16.091  71.163  0.00  0.00    -0.017 A 
ATOM     21  C2  non d ame     -12.153  15.098  72.059  0.00  0.00     0.077 A 
ATOM     22  H1  non d ame     -11.446  17.124  71.401  0.00  0.00     0.091 H 
ATOM     23  O1  non d ame     -12.341  14.011  71.370  0.00  0.00    -0.218 OA
ATOM     24  N1  non d ame     -12.053  14.186  70.101  0.00  0.00    -0.123 NA
BRANCH  21  25
ATOM     25  C3  non d ame     -12.383  15.271  73.555  0.00  0.00    -0.029 C 
ATOM     26  H2  non d ame     -13.420  15.555  73.733  0.00  0.00     0.036 H 
ATOM     27  H3  non d ame     -12.171  14.333  74.066  0.00  0.00     0.036 H 
ATOM     28  H4  non d ame     -11.722  16.051  73.936  0.00  0.00     0.036 H 
ENDBRANCH  21  25
ENDBRANCH  16  19
ENDBRANCH  13  15
BRANCH  13  29
ATOM     29  C8  non d ame     -10.691  19.436  67.161  0.00  0.00    -0.049 C 
ATOM     30  H7  non d ame     -10.612  19.886  68.152  0.00  0.00     0.030 H 
ATOM     31  H8  non d ame     -10.041  19.969  66.468  0.00  0.00     0.030 H 
ATOM     32  H9  non d ame     -11.723  19.500  66.815  0.00  0.00     0.030 H 
ENDBRANCH  13  29
ENDBRANCH  10  13
ENDBRANCH   7   9
BRANCH   7  33
ATOM     33  C11 non d ame      -5.815  17.692  69.556  0.00  0.00    -0.033 C 
ATOM     34  H12 non d ame      -6.394  17.087  70.253  0.00  0.00     0.042 H 
BRANCH  33  35
ATOM     35  C12 non d ame      -4.350  17.155  69.574  0.00  0.00    -0.071 C 
ATOM     36  H13 non d ame      -4.330  16.140  69.176  0.00  0.00     0.028 H 
ATOM     37  H14 non d ame      -3.720  17.798  68.960  0.00  0.00     0.028 H 
ATOM     38  H15 non d ame      -3.978  17.150  70.597  0.00  0.00     0.028 H 
ENDBRANCH  33  35
BRANCH  33  39
ATOM     39  C13 non d ame      -5.878  19.177  70.038  0.00  0.00    -0.071 C 
ATOM     40  H16 non d ame      -4.869  19.541  70.227  0.00  0.00     0.028 H 
ATOM     41  H17 non d ame      -6.347  19.790  69.267  0.00  0.00     0.028 H 
ATOM     42  H18 non d ame      -6.465  19.237  70.955  0.00  0.00     0.028 H 
ENDBRANCH  33  39
ENDBRANCH   7  33
ENDBRANCH   4   7
ENDBRANCH   1   3
BRANCH   1  43
ATOM     43  C15 non d ame      -7.753  12.803  67.406  0.00  0.00     0.240 C 
ATOM     44  O5  non d ame      -8.732  13.144  67.987  0.00  0.00    -0.271 OA
ATOM     45  N6  non d ame      -7.782  11.572  66.565  0.00  0.00    -0.355 N 
ATOM     46  H46 non d ame      -6.957  11.275  66.064  0.00  0.00     0.162 HD
BRANCH  45  47
ATOM     47  C20 non d ame      -9.026  10.780  66.468  0.00  0.00     0.013 C 
ATOM     48  H30 non d ame      -9.784  11.268  67.082  0.00  0.00     0.072 H 
BRANCH  47  49
ATOM     49  C21 non d ame      -8.770   9.380  66.978  0.00  0.00    -0.038 C 
ATOM     50  H31 non d ame      -7.733   9.161  66.728  0.00  0.00     0.036 H 
ATOM     51  H32 non d ame      -9.091   9.384  68.021  0.00  0.00     0.036 H 
BRANCH  49  52
ATOM     52  C22 non d ame      -9.628   8.315  66.261  0.00  0.00     0.018 C 
ATOM     53  H33 non d ame     -10.536   8.216  66.857  0.00  0.00     0.048 H 
ATOM     54  H34 non d ame      -9.691   8.637  65.222  0.00  0.00     0.048 H 
BRANCH  52  55
ATOM     55  C23 non d ame      -8.979   6.903  66.233  0.00  0.00     0.259 C 
ATOM     56  O7  non d ame      -8.820   6.293  67.241  0.00  0.00    -0.265 OA
BRANCH  55  57
ATOM     57  O8  non d ame      -8.562   6.352  64.990  0.00  0.00    -0.317 OA
BRANCH  57  58
ATOM     58  C29 non d ame      -7.177   6.559  64.697  0.00  0.00     0.052 C 
ATOM     59  H47 non d ame      -6.692   6.717  65.659  0.00  0.00     0.082 H 
ATOM     60  H48 non d ame      -6.880   5.719  64.069  0.00  0.00     0.082 H 
BRANCH  58  61
ATOM     61  C35 non d ame      -7.054   7.862  63.863  0.00  0.00    -0.034 A 
ATOM     62  C30 non d ame      -7.744   7.990  62.662  0.00  0.00    -0.075 A 
ATOM     63  C31 non d ame      -7.633   9.161  61.914  0.00  0.00    -0.082 A 
ATOM     64  H49 non d ame      -8.372   7.173  62.308  0.00  0.00     0.084 H 
ATOM     65  C32 non d ame      -6.825  10.206  62.369  0.00  0.00    -0.083 A 
ATOM     66  H50 non d ame      -8.178   9.259  60.975  0.00  0.00     0.083 H 
ATOM     67  C33 non d ame      -6.135  10.073  63.567  0.00  0.00    -0.082 A 
ATOM     68  H51 non d ame      -6.733  11.125  61.791  0.00  0.00     0.083 H 
ATOM     69  C34 non d ame      -6.245   8.905  64.319  0.00  0.00    -0.075 A 
ATOM     70  H52 non d ame      -5.504  10.890  63.918  0.00  0.00     0.083 H 
ATOM     71  H53 non d ame      -5.701   8.809  65.259  0.00  0.00     0.084 H 
ENDBRANCH  58  61
ENDBRANCH  57  58
ENDBRANCH  55  57
ENDBRANCH  52  55
ENDBRANCH  49  52
ENDBRANCH  47  49
BRANCH  47  72
ATOM     72  C24 non d ame      -9.484  10.716  65.012  0.00  0.00    -0.039 C 
ATOM     73  H35 non d ame      -8.570  10.629  64.424  0.00  0.00     0.036 H 
ATOM     74  H36 non d ame     -10.232   9.923  64.977  0.00  0.00     0.036 H 
BRANCH  72  75
ATOM     75  C25 non d ame     -10.211  12.070  64.558  0.00  0.00    -0.001 C 
ATOM     76  C26 non d ame     -11.354  12.489  65.664  0.00  0.00    -0.035 C 
ATOM     77  C27 non d ame     -12.523  12.714  65.017  0.00  0.00     0.085 C 
ATOM     78  H38 non d ame     -11.579  11.641  66.309  0.00  0.00     0.036 H 
ATOM     79  H39 non d ame     -11.114  13.458  66.100  0.00  0.00     0.036 H 
ATOM     80  N5  non d ame     -12.366  12.170  63.617  0.00  0.00    -0.049 N 
ATOM     81  H40 non d ame     -13.268  12.120  65.548  0.00  0.00     0.075 H 
ATOM     82  H41 non d ame     -12.625  13.797  64.968  0.00  0.00     0.075 H 
ATOM     83  C28 non d ame     -10.783  11.933  63.409  0.00  0.00     0.193 C 
ATOM     84  H42 non d ame     -12.830  11.274  63.605  0.00  0.00     0.280 HD
ATOM     85  H43 non d ame     -12.666  12.902  62.990  0.00  0.00     0.280 HD
ATOM     86  H44 non d ame     -10.192  12.625  62.809  0.00  0.00     0.129 H 
ATOM     87  H37 non d ame      -9.499  12.842  64.264  0.00  0.00     0.046 H 
BRANCH  83  88
ATOM     88  O6  non d ame     -10.548  10.642  62.842  0.00  0.00    -0.369 OA
ATOM     89  H45 non d ame      -9.721  10.653  62.353  0.00  0.00     0.212 HD
ENDBRANCH  83  88
ENDBRANCH  72  75
ENDBRANCH  47  72
ENDBRANCH  45  47
ENDBRANCH   1  43
BRANCH   1  90
ATOM     90  C16 non d ame      -5.473  12.958  68.454  0.00  0.00    -0.035 C 
ATOM     91  H21 non d ame      -5.284  11.981  68.005  0.00  0.00     0.037 H 
ATOM     92  H22 non d ame      -4.654  13.664  68.587  0.00  0.00     0.037 H 
BRANCH  90  93
ATOM     93  C17 non d ame      -6.054  12.683  69.878  0.00  0.00    -0.059 C 
ATOM     94  H23 non d ame      -7.087  13.031  69.886  0.00  0.00     0.038 H 
BRANCH  93  95
ATOM     95  C18 non d ame      -6.061  11.160  70.228  0.00  0.00    -0.073 C 
ATOM     96  H24 non d ame      -6.599  10.613  69.454  0.00  0.00     0.028 H 
ATOM     97  H25 non d ame      -5.036  10.796  70.285  0.00  0.00     0.028 H 
ATOM     98  H26 non d ame      -6.554  11.011  71.189  0.00  0.00     0.028 H 
ENDBRANCH  93  95
BRANCH  93  99
ATOM     99  C19 non d ame      -5.297  13.483  70.942  0.00  0.00    -0.073 C 
ATOM    100  H27 non d ame      -5.893  14.347  71.238  0.00  0.00     0.028 H 
ATOM    101  H28 non d ame      -5.117  12.849  71.811  0.00  0.00     0.028 H 
ATOM    102  H29 non d ame      -4.344  13.819  70.534  0.00  0.00     0.028 H 
ENDBRANCH  93  99
ENDBRANCH  90  93
ENDBRANCH   1  90
TORSDOF 26
ENDMDL
MODEL 4
REMARK VINA RESULT:      -6.2      3.143      7.215
REMARK  26 active torsions:
REMARK  status: ('A' for Active; 'I' for Inactive)
REMARK    1  A    between atoms: C2_2  and  C3_3 
REMARK    2  A    between atoms: C4_6  and  C5_7 
REMARK       I    between atoms: C5_7  and  N2_9 
REMARK    3  A    between atoms: N2_9  and  C6_10 
REMARK    4  A    between atoms: C6_10  and  C7_11 
REMARK    5  A    between atoms: C6_10  and  C8_13 
REMARK       I    between atoms: C7_11  and  N3_14 
REMARK    6  A    between atoms: N3_14  and  C9_15 
REMARK    7  A    between atoms: C9_15  and  C10_16 
REMARK    8  A    between atoms: C9_15  and  C11_18 
REMARK       I    between atoms: C10_16  and  N4_21 
REMARK    9  A    between atoms: C11_18  and  C12_19 
REMARK   10  A    between atoms: C11_18  and  C13_20 
REMARK   11  A    between atoms: N4_21  and  C14_22 
REMARK   12  A    between atoms: C14_22  and  C15_23 
REMARK   13  A    between atoms: C14_22  and  C16_25 
REMARK       I    between atoms: C15_23  and  N6_40 
REMARK   14  A    between atoms: C16_25  and  C17_26 
REMARK   15  A    between atoms: C17_26  and  C18_27 
REMARK   16  A    between atoms: C17_26  and  C19_28 
REMARK   17  A    between atoms: C20_29  and  C21_30 
REMARK   18  A    between atoms: C20_29  and  C24_33 
REMARK   19  A    between atoms: C20_29  and  N6_40 
REMARK   20  A    between atoms: C21_30  and  C22_31 
REMARK   21  A    between atoms: C22_31  and  C23_32 
REMARK   22  A    between atoms: C23_32  and  O8_43 
REMARK   23  A    between atoms: C24_33  and  C25_34 
REMARK   24  A    between atoms: C28_38  and  O6_39 
REMARK   25  A    between atoms: C29_42  and  O8_43 
REMARK   26  A    between atoms: C29_42  and  C35_49 
ROOT
ATOM      1  C14 non d ame      -9.234   7.055  66.334  0.00  0.00     0.089 C 
ATOM      2  H20 non d ame      -9.761   6.595  65.497  0.00  0.00     0.087 H 
ENDROOT
BRANCH   1   3
ATOM      3  N4  non d ame      -8.768   8.361  65.894  0.00  0.00    -0.346 N 
ATOM      4  C10 non d ame      -8.233   8.549  64.496  0.00  0.00     0.241 C 
ATOM      5  O4  non d ame      -8.184   7.631  63.744  0.00  0.00    -0.271 OA
ATOM      6  H19 non d ame      -8.815   9.129  66.549  0.00  0.00     0.163 HD
BRANCH   4   7
ATOM      7  C9  non d ame      -7.760   9.909  64.056  0.00  0.00     0.092 C 
ATOM      8  H11 non d ame      -7.797   9.967  62.968  0.00  0.00     0.088 H 
BRANCH   7   9
ATOM      9  N3  non d ame      -8.670  10.935  64.575  0.00  0.00    -0.346 N 
ATOM     10  C7  non d ame      -9.840  11.309  63.821  0.00  0.00     0.240 C 
ATOM     11  O3  non d ame     -10.066  10.796  62.793  0.00  0.00    -0.271 OA
ATOM     12  H10 non d ame      -8.488  11.387  65.460  0.00  0.00     0.163 HD
BRANCH  10  13
ATOM     13  C6  non d ame     -10.803  12.404  64.378  0.00  0.00     0.086 C 
ATOM     14  H6  non d ame     -11.215  12.146  65.354  0.00  0.00     0.086 H 
BRANCH  13  15
ATOM     15  N2  non d ame     -10.059  13.640  64.554  0.00  0.00    -0.343 N 
ATOM     16  C5  non d ame     -10.421  14.552  65.641  0.00  0.00     0.273 C 
ATOM     17  O2  non d ame     -11.314  14.284  66.366  0.00  0.00    -0.266 OA
ATOM     18  H5  non d ame      -9.298  13.863  63.928  0.00  0.00     0.163 HD
BRANCH  16  19
ATOM     19  C4  non d ame      -9.642  15.862  65.839  0.00  0.00     0.154 A 
ATOM     20  C1  non d ame      -8.304  16.007  66.326  0.00  0.00    -0.017 A 
ATOM     21  C2  non d ame      -8.063  17.399  66.317  0.00  0.00     0.077 A 
ATOM     22  H1  non d ame      -7.613  15.223  66.636  0.00  0.00     0.091 H 
ATOM     23  O1  non d ame      -9.142  17.976  65.875  0.00  0.00    -0.218 OA
ATOM     24  N1  non d ame     -10.077  17.099  65.589  0.00  0.00    -0.123 NA
BRANCH  21  25
ATOM     25  C3  non d ame      -6.777  18.094  66.746  0.00  0.00    -0.029 C 
ATOM     26  H2  non d ame      -6.740  19.091  66.308  0.00  0.00     0.036 H 
ATOM     27  H3  non d ame      -6.751  18.173  67.832  0.00  0.00     0.036 H 
ATOM     28  H4  non d ame      -5.919  17.514  66.403  0.00  0.00     0.036 H 
ENDBRANCH  21  25
ENDBRANCH  16  19
ENDBRANCH  13  15
BRANCH  13  29
ATOM     29  C8  non d ame     -11.938  12.618  63.410  0.00  0.00    -0.049 C 
ATOM     30  H7  non d ame     -11.640  12.277  62.419  0.00  0.00     0.030 H 
ATOM     31  H8  non d ame     -12.810  12.056  63.741  0.00  0.00     0.030 H 
ATOM     32  H9  non d ame     -12.184  13.680  63.369  0.00  0.00     0.030 H 
ENDBRANCH  13  29
ENDBRANCH  10  13
ENDBRANCH   7   9
BRANCH   7  33
ATOM     33  C11 non d ame      -6.326  10.163  64.607  0.00  0.00    -0.033 C 
ATOM     34  H12 non d ame      -6.395  10.957  65.349  0.00  0.00     0.042 H 
BRANCH  33  35
ATOM     35  C12 non d ame      -5.760   8.897  65.323  0.00  0.00    -0.071 C 
ATOM     36  H13 non d ame      -6.215   8.803  66.309  0.00  0.00     0.028 H 
ATOM     37  H14 non d ame      -5.989   8.012  64.731  0.00  0.00     0.028 H 
ATOM     38  H15 non d ame      -4.680   8.995  65.429  0.00  0.00     0.028 H 
ENDBRANCH  33  35
BRANCH  33  39
ATOM     39  C13 non d ame      -5.368  10.646  63.470  0.00  0.00    -0.071 C 
ATOM     40  H16 non d ame      -5.893  10.619  62.516  0.00  0.00     0.028 H 
ATOM     41  H17 non d ame      -5.044  11.667  63.678  0.00  0.00     0.028 H 
ATOM     42  H18 non d ame      -4.498   9.991  63.426  0.00  0.00     0.028 H 
ENDBRANCH  33  39
ENDBRANCH   7  33
ENDBRANCH   4   7
ENDBRANCH   1   3
BRANCH   1  43
ATOM     43  C15 non d ame     -10.154   7.249  67.572  0.00  0.00     0.240 C 
ATOM     44  O5  non d ame     -11.176   6.648  67.650  0.00  0.00    -0.271 OA
ATOM     45  N6  non d ame      -9.757   8.180  68.668  0.00  0.00    -0.355 N 
ATOM     46  H46 non d ame      -8.889   8.693  68.614  0.00  0.00     0.162 HD
BRANCH  45  47
ATOM     47  C20 non d ame     -10.642   8.353  69.839  0.00  0.00     0.013 C 
ATOM     48  H30 non d ame     -11.666   8.167  69.516  0.00  0.00     0.072 H 
BRANCH  47  49
ATOM     49  C21 non d ame     -10.514   9.767  70.358  0.00  0.00    -0.038 C 
ATOM     50  H31 non d ame     -10.827   9.728  71.401  0.00  0.00     0.036 H 
ATOM     51  H32 non d ame      -9.502  10.084  70.103  0.00  0.00     0.036 H 
BRANCH  49  52
ATOM     52  C22 non d ame     -11.471  10.753  69.653  0.00  0.00     0.018 C 
ATOM     53  H33 non d ame     -12.455  10.283  69.683  0.00  0.00     0.048 H 
ATOM     54  H34 non d ame     -11.313  11.716  70.137  0.00  0.00     0.048 H 
BRANCH  52  55
ATOM     55  C23 non d ame     -11.148  10.972  68.148  0.00  0.00     0.259 C 
ATOM     56  O7  non d ame     -12.022  11.163  67.366  0.00  0.00    -0.265 OA
BRANCH  55  57
ATOM     57  O8  non d ame      -9.795  10.926  67.712  0.00  0.00    -0.317 OA
BRANCH  57  58
ATOM     58  C29 non d ame      -9.058  12.124  67.976  0.00  0.00     0.052 C 
ATOM     59  H47 non d ame      -9.213  12.762  67.107  0.00  0.00     0.082 H 
ATOM     60  H48 non d ame      -9.381  12.457  68.962  0.00  0.00     0.082 H 
BRANCH  58  61
ATOM     61  C35 non d ame      -7.553  11.753  68.052  0.00  0.00    -0.034 A 
ATOM     62  C30 non d ame      -6.607  12.539  67.402  0.00  0.00    -0.075 A 
ATOM     63  C31 non d ame      -5.255  12.205  67.471  0.00  0.00    -0.082 A 
ATOM     64  H49 non d ame      -6.925  13.417  66.840  0.00  0.00     0.084 H 
ATOM     65  C32 non d ame      -4.851  11.077  68.190  0.00  0.00    -0.083 A 
ATOM     66  H50 non d ame      -4.516  12.825  66.964  0.00  0.00     0.083 H 
ATOM     67  C33 non d ame      -5.799  10.293  68.834  0.00  0.00    -0.082 A 
ATOM     68  H51 non d ame      -3.796  10.810  68.250  0.00  0.00     0.083 H 
ATOM     69  C34 non d ame      -7.151  10.625  68.770  0.00  0.00    -0.075 A 
ATOM     70  H52 non d ame      -5.479   9.413  69.393  0.00  0.00     0.083 H 
ATOM     71  H53 non d ame      -7.889  10.004  69.280  0.00  0.00     0.084 H 
ENDBRANCH  58  61
ENDBRANCH  57  58
ENDBRANCH  55  57
ENDBRANCH  52  55
ENDBRANCH  49  52
ENDBRANCH  47  49
BRANCH  47  72
ATOM     72  C24 non d ame     -10.244   7.369  70.937  0.00  0.00    -0.039 C 
ATOM     73  H35 non d ame     -11.051   6.636  70.975  0.00  0.00     0.036 H 
ATOM     74  H36 non d ame      -9.231   7.050  70.688  0.00  0.00     0.036 H 
BRANCH  72  75
ATOM     75  C25 non d ame     -10.178   8.075  72.373  0.00  0.00    -0.001 C 
ATOM     76  C26 non d ame      -8.632   8.065  72.931  0.00  0.00    -0.035 C 
ATOM     77  C27 non d ame      -8.625   7.559  74.187  0.00  0.00     0.085 C 
ATOM     78  H38 non d ame      -8.034   7.351  72.365  0.00  0.00     0.036 H 
ATOM     79  H39 non d ame      -8.276   9.087  73.066  0.00  0.00     0.036 H 
ATOM     80  N5  non d ame      -9.975   6.920  74.413  0.00  0.00    -0.049 N 
ATOM     81  H40 non d ame      -7.860   6.781  74.184  0.00  0.00     0.075 H 
ATOM     82  H41 non d ame      -8.525   8.419  74.847  0.00  0.00     0.075 H 
ATOM     83  C28 non d ame     -10.928   7.466  73.230  0.00  0.00     0.193 C 
ATOM     84  H42 non d ame      -9.845   5.927  74.290  0.00  0.00     0.280 HD
ATOM     85  H43 non d ame     -10.318   7.280  75.292  0.00  0.00     0.280 HD
ATOM     86  H44 non d ame     -11.671   8.237  73.427  0.00  0.00     0.129 H 
ATOM     87  H37 non d ame     -10.705   9.030  72.387  0.00  0.00     0.046 H 
BRANCH  83  88
ATOM     88  O6  non d ame     -11.650   6.383  72.639  0.00  0.00    -0.369 OA
ATOM     89  H45 non d ame     -11.785   6.561  71.705  0.00  0.00     0.212 HD
ENDBRANCH  83  88
ENDBRANCH  72  75
ENDBRANCH  47  72
ENDBRANCH  45  47
ENDBRANCH   1  43
BRANCH   1  90
ATOM     90  C16 non d ame      -8.034   6.204  66.717  0.00  0.00    -0.035 C 
ATOM     91  H21 non d ame      -7.170   6.711  66.284  0.00  0.00     0.037 H 
ATOM     92  H22 non d ame      -8.105   6.074  67.797  0.00  0.00     0.037 H 
BRANCH  90  93
ATOM     93  C17 non d ame      -8.058   4.770  66.097  0.00  0.00    -0.059 C 
ATOM     94  H23 non d ame      -7.151   4.651  65.506  0.00  0.00     0.038 H 
BRANCH  93  95
ATOM     95  C18 non d ame      -8.063   3.655  67.192  0.00  0.00    -0.073 C 
ATOM     96  H24 non d ame      -7.048   3.500  67.556  0.00  0.00     0.028 H 
ATOM     97  H25 non d ame      -8.704   3.961  68.019  0.00  0.00     0.028 H 
ATOM     98  H26 non d ame      -8.442   2.727  66.762  0.00  0.00     0.028 H 
ENDBRANCH  93  95
BRANCH  93  99
ATOM     99  C19 non d ame      -9.246   4.605  65.146  0.00  0.00    -0.073 C 
ATOM    100  H27 non d ame      -9.197   5.368  64.368  0.00  0.00     0.028 H 
ATOM    101  H28 non d ame      -9.209   3.616  64.689  0.00  0.00     0.028 H 
ATOM    102  H29 non d ame     -10.177   4.712  65.703  0.00  0.00     0.028 H 
ENDBRANCH  93  99
ENDBRANCH  90  93
ENDBRANCH   1  90
TORSDOF 26
ENDMDL
MODEL 5
REMARK VINA RESULT:      -6.1      3.280      6.818
REMARK  26 active torsions:
REMARK  status: ('A' for Active; 'I' for Inactive)
REMARK    1  A    between atoms: C2_2  and  C3_3 
REMARK    2  A    between atoms: C4_6  and  C5_7 
REMARK       I    between atoms: C5_7  and  N2_9 
REMARK    3  A    between atoms: N2_9  and  C6_10 
REMARK    4  A    between atoms: C6_10  and  C7_11 
REMARK    5  A    between atoms: C6_10  and  C8_13 
REMARK       I    between atoms: C7_11  and  N3_14 
REMARK    6  A    between atoms: N3_14  and  C9_15 
REMARK    7  A    between atoms: C9_15  and  C10_16 
REMARK    8  A    between atoms: C9_15  and  C11_18 
REMARK       I    between atoms: C10_16  and  N4_21 
REMARK    9  A    between atoms: C11_18  and  C12_19 
REMARK   10  A    between atoms: C11_18  and  C13_20 
REMARK   11  A    between atoms: N4_21  and  C14_22 
REMARK   12  A    between atoms: C14_22  and  C15_23 
REMARK   13  A    between atoms: C14_22  and  C16_25 
REMARK       I    between atoms: C15_23  and  N6_40 
REMARK   14  A    between atoms: C16_25  and  C17_26 
REMARK   15  A    between atoms: C17_26  and  C18_27 
REMARK   16  A    between atoms: C17_26  and  C19_28 
REMARK   17  A    between atoms: C20_29  and  C21_30 
REMARK   18  A    between atoms: C20_29  and  C24_33 
REMARK   19  A    between atoms: C20_29  and  N6_40 
REMARK   20  A    between atoms: C21_30  and  C22_31 
REMARK   21  A    between atoms: C22_31  and  C23_32 
REMARK   22  A    between atoms: C23_32  and  O8_43 
REMARK   23  A    between atoms: C24_33  and  C25_34 
REMARK   24  A    between atoms: C28_38  and  O6_39 
REMARK   25  A    between atoms: C29_42  and  O8_43 
REMARK   26  A    between atoms: C29_42  and  C35_49 
ROOT
ATOM      1  C14 non d ame      -9.409   5.948  68.250  0.00  0.00     0.089 C 
ATOM      2  H20 non d ame     -10.063   5.431  67.548  0.00  0.00     0.087 H 
ENDROOT
BRANCH   1   3
ATOM      3  N4  non d ame      -8.838   7.092  67.555  0.00  0.00    -0.346 N 
ATOM      4  C10 non d ame      -9.718   7.997  66.728  0.00  0.00     0.241 C 
ATOM      5  O4  non d ame     -10.881   7.782  66.635  0.00  0.00    -0.271 OA
ATOM      6  H19 non d ame      -7.845   7.257  67.644  0.00  0.00     0.163 HD
BRANCH   4   7
ATOM      7  C9  non d ame      -9.112   9.180  66.019  0.00  0.00     0.092 C 
ATOM      8  H11 non d ame      -8.900   8.909  64.985  0.00  0.00     0.088 H 
BRANCH   7   9
ATOM      9  N3  non d ame     -10.081  10.280  65.988  0.00  0.00    -0.346 N 
ATOM     10  C7  non d ame     -10.478  10.855  64.727  0.00  0.00     0.240 C 
ATOM     11  O3  non d ame     -10.028  10.446  63.727  0.00  0.00    -0.271 OA
ATOM     12  H10 non d ame     -10.477  10.645  66.843  0.00  0.00     0.163 HD
BRANCH  10  13
ATOM     13  C6  non d ame     -11.507  12.028  64.701  0.00  0.00     0.086 C 
ATOM     14  H6  non d ame     -12.293  11.917  65.448  0.00  0.00     0.086 H 
BRANCH  13  15
ATOM     15  N2  non d ame     -10.815  13.269  65.008  0.00  0.00    -0.343 N 
ATOM     16  C5  non d ame     -11.472  14.275  65.846  0.00  0.00     0.273 C 
ATOM     17  O2  non d ame     -12.558  14.076  66.266  0.00  0.00    -0.266 OA
ATOM     18  H5  non d ame      -9.887  13.431  64.642  0.00  0.00     0.163 HD
BRANCH  16  19
ATOM     19  C4  non d ame     -10.751  15.590  66.178  0.00  0.00     0.154 A 
ATOM     20  C1  non d ame     -10.616  16.201  67.466  0.00  0.00    -0.017 A 
ATOM     21  C2  non d ame      -9.875  17.380  67.232  0.00  0.00     0.077 A 
ATOM     22  H1  non d ame     -10.997  15.843  68.422  0.00  0.00     0.091 H 
ATOM     23  O1  non d ame      -9.617  17.430  65.958  0.00  0.00    -0.218 OA
ATOM     24  N1  non d ame     -10.118  16.396  65.322  0.00  0.00    -0.123 NA
BRANCH  21  25
ATOM     25  C3  non d ame      -9.454  18.403  68.280  0.00  0.00    -0.029 C 
ATOM     26  H2  non d ame      -9.023  19.274  67.786  0.00  0.00     0.036 H 
ATOM     27  H3  non d ame     -10.324  18.707  68.860  0.00  0.00     0.036 H 
ATOM     28  H4  non d ame      -8.711  17.958  68.944  0.00  0.00     0.036 H 
ENDBRANCH  21  25
ENDBRANCH  16  19
ENDBRANCH  13  15
BRANCH  13  29
ATOM     29  C8  non d ame     -12.141  12.115  63.336  0.00  0.00    -0.049 C 
ATOM     30  H7  non d ame     -13.161  11.731  63.385  0.00  0.00     0.030 H 
ATOM     31  H8  non d ame     -12.158  13.153  63.007  0.00  0.00     0.030 H 
ATOM     32  H9  non d ame     -11.563  11.519  62.629  0.00  0.00     0.030 H 
ENDBRANCH  13  29
ENDBRANCH  10  13
ENDBRANCH   7   9
BRANCH   7  33
ATOM     33  C11 non d ame      -7.832   9.639  66.777  0.00  0.00    -0.033 C 
ATOM     34  H12 non d ame      -7.523   8.822  67.427  0.00  0.00     0.042 H 
BRANCH  33  35
ATOM     35  C12 non d ame      -6.658   9.925  65.790  0.00  0.00    -0.071 C 
ATOM     36  H13 non d ame      -6.676   9.193  64.983  0.00  0.00     0.028 H 
ATOM     37  H14 non d ame      -6.768  10.926  65.375  0.00  0.00     0.028 H 
ATOM     38  H15 non d ame      -5.711   9.854  66.324  0.00  0.00     0.028 H 
ENDBRANCH  33  35
BRANCH  33  39
ATOM     39  C13 non d ame      -8.131  10.883  67.675  0.00  0.00    -0.071 C 
ATOM     40  H16 non d ame      -8.551  10.553  68.625  0.00  0.00     0.028 H 
ATOM     41  H17 non d ame      -7.205  11.430  67.858  0.00  0.00     0.028 H 
ATOM     42  H18 non d ame      -8.843  11.534  67.169  0.00  0.00     0.028 H 
ENDBRANCH  33  39
ENDBRANCH   7  33
ENDBRANCH   4   7
ENDBRANCH   1   3
BRANCH   1  43
ATOM     43  C15 non d ame     -10.177   6.463  69.500  0.00  0.00     0.240 C 
ATOM     44  O5  non d ame     -11.191   5.937  69.830  0.00  0.00    -0.271 OA
ATOM     45  N6  non d ame      -9.644   7.607  70.294  0.00  0.00    -0.355 N 
ATOM     46  H46 non d ame      -8.782   8.059  70.026  0.00  0.00     0.162 HD
BRANCH  45  47
ATOM     47  C20 non d ame     -10.386   8.085  71.480  0.00  0.00     0.013 C 
ATOM     48  H30 non d ame     -11.083   7.301  71.779  0.00  0.00     0.072 H 
BRANCH  47  49
ATOM     49  C21 non d ame     -11.146   9.342  71.124  0.00  0.00    -0.038 C 
ATOM     50  H31 non d ame     -12.183   9.147  71.395  0.00  0.00     0.036 H 
ATOM     51  H32 non d ame     -10.602  10.159  71.599  0.00  0.00     0.036 H 
BRANCH  49  52
ATOM     52  C22 non d ame     -11.139   9.636  69.608  0.00  0.00     0.018 C 
ATOM     53  H33 non d ame     -10.089   9.649  69.313  0.00  0.00     0.048 H 
ATOM     54  H34 non d ame     -11.820   8.911  69.163  0.00  0.00     0.048 H 
BRANCH  52  55
ATOM     55  C23 non d ame     -11.702  11.037  69.238  0.00  0.00     0.259 C 
ATOM     56  O7  non d ame     -12.050  11.273  68.127  0.00  0.00    -0.265 OA
BRANCH  55  57
ATOM     57  O8  non d ame     -11.786  12.041  70.242  0.00  0.00    -0.317 OA
BRANCH  57  58
ATOM     58  C29 non d ame     -11.982  13.362  69.728  0.00  0.00     0.052 C 
ATOM     59  H47 non d ame     -11.015  13.672  69.335  0.00  0.00     0.082 H 
ATOM     60  H48 non d ame     -12.844  13.295  69.065  0.00  0.00     0.082 H 
BRANCH  58  61
ATOM     61  C35 non d ame     -12.349  14.288  70.918  0.00  0.00    -0.034 A 
ATOM     62  C30 non d ame     -11.566  15.402  71.203  0.00  0.00    -0.075 A 
ATOM     63  C31 non d ame     -11.897  16.234  72.272  0.00  0.00    -0.082 A 
ATOM     64  H49 non d ame     -10.694  15.624  70.587  0.00  0.00     0.084 H 
ATOM     65  C32 non d ame     -13.014  15.946  73.060  0.00  0.00    -0.083 A 
ATOM     66  H50 non d ame     -11.282  17.108  72.489  0.00  0.00     0.083 H 
ATOM     67  C33 non d ame     -13.791  14.831  72.775  0.00  0.00    -0.082 A 
ATOM     68  H51 non d ame     -13.279  16.592  73.897  0.00  0.00     0.083 H 
ATOM     69  C34 non d ame     -13.465  13.999  71.706  0.00  0.00    -0.075 A 
ATOM     70  H52 non d ame     -14.661  14.609  73.394  0.00  0.00     0.083 H 
ATOM     71  H53 non d ame     -14.081  13.125  71.488  0.00  0.00     0.084 H 
ENDBRANCH  58  61
ENDBRANCH  57  58
ENDBRANCH  55  57
ENDBRANCH  52  55
ENDBRANCH  49  52
ENDBRANCH  47  49
BRANCH  47  72
ATOM     72  C24 non d ame      -9.408   8.384  72.615  0.00  0.00    -0.039 C 
ATOM     73  H35 non d ame      -8.535   8.829  72.135  0.00  0.00     0.036 H 
ATOM     74  H36 non d ame      -9.978   8.957  73.346  0.00  0.00     0.036 H 
BRANCH  72  75
ATOM     75  C25 non d ame      -8.915   7.045  73.343  0.00  0.00    -0.001 C 
ATOM     76  C26 non d ame     -10.211   6.109  73.728  0.00  0.00    -0.035 C 
ATOM     77  C27 non d ame     -10.130   5.770  75.037  0.00  0.00     0.085 C 
ATOM     78  H38 non d ame     -11.127   6.696  73.673  0.00  0.00     0.036 H 
ATOM     79  H39 non d ame     -10.147   5.151  73.213  0.00  0.00     0.036 H 
ATOM     80  N5  non d ame      -9.077   6.656  75.658  0.00  0.00    -0.049 N 
ATOM     81  H40 non d ame     -11.102   6.021  75.464  0.00  0.00     0.075 H 
ATOM     82  H41 non d ame      -9.779   4.739  75.050  0.00  0.00     0.075 H 
ATOM     83  C28 non d ame      -8.266   7.312  74.426  0.00  0.00     0.193 C 
ATOM     84  H42 non d ame      -9.571   7.389  76.145  0.00  0.00     0.280 HD
ATOM     85  H43 non d ame      -8.452   6.046  76.165  0.00  0.00     0.280 HD
ATOM     86  H44 non d ame      -7.274   6.948  74.158  0.00  0.00     0.129 H 
ATOM     87  H37 non d ame      -8.096   6.562  72.809  0.00  0.00     0.046 H 
BRANCH  83  88
ATOM     88  O6  non d ame      -8.113   8.718  74.629  0.00  0.00    -0.369 OA
ATOM     89  H45 non d ame      -8.905   9.172  74.329  0.00  0.00     0.212 HD
ENDBRANCH  83  88
ENDBRANCH  72  75
ENDBRANCH  47  72
ENDBRANCH  45  47
ENDBRANCH   1  43
BRANCH   1  90
ATOM     90  C16 non d ame      -8.285   5.022  68.686  0.00  0.00    -0.035 C 
ATOM     91  H21 non d ame      -7.490   5.168  67.953  0.00  0.00     0.037 H 
ATOM     92  H22 non d ame      -8.108   5.257  69.735  0.00  0.00     0.037 H 
BRANCH  90  93
ATOM     93  C17 non d ame      -8.664   3.508  68.630  0.00  0.00    -0.059 C 
ATOM     94  H23 non d ame      -9.512   3.404  67.954  0.00  0.00     0.038 H 
BRANCH  93  95
ATOM     95  C18 non d ame      -7.499   2.629  68.071  0.00  0.00    -0.073 C 
ATOM     96  H24 non d ame      -7.498   1.663  68.576  0.00  0.00     0.028 H 
ATOM     97  H25 non d ame      -7.639   2.479  67.001  0.00  0.00     0.028 H 
ATOM     98  H26 non d ame      -6.548   3.133  68.246  0.00  0.00     0.028 H 
ENDBRANCH  93  95
BRANCH  93  99
ATOM     99  C19 non d ame      -9.114   3.005  70.004  0.00  0.00    -0.073 C 
ATOM    100  H27 non d ame      -8.609   2.065  70.230  0.00  0.00     0.028 H 
ATOM    101  H28 non d ame      -8.860   3.746  70.762  0.00  0.00     0.028 H 
ATOM    102  H29 non d ame     -10.192   2.847  69.998  0.00  0.00     0.028 H 
ENDBRANCH  93  99
ENDBRANCH  90  93
ENDBRANCH   1  90
TORSDOF 26
ENDMDL
MODEL 6
REMARK VINA RESULT:      -6.1      2.104      4.527
REMARK  26 active torsions:
REMARK  status: ('A' for Active; 'I' for Inactive)
REMARK    1  A    between atoms: C2_2  and  C3_3 
REMARK    2  A    between atoms: C4_6  and  C5_7 
REMARK       I    between atoms: C5_7  and  N2_9 
REMARK    3  A    between atoms: N2_9  and  C6_10 
REMARK    4  A    between atoms: C6_10  and  C7_11 
REMARK    5  A    between atoms: C6_10  and  C8_13 
REMARK       I    between atoms: C7_11  and  N3_14 
REMARK    6  A    between atoms: N3_14  and  C9_15 
REMARK    7  A    between atoms: C9_15  and  C10_16 
REMARK    8  A    between atoms: C9_15  and  C11_18 
REMARK       I    between atoms: C10_16  and  N4_21 
REMARK    9  A    between atoms: C11_18  and  C12_19 
REMARK   10  A    between atoms: C11_18  and  C13_20 
REMARK   11  A    between atoms: N4_21  and  C14_22 
REMARK   12  A    between atoms: C14_22  and  C15_23 
REMARK   13  A    between atoms: C14_22  and  C16_25 
REMARK       I    between atoms: C15_23  and  N6_40 
REMARK   14  A    between atoms: C16_25  and  C17_26 
REMARK   15  A    between atoms: C17_26  and  C18_27 
REMARK   16  A    between atoms: C17_26  and  C19_28 
REMARK   17  A    between atoms: C20_29  and  C21_30 
REMARK   18  A    between atoms: C20_29  and  C24_33 
REMARK   19  A    between atoms: C20_29  and  N6_40 
REMARK   20  A    between atoms: C21_30  and  C22_31 
REMARK   21  A    between atoms: C22_31  and  C23_32 
REMARK   22  A    between atoms: C23_32  and  O8_43 
REMARK   23  A    between atoms: C24_33  and  C25_34 
REMARK   24  A    between atoms: C28_38  and  O6_39 
REMARK   25  A    between atoms: C29_42  and  O8_43 
REMARK   26  A    between atoms: C29_42  and  C35_49 
ROOT
ATOM      1  C14 non d ame      -7.156  13.672  68.016  0.00  0.00     0.089 C 
ATOM      2  H20 non d ame      -6.270  13.447  67.421  0.00  0.00     0.087 H 
ENDROOT
BRANCH   1   3
ATOM      3  N4  non d ame      -7.231  15.118  68.161  0.00  0.00    -0.346 N 
ATOM      4  C10 non d ame      -6.119  15.994  67.640  0.00  0.00     0.241 C 
ATOM      5  O4  non d ame      -5.172  15.511  67.110  0.00  0.00    -0.271 OA
ATOM      6  H19 non d ame      -8.043  15.509  68.617  0.00  0.00     0.163 HD
BRANCH   4   7
ATOM      7  C9  non d ame      -6.214  17.489  67.793  0.00  0.00     0.092 C 
ATOM      8  H11 non d ame      -6.021  17.962  66.830  0.00  0.00     0.088 H 
BRANCH   7   9
ATOM      9  N3  non d ame      -7.579  17.854  68.187  0.00  0.00    -0.346 N 
ATOM     10  C7  non d ame      -8.588  18.063  67.179  0.00  0.00     0.240 C 
ATOM     11  O3  non d ame      -8.321  17.944  66.046  0.00  0.00    -0.271 OA
ATOM     12  H10 non d ame      -7.825  17.962  69.161  0.00  0.00     0.163 HD
BRANCH  10  13
ATOM     13  C6  non d ame     -10.038  18.455  67.605  0.00  0.00     0.086 C 
ATOM     14  H6  non d ame     -10.748  18.408  66.779  0.00  0.00     0.086 H 
BRANCH  13  15
ATOM     15  N2  non d ame     -10.505  17.512  68.608  0.00  0.00    -0.343 N 
ATOM     16  C5  non d ame     -11.076  16.231  68.185  0.00  0.00     0.273 C 
ATOM     17  O2  non d ame     -11.157  15.970  67.036  0.00  0.00    -0.266 OA
ATOM     18  H5  non d ame     -10.434  17.744  69.589  0.00  0.00     0.163 HD
BRANCH  16  19
ATOM     19  C4  non d ame     -11.572  15.225  69.235  0.00  0.00     0.154 A 
ATOM     20  C1  non d ame     -12.363  15.505  70.395  0.00  0.00    -0.017 A 
ATOM     21  C2  non d ame     -12.546  14.252  71.020  0.00  0.00     0.077 A 
ATOM     22  H1  non d ame     -12.746  16.469  70.730  0.00  0.00     0.091 H 
ATOM     23  O1  non d ame     -11.930  13.363  70.296  0.00  0.00    -0.218 OA
ATOM     24  N1  non d ame     -11.354  13.907  69.249  0.00  0.00    -0.123 NA
BRANCH  21  25
ATOM     25  C3  non d ame     -13.322  13.990  72.304  0.00  0.00    -0.029 C 
ATOM     26  H2  non d ame     -13.448  14.925  72.850  0.00  0.00     0.036 H 
ATOM     27  H3  non d ame     -14.301  13.578  72.060  0.00  0.00     0.036 H 
ATOM     28  H4  non d ame     -12.773  13.279  72.923  0.00  0.00     0.036 H 
ENDBRANCH  21  25
ENDBRANCH  16  19
ENDBRANCH  13  15
BRANCH  13  29
ATOM     29  C8  non d ame     -10.039  19.852  68.170  0.00  0.00    -0.049 C 
ATOM     30  H7  non d ame     -10.981  20.343  67.922  0.00  0.00     0.030 H 
ATOM     31  H8  non d ame      -9.926  19.808  69.252  0.00  0.00     0.030 H 
ATOM     32  H9  non d ame      -9.212  20.418  67.741  0.00  0.00     0.030 H 
ENDBRANCH  13  29
ENDBRANCH  10  13
ENDBRANCH   7   9
BRANCH   7  33
ATOM     33  C11 non d ame      -5.216  17.963  68.889  0.00  0.00    -0.033 C 
ATOM     34  H12 non d ame      -4.914  17.086  69.460  0.00  0.00     0.042 H 
BRANCH  33  35
ATOM     35  C12 non d ame      -3.928  18.579  68.258  0.00  0.00    -0.071 C 
ATOM     36  H13 non d ame      -3.392  19.152  69.014  0.00  0.00     0.028 H 
ATOM     37  H14 non d ame      -3.289  17.780  67.886  0.00  0.00     0.028 H 
ATOM     38  H15 non d ame      -4.208  19.235  67.435  0.00  0.00     0.028 H 
ENDBRANCH  33  35
BRANCH  33  39
ATOM     39  C13 non d ame      -5.900  18.967  69.872  0.00  0.00    -0.071 C 
ATOM     40  H16 non d ame      -5.502  19.967  69.704  0.00  0.00     0.028 H 
ATOM     41  H17 non d ame      -6.977  18.971  69.697  0.00  0.00     0.028 H 
ATOM     42  H18 non d ame      -5.701  18.664  70.899  0.00  0.00     0.028 H 
ENDBRANCH  33  39
ENDBRANCH   7  33
ENDBRANCH   4   7
ENDBRANCH   1   3
BRANCH   1  43
ATOM     43  C15 non d ame      -8.463  13.175  67.336  0.00  0.00     0.240 C 
ATOM     44  O5  non d ame      -8.985  13.840  66.500  0.00  0.00    -0.271 OA
ATOM     45  N6  non d ame      -9.061  11.864  67.719  0.00  0.00    -0.355 N 
ATOM     46  H46 non d ame      -8.624  11.288  68.424  0.00  0.00     0.162 HD
BRANCH  45  47
ATOM     47  C20 non d ame     -10.304  11.405  67.062  0.00  0.00     0.013 C 
ATOM     48  H30 non d ame     -10.967  12.264  66.962  0.00  0.00     0.072 H 
BRANCH  47  49
ATOM     49  C21 non d ame     -10.959  10.344  67.917  0.00  0.00    -0.038 C 
ATOM     50  H31 non d ame     -10.790  10.651  68.949  0.00  0.00     0.036 H 
ATOM     51  H32 non d ame     -11.977  10.247  67.537  0.00  0.00     0.036 H 
BRANCH  49  52
ATOM     52  C22 non d ame     -10.300   8.957  67.761  0.00  0.00     0.018 C 
ATOM     53  H33 non d ame     -11.118   8.236  67.782  0.00  0.00     0.048 H 
ATOM     54  H34 non d ame      -9.662   9.031  66.880  0.00  0.00     0.048 H 
BRANCH  52  55
ATOM     55  C23 non d ame      -9.362   8.573  68.939  0.00  0.00     0.259 C 
ATOM     56  O7  non d ame      -8.771   7.542  68.928  0.00  0.00    -0.265 OA
BRANCH  55  57
ATOM     57  O8  non d ame      -9.227   9.462  70.040  0.00  0.00    -0.317 OA
BRANCH  57  58
ATOM     58  C29 non d ame      -9.547   8.875  71.305  0.00  0.00     0.052 C 
ATOM     59  H47 non d ame      -9.152   7.860  71.268  0.00  0.00     0.082 H 
ATOM     60  H48 non d ame      -9.182   9.575  72.056  0.00  0.00     0.082 H 
BRANCH  58  61
ATOM     61  C35 non d ame     -11.093   8.797  71.418  0.00  0.00    -0.034 A 
ATOM     62  C30 non d ame     -11.725   7.560  71.505  0.00  0.00    -0.075 A 
ATOM     63  C31 non d ame     -13.113   7.491  71.607  0.00  0.00    -0.082 A 
ATOM     64  H49 non d ame     -11.131   6.646  71.495  0.00  0.00     0.084 H 
ATOM     65  C32 non d ame     -13.872   8.664  71.617  0.00  0.00    -0.083 A 
ATOM     66  H50 non d ame     -13.605   6.520  71.678  0.00  0.00     0.083 H 
ATOM     67  C33 non d ame     -13.238   9.897  71.526  0.00  0.00    -0.082 A 
ATOM     68  H51 non d ame     -14.958   8.619  71.697  0.00  0.00     0.083 H 
ATOM     69  C34 non d ame     -11.850   9.970  71.427  0.00  0.00    -0.075 A 
ATOM     70  H52 non d ame     -13.833  10.810  71.533  0.00  0.00     0.083 H 
ATOM     71  H53 non d ame     -11.359  10.942  71.358  0.00  0.00     0.084 H 
ENDBRANCH  58  61
ENDBRANCH  57  58
ENDBRANCH  55  57
ENDBRANCH  52  55
ENDBRANCH  49  52
ENDBRANCH  47  49
BRANCH  47  72
ATOM     72  C24 non d ame      -9.976  10.823  65.689  0.00  0.00    -0.039 C 
ATOM     73  H35 non d ame      -8.890  10.737  65.662  0.00  0.00     0.036 H 
ATOM     74  H36 non d ame     -10.595   9.930  65.597  0.00  0.00     0.036 H 
BRANCH  72  75
ATOM     75  C25 non d ame     -10.402  11.817  64.506  0.00  0.00    -0.001 C 
ATOM     76  C26 non d ame     -11.860  12.498  64.845  0.00  0.00    -0.035 C 
ATOM     77  C27 non d ame     -12.676  12.333  63.776  0.00  0.00     0.085 C 
ATOM     78  H38 non d ame     -12.359  11.939  65.635  0.00  0.00     0.036 H 
ATOM     79  H39 non d ame     -11.758  13.580  64.923  0.00  0.00     0.036 H 
ATOM     80  N5  non d ame     -12.018  11.320  62.870  0.00  0.00    -0.049 N 
ATOM     81  H40 non d ame     -13.597  11.908  64.176  0.00  0.00     0.075 H 
ATOM     82  H41 non d ame     -12.695  13.299  63.273  0.00  0.00     0.075 H 
ATOM     83  C28 non d ame     -10.492  11.193  63.379  0.00  0.00     0.193 C 
ATOM     84  H42 non d ame     -12.487  10.441  63.037  0.00  0.00     0.280 HD
ATOM     85  H43 non d ame     -12.015  11.723  61.944  0.00  0.00     0.280 HD
ATOM     86  H44 non d ame      -9.681  11.666  62.825  0.00  0.00     0.129 H 
ATOM     87  H37 non d ame      -9.593  12.492  64.224  0.00  0.00     0.046 H 
BRANCH  83  88
ATOM     88  O6  non d ame     -10.122   9.818  63.495  0.00  0.00    -0.369 OA
ATOM     89  H45 non d ame     -10.172   9.550  64.416  0.00  0.00     0.212 HD
ENDBRANCH  83  88
ENDBRANCH  72  75
ENDBRANCH  47  72
ENDBRANCH  45  47
ENDBRANCH   1  43
BRANCH   1  90
ATOM     90  C16 non d ame      -7.025  13.042  69.393  0.00  0.00    -0.035 C 
ATOM     91  H21 non d ame      -7.620  13.671  70.056  0.00  0.00     0.037 H 
ATOM     92  H22 non d ame      -7.288  11.993  69.257  0.00  0.00     0.037 H 
BRANCH  90  93
ATOM     93  C17 non d ame      -5.568  13.063  69.956  0.00  0.00    -0.059 C 
ATOM     94  H23 non d ame      -4.892  13.228  69.118  0.00  0.00     0.038 H 
BRANCH  93  95
ATOM     95  C18 non d ame      -5.349  14.222  70.981  0.00  0.00    -0.073 C 
ATOM     96  H24 non d ame      -5.211  15.160  70.443  0.00  0.00     0.028 H 
ATOM     97  H25 non d ame      -6.219  14.300  71.631  0.00  0.00     0.028 H 
ATOM     98  H26 non d ame      -4.463  14.012  71.581  0.00  0.00     0.028 H 
ENDBRANCH  93  95
BRANCH  93  99
ATOM     99  C19 non d ame      -5.201  11.711  70.576  0.00  0.00    -0.073 C 
ATOM    100  H27 non d ame      -4.146  11.503  70.394  0.00  0.00     0.028 H 
ATOM    101  H28 non d ame      -5.387  11.743  71.650  0.00  0.00     0.028 H 
ATOM    102  H29 non d ame      -5.811  10.928  70.126  0.00  0.00     0.028 H 
ENDBRANCH  93  99
ENDBRANCH  90  93
ENDBRANCH   1  90
TORSDOF 26
ENDMDL
MODEL 7
REMARK VINA RESULT:      -6.0      3.958      8.644
REMARK  26 active torsions:
REMARK  status: ('A' for Active; 'I' for Inactive)
REMARK    1  A    between atoms: C2_2  and  C3_3 
REMARK    2  A    between atoms: C4_6  and  C5_7 
REMARK       I    between atoms: C5_7  and  N2_9 
REMARK    3  A    between atoms: N2_9  and  C6_10 
REMARK    4  A    between atoms: C6_10  and  C7_11 
REMARK    5  A    between atoms: C6_10  and  C8_13 
REMARK       I    between atoms: C7_11  and  N3_14 
REMARK    6  A    between atoms: N3_14  and  C9_15 
REMARK    7  A    between atoms: C9_15  and  C10_16 
REMARK    8  A    between atoms: C9_15  and  C11_18 
REMARK       I    between atoms: C10_16  and  N4_21 
REMARK    9  A    between atoms: C11_18  and  C12_19 
REMARK   10  A    between atoms: C11_18  and  C13_20 
REMARK   11  A    between atoms: N4_21  and  C14_22 
REMARK   12  A    between atoms: C14_22  and  C15_23 
REMARK   13  A    between atoms: C14_22  and  C16_25 
REMARK       I    between atoms: C15_23  and  N6_40 
REMARK   14  A    between atoms: C16_25  and  C17_26 
REMARK   15  A    between atoms: C17_26  and  C18_27 
REMARK   16  A    between atoms: C17_26  and  C19_28 
REMARK   17  A    between atoms: C20_29  and  C21_30 
REMARK   18  A    between atoms: C20_29  and  C24_33 
REMARK   19  A    between atoms: C20_29  and  N6_40 
REMARK   20  A    between atoms: C21_30  and  C22_31 
REMARK   21  A    between atoms: C22_31  and  C23_32 
REMARK   22  A    between atoms: C23_32  and  O8_43 
REMARK   23  A    between atoms: C24_33  and  C25_34 
REMARK   24  A    between atoms: C28_38  and  O6_39 
REMARK   25  A    between atoms: C29_42  and  O8_43 
REMARK   26  A    between atoms: C29_42  and  C35_49 
ROOT
ATOM      1  C14 non d ame     -11.398   7.826  70.378  0.00  0.00     0.089 C 
ATOM      2  H20 non d ame     -12.381   7.590  69.968  0.00  0.00     0.087 H 
ENDROOT
BRANCH   1   3
ATOM      3  N4  non d ame     -10.576   6.631  70.261  0.00  0.00    -0.346 N 
ATOM      4  C10 non d ame     -10.520   5.869  68.960  0.00  0.00     0.241 C 
ATOM      5  O4  non d ame     -11.147   6.238  68.021  0.00  0.00    -0.271 OA
ATOM      6  H19 non d ame     -10.052   6.332  71.071  0.00  0.00     0.163 HD
BRANCH   4   7
ATOM      7  C9  non d ame      -9.660   4.637  68.854  0.00  0.00     0.092 C 
ATOM      8  H11 non d ame     -10.156   3.907  68.215  0.00  0.00     0.088 H 
BRANCH   7   9
ATOM      9  N3  non d ame      -8.389   4.982  68.210  0.00  0.00    -0.346 N 
ATOM     10  C7  non d ame      -8.074   4.452  66.907  0.00  0.00     0.240 C 
ATOM     11  O3  non d ame      -8.831   3.745  66.361  0.00  0.00    -0.271 OA
ATOM     12  H10 non d ame      -7.725   5.590  68.669  0.00  0.00     0.163 HD
BRANCH  10  13
ATOM     13  C6  non d ame      -6.717   4.820  66.229  0.00  0.00     0.086 C 
ATOM     14  H6  non d ame      -6.386   4.068  65.512  0.00  0.00     0.086 H 
BRANCH  13  15
ATOM     15  N2  non d ame      -6.883   6.058  65.485  0.00  0.00    -0.343 N 
ATOM     16  C5  non d ame      -6.072   6.297  64.289  0.00  0.00     0.273 C 
ATOM     17  O2  non d ame      -5.287   5.488  63.936  0.00  0.00    -0.266 OA
ATOM     18  H5  non d ame      -7.555   6.746  65.797  0.00  0.00     0.163 HD
BRANCH  16  19
ATOM     19  C4  non d ame      -6.238   7.601  63.494  0.00  0.00     0.154 A 
ATOM     20  C1  non d ame      -7.283   7.924  62.571  0.00  0.00    -0.017 A 
ATOM     21  C2  non d ame      -6.978   9.226  62.118  0.00  0.00     0.077 A 
ATOM     22  H1  non d ame      -8.134   7.308  62.277  0.00  0.00     0.091 H 
ATOM     23  O1  non d ame      -5.885   9.599  62.718  0.00  0.00    -0.218 OA
ATOM     24  N1  non d ame      -5.434   8.667  63.526  0.00  0.00    -0.123 NA
BRANCH  21  25
ATOM     25  C3  non d ame      -7.782  10.043  61.115  0.00  0.00    -0.029 C 
ATOM     26  H2  non d ame      -8.243  10.891  61.622  0.00  0.00     0.036 H 
ATOM     27  H3  non d ame      -7.121  10.406  60.329  0.00  0.00     0.036 H 
ATOM     28  H4  non d ame      -8.560   9.417  60.676  0.00  0.00     0.036 H 
ENDBRANCH  21  25
ENDBRANCH  16  19
ENDBRANCH  13  15
BRANCH  13  29
ATOM     29  C8  non d ame      -5.654   4.990  67.283  0.00  0.00    -0.049 C 
ATOM     30  H7  non d ame      -4.712   5.266  66.808  0.00  0.00     0.030 H 
ATOM     31  H8  non d ame      -5.953   5.772  67.980  0.00  0.00     0.030 H 
ATOM     32  H9  non d ame      -5.525   4.052  67.824  0.00  0.00     0.030 H 
ENDBRANCH  13  29
ENDBRANCH  10  13
ENDBRANCH   7   9
BRANCH   7  33
ATOM     33  C11 non d ame      -9.382   4.076  70.279  0.00  0.00    -0.033 C 
ATOM     34  H12 non d ame     -10.118   4.510  70.953  0.00  0.00     0.042 H 
BRANCH  33  35
ATOM     35  C12 non d ame      -9.561   2.526  70.324  0.00  0.00    -0.071 C 
ATOM     36  H13 non d ame     -10.269   2.219  69.554  0.00  0.00     0.028 H 
ATOM     37  H14 non d ame      -8.600   2.044  70.146  0.00  0.00     0.028 H 
ATOM     38  H15 non d ame      -9.940   2.234  71.302  0.00  0.00     0.028 H 
ENDBRANCH  33  35
BRANCH  33  39
ATOM     39  C13 non d ame      -7.962   4.495  70.778  0.00  0.00    -0.071 C 
ATOM     40  H16 non d ame      -7.652   5.407  70.267  0.00  0.00     0.028 H 
ATOM     41  H17 non d ame      -7.993   4.674  71.853  0.00  0.00     0.028 H 
ATOM     42  H18 non d ame      -7.251   3.698  70.562  0.00  0.00     0.028 H 
ENDBRANCH  33  39
ENDBRANCH   7  33
ENDBRANCH   4   7
ENDBRANCH   1   3
BRANCH   1  43
ATOM     43  C15 non d ame     -10.701   8.983  69.607  0.00  0.00     0.240 C 
ATOM     44  O5  non d ame      -9.735   9.502  70.065  0.00  0.00    -0.271 OA
ATOM     45  N6  non d ame     -11.233   9.438  68.290  0.00  0.00    -0.355 N 
ATOM     46  H46 non d ame     -12.050   9.001  67.889  0.00  0.00     0.162 HD
BRANCH  45  47
ATOM     47  C20 non d ame     -10.558  10.538  67.569  0.00  0.00     0.013 C 
ATOM     48  H30 non d ame      -9.512  10.549  67.875  0.00  0.00     0.072 H 
BRANCH  47  49
ATOM     49  C21 non d ame     -11.215  11.851  67.931  0.00  0.00    -0.038 C 
ATOM     50  H31 non d ame     -11.451  12.333  66.983  0.00  0.00     0.036 H 
ATOM     51  H32 non d ame     -12.014  11.598  68.628  0.00  0.00     0.036 H 
BRANCH  49  52
ATOM     52  C22 non d ame     -10.265  12.808  68.684  0.00  0.00     0.018 C 
ATOM     53  H33 non d ame     -10.670  12.893  69.693  0.00  0.00     0.048 H 
ATOM     54  H34 non d ame      -9.263  12.410  68.531  0.00  0.00     0.048 H 
BRANCH  52  55
ATOM     55  C23 non d ame     -10.246  14.252  68.108  0.00  0.00     0.259 C 
ATOM     56  O7  non d ame     -10.005  14.440  66.960  0.00  0.00    -0.265 OA
BRANCH  55  57
ATOM     57  O8  non d ame     -10.505  15.350  68.973  0.00  0.00    -0.317 OA
BRANCH  57  58
ATOM     58  C29 non d ame     -11.896  15.637  69.149  0.00  0.00     0.052 C 
ATOM     59  H47 non d ame     -12.000  16.708  68.980  0.00  0.00     0.082 H 
ATOM     60  H48 non d ame     -12.425  14.930  68.509  0.00  0.00     0.082 H 
BRANCH  58  61
ATOM     61  C35 non d ame     -12.265  15.333  70.625  0.00  0.00    -0.034 A 
ATOM     62  C30 non d ame     -11.829  16.178  71.641  0.00  0.00    -0.075 A 
ATOM     63  C31 non d ame     -12.161  15.905  72.967  0.00  0.00    -0.082 A 
ATOM     64  H49 non d ame     -11.229  17.055  71.397  0.00  0.00     0.084 H 
ATOM     65  C32 non d ame     -12.928  14.780  73.277  0.00  0.00    -0.083 A 
ATOM     66  H50 non d ame     -11.820  16.572  73.760  0.00  0.00     0.083 H 
ATOM     67  C33 non d ame     -13.358  13.936  72.260  0.00  0.00    -0.082 A 
ATOM     68  H51 non d ame     -13.192  14.559  74.311  0.00  0.00     0.083 H 
ATOM     69  C34 non d ame     -13.030  14.207  70.933  0.00  0.00    -0.075 A 
ATOM     70  H52 non d ame     -13.955  13.058  72.506  0.00  0.00     0.083 H 
ATOM     71  H53 non d ame     -13.373  13.541  70.141  0.00  0.00     0.084 H 
ENDBRANCH  58  61
ENDBRANCH  57  58
ENDBRANCH  55  57
ENDBRANCH  52  55
ENDBRANCH  49  52
ENDBRANCH  47  49
BRANCH  47  72
ATOM     72  C24 non d ame     -10.668  10.311  66.062  0.00  0.00    -0.039 C 
ATOM     73  H35 non d ame     -11.452   9.564  65.938  0.00  0.00     0.036 H 
ATOM     74  H36 non d ame     -10.788  11.303  65.627  0.00  0.00     0.036 H 
BRANCH  72  75
ATOM     75  C25 non d ame      -9.322   9.688  65.456  0.00  0.00    -0.001 C 
ATOM     76  C26 non d ame      -8.302   9.267  66.675  0.00  0.00    -0.035 C 
ATOM     77  C27 non d ame      -7.085   9.810  66.432  0.00  0.00     0.085 C 
ATOM     78  H38 non d ame      -8.613   9.743  67.604  0.00  0.00     0.036 H 
ATOM     79  H39 non d ame      -8.112   8.194  66.649  0.00  0.00     0.036 H 
ATOM     80  N5  non d ame      -7.268  10.830  65.334  0.00  0.00    -0.049 N 
ATOM     81  H40 non d ame      -6.807  10.325  67.352  0.00  0.00     0.075 H 
ATOM     82  H41 non d ame      -6.471   8.992  66.058  0.00  0.00     0.075 H 
ATOM     83  C28 non d ame      -8.718  10.534  64.690  0.00  0.00     0.193 C 
ATOM     84  H42 non d ame      -7.294  11.733  65.784  0.00  0.00     0.280 HD
ATOM     85  H43 non d ame      -6.562  10.633  64.639  0.00  0.00     0.280 HD
ATOM     86  H44 non d ame      -8.805  10.028  63.728  0.00  0.00     0.129 H 
ATOM     87  H37 non d ame      -9.523   8.934  64.695  0.00  0.00     0.046 H 
BRANCH  83  88
ATOM     88  O6  non d ame      -9.453  11.751  64.547  0.00  0.00    -0.369 OA
ATOM     89  H45 non d ame     -10.151  11.629  63.899  0.00  0.00     0.212 HD
ENDBRANCH  83  88
ENDBRANCH  72  75
ENDBRANCH  47  72
ENDBRANCH  45  47
ENDBRANCH   1  43
BRANCH   1  90
ATOM     90  C16 non d ame     -11.529   8.196  71.847  0.00  0.00    -0.035 C 
ATOM     91  H21 non d ame     -11.414   7.258  72.392  0.00  0.00     0.037 H 
ATOM     92  H22 non d ame     -10.819   9.007  72.004  0.00  0.00     0.037 H 
BRANCH  90  93
ATOM     93  C17 non d ame     -12.934   8.759  72.229  0.00  0.00    -0.059 C 
ATOM     94  H23 non d ame     -13.023   8.718  73.314  0.00  0.00     0.038 H 
BRANCH  93  95
ATOM     95  C18 non d ame     -13.112  10.248  71.793  0.00  0.00    -0.073 C 
ATOM     96  H24 non d ame     -12.154  10.644  71.455  0.00  0.00     0.028 H 
ATOM     97  H25 non d ame     -13.836  10.305  70.980  0.00  0.00     0.028 H 
ATOM     98  H26 non d ame     -13.470  10.834  72.640  0.00  0.00     0.028 H 
ENDBRANCH  93  95
BRANCH  93  99
ATOM     99  C19 non d ame     -14.050   7.885  71.649  0.00  0.00    -0.073 C 
ATOM    100  H27 non d ame     -14.992   8.121  72.146  0.00  0.00     0.028 H 
ATOM    101  H28 non d ame     -14.144   8.079  70.581  0.00  0.00     0.028 H 
ATOM    102  H29 non d ame     -13.808   6.834  71.807  0.00  0.00     0.028 H 
ENDBRANCH  93  99
ENDBRANCH  90  93
ENDBRANCH   1  90
TORSDOF 26
ENDMDL
MODEL 8
REMARK VINA RESULT:      -6.0      2.470      7.586
REMARK  26 active torsions:
REMARK  status: ('A' for Active; 'I' for Inactive)
REMARK    1  A    between atoms: C2_2  and  C3_3 
REMARK    2  A    between atoms: C4_6  and  C5_7 
REMARK       I    between atoms: C5_7  and  N2_9 
REMARK    3  A    between atoms: N2_9  and  C6_10 
REMARK    4  A    between atoms: C6_10  and  C7_11 
REMARK    5  A    between atoms: C6_10  and  C8_13 
REMARK       I    between atoms: C7_11  and  N3_14 
REMARK    6  A    between atoms: N3_14  and  C9_15 
REMARK    7  A    between atoms: C9_15  and  C10_16 
REMARK    8  A    between atoms: C9_15  and  C11_18 
REMARK       I    between atoms: C10_16  and  N4_21 
REMARK    9  A    between atoms: C11_18  and  C12_19 
REMARK   10  A    between atoms: C11_18  and  C13_20 
REMARK   11  A    between atoms: N4_21  and  C14_22 
REMARK   12  A    between atoms: C14_22  and  C15_23 
REMARK   13  A    between atoms: C14_22  and  C16_25 
REMARK       I    between atoms: C15_23  and  N6_40 
REMARK   14  A    between atoms: C16_25  and  C17_26 
REMARK   15  A    between atoms: C17_26  and  C18_27 
REMARK   16  A    between atoms: C17_26  and  C19_28 
REMARK   17  A    between atoms: C20_29  and  C21_30 
REMARK   18  A    between atoms: C20_29  and  C24_33 
REMARK   19  A    between atoms: C20_29  and  N6_40 
REMARK   20  A    between atoms: C21_30  and  C22_31 
REMARK   21  A    between atoms: C22_31  and  C23_32 
REMARK   22  A    between atoms: C23_32  and  O8_43 
REMARK   23  A    between atoms: C24_33  and  C25_34 
REMARK   24  A    between atoms: C28_38  and  O6_39 
REMARK   25  A    between atoms: C29_42  and  O8_43 
REMARK   26  A    between atoms: C29_42  and  C35_49 
ROOT
ATOM      1  C14 non d ame     -10.154   9.864  68.957  0.00  0.00     0.089 C 
ATOM      2  H20 non d ame     -10.452   8.958  68.428  0.00  0.00     0.087 H 
ENDROOT
BRANCH   1   3
ATOM      3  N4  non d ame      -8.952  10.373  68.314  0.00  0.00    -0.346 N 
ATOM      4  C10 non d ame      -8.675  10.064  66.864  0.00  0.00     0.241 C 
ATOM      5  O4  non d ame      -9.434   9.400  66.236  0.00  0.00    -0.271 OA
ATOM      6  H19 non d ame      -8.318  10.934  68.865  0.00  0.00     0.163 HD
BRANCH   4   7
ATOM      7  C9  non d ame      -7.429  10.603  66.212  0.00  0.00     0.092 C 
ATOM      8  H11 non d ame      -7.664  11.540  65.708  0.00  0.00     0.088 H 
BRANCH   7   9
ATOM      9  N3  non d ame      -6.430  10.905  67.242  0.00  0.00    -0.346 N 
ATOM     10  C7  non d ame      -6.355  12.229  67.806  0.00  0.00     0.240 C 
ATOM     11  O3  non d ame      -7.089  13.065  67.444  0.00  0.00    -0.271 OA
ATOM     12  H10 non d ame      -5.789  10.194  67.564  0.00  0.00     0.163 HD
BRANCH  10  13
ATOM     13  C6  non d ame      -5.287  12.545  68.900  0.00  0.00     0.086 C 
ATOM     14  H6  non d ame      -4.278  12.622  68.495  0.00  0.00     0.086 H 
BRANCH  13  15
ATOM     15  N2  non d ame      -5.593  13.833  69.499  0.00  0.00    -0.343 N 
ATOM     16  C5  non d ame      -4.748  14.990  69.195  0.00  0.00     0.273 C 
ATOM     17  O2  non d ame      -3.823  14.873  68.470  0.00  0.00    -0.266 OA
ATOM     18  H5  non d ame      -6.385  13.924  70.120  0.00  0.00     0.163 HD
BRANCH  16  19
ATOM     19  C4  non d ame      -5.061  16.358  69.821  0.00  0.00     0.154 A 
ATOM     20  C1  non d ame      -5.621  17.501  69.167  0.00  0.00    -0.017 A 
ATOM     21  C2  non d ame      -5.708  18.489  70.172  0.00  0.00     0.077 A 
ATOM     22  H1  non d ame      -5.918  17.598  68.122  0.00  0.00     0.091 H 
ATOM     23  O1  non d ame      -5.252  17.964  71.272  0.00  0.00    -0.218 OA
ATOM     24  N1  non d ame      -4.868  16.721  71.092  0.00  0.00    -0.123 NA
BRANCH  21  25
ATOM     25  C3  non d ame      -6.240  19.906  70.000  0.00  0.00    -0.029 C 
ATOM     26  H2  non d ame      -5.574  20.608  70.501  0.00  0.00     0.036 H 
ATOM     27  H3  non d ame      -6.292  20.148  68.939  0.00  0.00     0.036 H 
ATOM     28  H4  non d ame      -7.237  19.975  70.438  0.00  0.00     0.036 H 
ENDBRANCH  21  25
ENDBRANCH  16  19
ENDBRANCH  13  15
BRANCH  13  29
ATOM     29  C8  non d ame      -5.308  11.467  69.953  0.00  0.00    -0.049 C 
ATOM     30  H7  non d ame      -6.279  10.970  69.944  0.00  0.00     0.030 H 
ATOM     31  H8  non d ame      -4.525  10.739  69.746  0.00  0.00     0.030 H 
ATOM     32  H9  non d ame      -5.140  11.914  70.933  0.00  0.00     0.030 H 
ENDBRANCH  13  29
ENDBRANCH  10  13
ENDBRANCH   7   9
BRANCH   7  33
ATOM     33  C11 non d ame      -6.855   9.539  65.231  0.00  0.00    -0.033 C 
ATOM     34  H12 non d ame      -7.560   8.709  65.196  0.00  0.00     0.042 H 
BRANCH  33  35
ATOM     35  C12 non d ame      -6.728  10.109  63.784  0.00  0.00    -0.071 C 
ATOM     36  H13 non d ame      -6.945  11.177  63.794  0.00  0.00     0.028 H 
ATOM     37  H14 non d ame      -5.714   9.948  63.418  0.00  0.00     0.028 H 
ATOM     38  H15 non d ame      -7.436   9.600  63.131  0.00  0.00     0.028 H 
ENDBRANCH  33  35
BRANCH  33  39
ATOM     39  C13 non d ame      -5.486   8.987  65.744  0.00  0.00    -0.071 C 
ATOM     40  H16 non d ame      -5.559   8.765  66.808  0.00  0.00     0.028 H 
ATOM     41  H17 non d ame      -5.234   8.076  65.199  0.00  0.00     0.028 H 
ATOM     42  H18 non d ame      -4.709   9.734  65.582  0.00  0.00     0.028 H 
ENDBRANCH  33  39
ENDBRANCH   7  33
ENDBRANCH   4   7
ENDBRANCH   1   3
BRANCH   1  43
ATOM     43  C15 non d ame     -11.251  10.966  68.899  0.00  0.00     0.240 C 
ATOM     44  O5  non d ame     -12.108  10.904  68.079  0.00  0.00    -0.271 OA
ATOM     45  N6  non d ame     -11.236  12.095  69.872  0.00  0.00    -0.355 N 
ATOM     46  H46 non d ame     -10.515  12.156  70.576  0.00  0.00     0.162 HD
BRANCH  45  47
ATOM     47  C20 non d ame     -12.286  13.134  69.804  0.00  0.00     0.013 C 
ATOM     48  H30 non d ame     -13.115  12.736  69.219  0.00  0.00     0.072 H 
BRANCH  47  49
ATOM     49  C21 non d ame     -11.726  14.368  69.133  0.00  0.00    -0.038 C 
ATOM     50  H31 non d ame     -12.307  15.204  69.522  0.00  0.00     0.036 H 
ATOM     51  H32 non d ame     -10.649  14.329  69.297  0.00  0.00     0.036 H 
BRANCH  49  52
ATOM     52  C22 non d ame     -11.936  14.365  67.603  0.00  0.00     0.018 C 
ATOM     53  H33 non d ame     -12.563  13.498  67.392  0.00  0.00     0.048 H 
ATOM     54  H34 non d ame     -12.286  15.365  67.351  0.00  0.00     0.048 H 
BRANCH  52  55
ATOM     55  C23 non d ame     -10.627  14.152  66.792  0.00  0.00     0.259 C 
ATOM     56  O7  non d ame     -10.376  13.091  66.319  0.00  0.00    -0.265 OA
BRANCH  55  57
ATOM     57  O8  non d ame      -9.722  15.238  66.633  0.00  0.00    -0.317 OA
BRANCH  57  58
ATOM     58  C29 non d ame     -10.251  16.329  65.873  0.00  0.00     0.052 C 
ATOM     59  H47 non d ame      -9.613  16.414  64.995  0.00  0.00     0.082 H 
ATOM     60  H48 non d ame     -11.314  16.118  65.756  0.00  0.00     0.082 H 
BRANCH  58  61
ATOM     61  C35 non d ame     -10.098  17.621  66.720  0.00  0.00    -0.034 A 
ATOM     62  C30 non d ame      -9.771  17.535  68.069  0.00  0.00    -0.075 A 
ATOM     63  C31 non d ame      -9.633  18.696  68.829  0.00  0.00    -0.082 A 
ATOM     64  H49 non d ame      -9.621  16.559  68.531  0.00  0.00     0.084 H 
ATOM     65  C32 non d ame      -9.828  19.946  68.236  0.00  0.00    -0.083 A 
ATOM     66  H50 non d ame      -9.373  18.625  69.886  0.00  0.00     0.083 H 
ATOM     67  C33 non d ame     -10.158  20.026  66.889  0.00  0.00    -0.082 A 
ATOM     68  H51 non d ame      -9.721  20.858  68.823  0.00  0.00     0.083 H 
ATOM     69  C34 non d ame     -10.294  18.869  66.126  0.00  0.00    -0.075 A 
ATOM     70  H52 non d ame     -10.310  21.003  66.430  0.00  0.00     0.083 H 
ATOM     71  H53 non d ame     -10.552  18.941  65.068  0.00  0.00     0.084 H 
ENDBRANCH  58  61
ENDBRANCH  57  58
ENDBRANCH  55  57
ENDBRANCH  52  55
ENDBRANCH  49  52
ENDBRANCH  47  49
BRANCH  47  72
ATOM     72  C24 non d ame     -12.754  13.488  71.214  0.00  0.00    -0.039 C 
ATOM     73  H35 non d ame     -13.777  13.116  71.282  0.00  0.00     0.036 H 
ATOM     74  H36 non d ame     -11.987  13.095  71.882  0.00  0.00     0.036 H 
BRANCH  72  75
ATOM     75  C25 non d ame     -12.811  15.073  71.441  0.00  0.00    -0.001 C 
ATOM     76  C26 non d ame     -11.736  15.511  72.605  0.00  0.00    -0.035 C 
ATOM     77  C27 non d ame     -12.376  16.269  73.527  0.00  0.00     0.085 C 
ATOM     78  H38 non d ame     -11.419  14.635  73.171  0.00  0.00     0.036 H 
ATOM     79  H39 non d ame     -10.991  16.190  72.191  0.00  0.00     0.036 H 
ATOM     80  N5  non d ame     -13.857  16.116  73.273  0.00  0.00    -0.049 N 
ATOM     81  H40 non d ame     -12.133  15.822  74.492  0.00  0.00     0.075 H 
ATOM     82  H41 non d ame     -12.084  17.296  73.313  0.00  0.00     0.075 H 
ATOM     83  C28 non d ame     -13.990  15.452  71.808  0.00  0.00     0.193 C 
ATOM     84  H42 non d ame     -14.198  15.456  73.957  0.00  0.00     0.280 HD
ATOM     85  H43 non d ame     -14.239  17.050  73.238  0.00  0.00     0.280 HD
ATOM     86  H44 non d ame     -14.280  16.057  70.949  0.00  0.00     0.129 H 
ATOM     87  H37 non d ame     -12.777  15.625  70.501  0.00  0.00     0.046 H 
BRANCH  83  88
ATOM     88  O6  non d ame     -14.918  14.366  71.840  0.00  0.00    -0.369 OA
ATOM     89  H45 non d ame     -14.501  13.601  72.243  0.00  0.00     0.212 HD
ENDBRANCH  83  88
ENDBRANCH  72  75
ENDBRANCH  47  72
ENDBRANCH  45  47
ENDBRANCH   1  43
BRANCH   1  90
ATOM     90  C16 non d ame      -9.839   9.534  70.407  0.00  0.00    -0.035 C 
ATOM     91  H21 non d ame      -8.918   8.948  70.375  0.00  0.00     0.037 H 
ATOM     92  H22 non d ame      -9.859  10.488  70.932  0.00  0.00     0.037 H 
BRANCH  90  93
ATOM     93  C17 non d ame     -10.912   8.630  71.092  0.00  0.00    -0.059 C 
ATOM     94  H23 non d ame     -11.818   9.225  71.210  0.00  0.00     0.038 H 
BRANCH  93  95
ATOM     95  C18 non d ame     -11.272   7.381  70.226  0.00  0.00    -0.073 C 
ATOM     96  H24 non d ame     -10.413   6.712  70.179  0.00  0.00     0.028 H 
ATOM     97  H25 non d ame     -12.116   6.858  70.676  0.00  0.00     0.028 H 
ATOM     98  H26 non d ame     -11.539   7.702  69.219  0.00  0.00     0.028 H 
ENDBRANCH  93  95
BRANCH  93  99
ATOM     99  C19 non d ame     -10.460   8.209  72.493  0.00  0.00    -0.073 C 
ATOM    100  H27 non d ame      -9.492   8.660  72.713  0.00  0.00     0.028 H 
ATOM    101  H28 non d ame     -11.194   8.545  73.227  0.00  0.00     0.028 H 
ATOM    102  H29 non d ame     -10.375   7.123  72.537  0.00  0.00     0.028 H 
ENDBRANCH  93  99
ENDBRANCH  90  93
ENDBRANCH   1  90
TORSDOF 26
ENDMDL
MODEL 9
REMARK VINA RESULT:      -5.9      3.251      9.094
REMARK  26 active torsions:
REMARK  status: ('A' for Active; 'I' for Inactive)
REMARK    1  A    between atoms: C2_2  and  C3_3 
REMARK    2  A    between atoms: C4_6  and  C5_7 
REMARK       I    between atoms: C5_7  and  N2_9 
REMARK    3  A    between atoms: N2_9  and  C6_10 
REMARK    4  A    between atoms: C6_10  and  C7_11 
REMARK    5  A    between atoms: C6_10  and  C8_13 
REMARK       I    between atoms: C7_11  and  N3_14 
REMARK    6  A    between atoms: N3_14  and  C9_15 
REMARK    7  A    between atoms: C9_15  and  C10_16 
REMARK    8  A    between atoms: C9_15  and  C11_18 
REMARK       I    between atoms: C10_16  and  N4_21 
REMARK    9  A    between atoms: C11_18  and  C12_19 
REMARK   10  A    between atoms: C11_18  and  C13_20 
REMARK   11  A    between atoms: N4_21  and  C14_22 
REMARK   12  A    between atoms: C14_22  and  C15_23 
REMARK   13  A    between atoms: C14_22  and  C16_25 
REMARK       I    between atoms: C15_23  and  N6_40 
REMARK   14  A    between atoms: C16_25  and  C17_26 
REMARK   15  A    between atoms: C17_26  and  C18_27 
REMARK   16  A    between atoms: C17_26  and  C19_28 
REMARK   17  A    between atoms: C20_29  and  C21_30 
REMARK   18  A    between atoms: C20_29  and  C24_33 
REMARK   19  A    between atoms: C20_29  and  N6_40 
REMARK   20  A    between atoms: C21_30  and  C22_31 
REMARK   21  A    between atoms: C22_31  and  C23_32 
REMARK   22  A    between atoms: C23_32  and  O8_43 
REMARK   23  A    between atoms: C24_33  and  C25_34 
REMARK   24  A    between atoms: C28_38  and  O6_39 
REMARK   25  A    between atoms: C29_42  and  O8_43 
REMARK   26  A    between atoms: C29_42  and  C35_49 
ROOT
ATOM      1  C14 non d ame      -8.785   9.677  65.243  0.00  0.00     0.089 C 
ATOM      2  H20 non d ame      -7.802   9.870  65.673  0.00  0.00     0.087 H 
ENDROOT
BRANCH   1   3
ATOM      3  N4  non d ame      -9.027   8.244  65.329  0.00  0.00    -0.346 N 
ATOM      4  C10 non d ame      -7.951   7.320  65.844  0.00  0.00     0.241 C 
ATOM      5  O4  non d ame      -6.899   7.753  66.181  0.00  0.00    -0.271 OA
ATOM      6  H19 non d ame      -9.928   7.895  65.035  0.00  0.00     0.163 HD
BRANCH   4   7
ATOM      7  C9  non d ame      -8.220   5.841  65.931  0.00  0.00     0.092 C 
ATOM      8  H11 non d ame      -7.271   5.303  65.938  0.00  0.00     0.088 H 
BRANCH   7   9
ATOM      9  N3  non d ame      -8.897   5.540  67.197  0.00  0.00    -0.346 N 
ATOM     10  C7  non d ame      -8.135   5.077  68.329  0.00  0.00     0.240 C 
ATOM     11  O3  non d ame      -6.976   4.939  68.241  0.00  0.00    -0.271 OA
ATOM     12  H10 non d ame      -9.897   5.654  67.288  0.00  0.00     0.163 HD
BRANCH  10  13
ATOM     13  C6  non d ame      -8.862   4.756  69.673  0.00  0.00     0.086 C 
ATOM     14  H6  non d ame      -8.221   4.899  70.543  0.00  0.00     0.086 H 
BRANCH  13  15
ATOM     15  N2  non d ame      -9.985   5.665  69.829  0.00  0.00    -0.343 N 
ATOM     16  C5  non d ame     -10.227   6.297  71.128  0.00  0.00     0.273 C 
ATOM     17  O2  non d ame      -9.515   6.064  72.042  0.00  0.00    -0.266 OA
ATOM     18  H5  non d ame     -10.591   5.856  69.044  0.00  0.00     0.163 HD
BRANCH  16  19
ATOM     19  C4  non d ame     -11.411   7.260  71.307  0.00  0.00     0.154 A 
ATOM     20  C1  non d ame     -11.349   8.669  71.554  0.00  0.00    -0.017 A 
ATOM     21  C2  non d ame     -12.697   9.082  71.637  0.00  0.00     0.077 A 
ATOM     22  H1  non d ame     -10.463   9.295  71.657  0.00  0.00     0.091 H 
ATOM     23  O1  non d ame     -13.438   8.028  71.455  0.00  0.00    -0.218 OA
ATOM     24  N1  non d ame     -12.710   6.952  71.261  0.00  0.00    -0.123 NA
BRANCH  21  25
ATOM     25  C3  non d ame     -13.191  10.500  71.890  0.00  0.00    -0.029 C 
ATOM     26  H2  non d ame     -14.113  10.466  72.470  0.00  0.00     0.036 H 
ATOM     27  H3  non d ame     -12.434  11.056  72.442  0.00  0.00     0.036 H 
ATOM     28  H4  non d ame     -13.381  10.995  70.936  0.00  0.00     0.036 H 
ENDBRANCH  21  25
ENDBRANCH  16  19
ENDBRANCH  13  15
BRANCH  13  29
ATOM     29  C8  non d ame      -9.350   3.330  69.655  0.00  0.00    -0.049 C 
ATOM     30  H7  non d ame      -8.757   2.752  68.946  0.00  0.00     0.030 H 
ATOM     31  H8  non d ame      -9.250   2.898  70.650  0.00  0.00     0.030 H 
ATOM     32  H9  non d ame     -10.397   3.309  69.353  0.00  0.00     0.030 H 
ENDBRANCH  13  29
ENDBRANCH  10  13
ENDBRANCH   7   9
BRANCH   7  33
ATOM     33  C11 non d ame      -9.129   5.408  64.744  0.00  0.00    -0.033 C 
ATOM     34  H12 non d ame      -9.876   6.187  64.600  0.00  0.00     0.042 H 
BRANCH  33  35
ATOM     35  C12 non d ame      -8.314   5.288  63.418  0.00  0.00    -0.071 C 
ATOM     36  H13 non d ame      -8.995   5.095  62.589  0.00  0.00     0.028 H 
ATOM     37  H14 non d ame      -7.775   6.217  63.238  0.00  0.00     0.028 H 
ATOM     38  H15 non d ame      -7.604   4.466  63.503  0.00  0.00     0.028 H 
ENDBRANCH  33  35
BRANCH  33  39
ATOM     39  C13 non d ame      -9.877   4.075  65.070  0.00  0.00    -0.071 C 
ATOM     40  H16 non d ame      -9.150   3.282  65.241  0.00  0.00     0.028 H 
ATOM     41  H17 non d ame     -10.486   4.210  65.965  0.00  0.00     0.028 H 
ATOM     42  H18 non d ame     -10.519   3.804  64.232  0.00  0.00     0.028 H 
ENDBRANCH  33  39
ENDBRANCH   7  33
ENDBRANCH   4   7
ENDBRANCH   1   3
BRANCH   1  43
ATOM     43  C15 non d ame      -9.918  10.416  66.010  0.00  0.00     0.240 C 
ATOM     44  O5  non d ame     -10.595   9.820  66.784  0.00  0.00    -0.271 OA
ATOM     45  N6  non d ame     -10.154  11.871  65.786  0.00  0.00    -0.355 N 
ATOM     46  H46 non d ame      -9.583  12.389  65.135  0.00  0.00     0.162 HD
BRANCH  45  47
ATOM     47  C20 non d ame     -11.235  12.560  66.524  0.00  0.00     0.013 C 
ATOM     48  H30 non d ame     -11.971  11.811  66.819  0.00  0.00     0.072 H 
BRANCH  47  49
ATOM     49  C21 non d ame     -11.879  13.589  65.623  0.00  0.00    -0.038 C 
ATOM     50  H31 non d ame     -12.516  13.026  64.941  0.00  0.00     0.036 H 
ATOM     51  H32 non d ame     -12.318  14.332  66.290  0.00  0.00     0.036 H 
BRANCH  49  52
ATOM     52  C22 non d ame     -10.856  14.340  64.744  0.00  0.00     0.018 C 
ATOM     53  H33 non d ame      -9.894  14.221  65.244  0.00  0.00     0.048 H 
ATOM     54  H34 non d ame     -10.996  13.957  63.734  0.00  0.00     0.048 H 
BRANCH  52  55
ATOM     55  C23 non d ame     -11.107  15.872  64.661  0.00  0.00     0.259 C 
ATOM     56  O7  non d ame     -11.901  16.312  63.894  0.00  0.00    -0.265 OA
BRANCH  55  57
ATOM     57  O8  non d ame     -10.366  16.746  65.503  0.00  0.00    -0.317 OA
BRANCH  57  58
ATOM     58  C29 non d ame      -9.150  16.181  66.002  0.00  0.00     0.052 C 
ATOM     59  H47 non d ame      -9.447  15.310  66.584  0.00  0.00     0.082 H 
ATOM     60  H48 non d ame      -8.502  16.062  65.134  0.00  0.00     0.082 H 
BRANCH  58  61
ATOM     61  C35 non d ame      -8.500  17.215  66.960  0.00  0.00    -0.034 A 
ATOM     62  C30 non d ame      -7.676  16.785  67.995  0.00  0.00    -0.075 A 
ATOM     63  C31 non d ame      -7.093  17.714  68.856  0.00  0.00    -0.082 A 
ATOM     64  H49 non d ame      -7.487  15.720  68.132  0.00  0.00     0.084 H 
ATOM     65  C32 non d ame      -7.338  19.078  68.680  0.00  0.00    -0.083 A 
ATOM     66  H50 non d ame      -6.445  17.373  69.664  0.00  0.00     0.083 H 
ATOM     67  C33 non d ame      -8.164  19.503  67.647  0.00  0.00    -0.082 A 
ATOM     68  H51 non d ame      -6.885  19.811  69.348  0.00  0.00     0.083 H 
ATOM     69  C34 non d ame      -8.747  18.578  66.784  0.00  0.00    -0.075 A 
ATOM     70  H52 non d ame      -8.355  20.568  67.515  0.00  0.00     0.083 H 
ATOM     71  H53 non d ame      -9.394  18.920  65.975  0.00  0.00     0.084 H 
ENDBRANCH  58  61
ENDBRANCH  57  58
ENDBRANCH  55  57
ENDBRANCH  52  55
ENDBRANCH  49  52
ENDBRANCH  47  49
BRANCH  47  72
ATOM     72  C24 non d ame     -10.658  13.251  67.757  0.00  0.00    -0.039 C 
ATOM     73  H35 non d ame     -10.239  12.451  68.369  0.00  0.00     0.036 H 
ATOM     74  H36 non d ame     -10.009  14.038  67.372  0.00  0.00     0.036 H 
BRANCH  72  75
ATOM     75  C25 non d ame     -11.799  13.963  68.627  0.00  0.00    -0.001 C 
ATOM     76  C26 non d ame     -11.405  15.539  68.885  0.00  0.00    -0.035 C 
ATOM     77  C27 non d ame     -11.499  15.800  70.211  0.00  0.00     0.085 C 
ATOM     78  H38 non d ame     -10.350  15.701  68.668  0.00  0.00     0.036 H 
ATOM     79  H39 non d ame     -12.158  16.190  68.443  0.00  0.00     0.036 H 
ATOM     80  N5  non d ame     -11.602  14.469  70.917  0.00  0.00    -0.049 N 
ATOM     81  H40 non d ame     -10.555  16.274  70.483  0.00  0.00     0.075 H 
ATOM     82  H41 non d ame     -12.436  16.341  70.335  0.00  0.00     0.075 H 
ATOM     83  C28 non d ame     -11.946  13.384  69.772  0.00  0.00     0.193 C 
ATOM     84  H42 non d ame     -10.684  14.269  71.285  0.00  0.00     0.280 HD
ATOM     85  H43 non d ame     -12.393  14.537  71.542  0.00  0.00     0.280 HD
ATOM     86  H44 non d ame     -12.956  12.990  69.667  0.00  0.00     0.129 H 
ATOM     87  H37 non d ame     -12.799  13.759  68.242  0.00  0.00     0.046 H 
BRANCH  83  88
ATOM     88  O6  non d ame     -11.102  12.239  69.908  0.00  0.00    -0.369 OA
ATOM     89  H45 non d ame     -10.724  12.224  70.791  0.00  0.00     0.212 HD
ENDBRANCH  83  88
ENDBRANCH  72  75
ENDBRANCH  47  72
ENDBRANCH  45  47
ENDBRANCH   1  43
BRANCH   1  90
ATOM     90  C16 non d ame      -8.800  10.095  63.782  0.00  0.00    -0.035 C 
ATOM     91  H21 non d ame      -9.692   9.633  63.358  0.00  0.00     0.037 H 
ATOM     92  H22 non d ame      -8.701  11.180  63.791  0.00  0.00     0.037 H 
BRANCH  90  93
ATOM     93  C17 non d ame      -7.588   9.548  62.961  0.00  0.00    -0.059 C 
ATOM     94  H23 non d ame      -7.582   8.464  63.065  0.00  0.00     0.038 H 
BRANCH  93  95
ATOM     95  C18 non d ame      -7.709   9.880  61.439  0.00  0.00    -0.073 C 
ATOM     96  H24 non d ame      -8.578   9.369  61.024  0.00  0.00     0.028 H 
ATOM     97  H25 non d ame      -7.826  10.956  61.310  0.00  0.00     0.028 H 
ATOM     98  H26 non d ame      -6.809   9.547  60.922  0.00  0.00     0.028 H 
ENDBRANCH  93  95
BRANCH  93  99
ATOM     99  C19 non d ame      -6.264  10.067  63.528  0.00  0.00    -0.073 C 
ATOM    100  H27 non d ame      -6.466  10.777  64.331  0.00  0.00     0.028 H 
ATOM    101  H28 non d ame      -5.685   9.230  63.919  0.00  0.00     0.028 H 
ATOM    102  H29 non d ame      -5.699  10.561  62.738  0.00  0.00     0.028 H 
ENDBRANCH  93  99
ENDBRANCH  90  93
ENDBRANCH   1  90
TORSDOF 26
ENDMDL
MODEL 10
REMARK VINA RESULT:      -5.9      3.473      8.166
REMARK  26 active torsions:
REMARK  status: ('A' for Active; 'I' for Inactive)
REMARK    1  A    between atoms: C2_2  and  C3_3 
REMARK    2  A    between atoms: C4_6  and  C5_7 
REMARK       I    between atoms: C5_7  and  N2_9 
REMARK    3  A    between atoms: N2_9  and  C6_10 
REMARK    4  A    between atoms: C6_10  and  C7_11 
REMARK    5  A    between atoms: C6_10  and  C8_13 
REMARK       I    between atoms: C7_11  and  N3_14 
REMARK    6  A    between atoms: N3_14  and  C9_15 
REMARK    7  A    between atoms: C9_15  and  C10_16 
REMARK    8  A    between atoms: C9_15  and  C11_18 
REMARK       I    between atoms: C10_16  and  N4_21 
REMARK    9  A    between atoms: C11_18  and  C12_19 
REMARK   10  A    between atoms: C11_18  and  C13_20 
REMARK   11  A    between atoms: N4_21  and  C14_22 
REMARK   12  A    between atoms: C14_22  and  C15_23 
REMARK   13  A    between atoms: C14_22  and  C16_25 
REMARK       I    between atoms: C15_23  and  N6_40 
REMARK   14  A    between atoms: C16_25  and  C17_26 
REMARK   15  A    between atoms: C17_26  and  C18_27 
REMARK   16  A    between atoms: C17_26  and  C19_28 
REMARK   17  A    between atoms: C20_29  and  C21_30 
REMARK   18  A    between atoms: C20_29  and  C24_33 
REMARK   19  A    between atoms: C20_29  and  N6_40 
REMARK   20  A    between atoms: C21_30  and  C22_31 
REMARK   21  A    between atoms: C22_31  and  C23_32 
REMARK   22  A    between atoms: C23_32  and  O8_43 
REMARK   23  A    between atoms: C24_33  and  C25_34 
REMARK   24  A    between atoms: C28_38  and  O6_39 
REMARK   25  A    between atoms: C29_42  and  O8_43 
REMARK   26  A    between atoms: C29_42  and  C35_49 
ROOT
ATOM      1  C14 non d ame      -9.820  10.117  64.438  0.00  0.00     0.089 C 
ATOM      2  H20 non d ame     -10.643   9.440  64.671  0.00  0.00     0.087 H 
ENDROOT
BRANCH   1   3
ATOM      3  N4  non d ame      -9.293  10.616  65.699  0.00  0.00    -0.346 N 
ATOM      4  C10 non d ame      -9.918  10.196  67.006  0.00  0.00     0.241 C 
ATOM      5  O4  non d ame     -10.847   9.456  67.016  0.00  0.00    -0.271 OA
ATOM      6  H19 non d ame      -8.504  11.246  65.669  0.00  0.00     0.163 HD
BRANCH   4   7
ATOM      7  C9  non d ame      -9.357  10.717  68.302  0.00  0.00     0.092 C 
ATOM      8  H11 non d ame      -8.343  11.080  68.134  0.00  0.00     0.088 H 
BRANCH   7   9
ATOM      9  N3  non d ame     -10.156  11.861  68.756  0.00  0.00    -0.346 N 
ATOM     10  C7  non d ame      -9.867  13.183  68.261  0.00  0.00     0.240 C 
ATOM     11  O3  non d ame      -8.995  13.348  67.498  0.00  0.00    -0.271 OA
ATOM     12  H10 non d ame     -10.911  11.735  69.415  0.00  0.00     0.163 HD
BRANCH  10  13
ATOM     13  C6  non d ame     -10.718  14.396  68.751  0.00  0.00     0.086 C 
ATOM     14  H6  non d ame     -10.714  14.504  69.835  0.00  0.00     0.086 H 
BRANCH  13  15
ATOM     15  N2  non d ame     -10.151  15.620  68.209  0.00  0.00    -0.343 N 
ATOM     16  C5  non d ame     -10.486  16.906  68.824  0.00  0.00     0.273 C 
ATOM     17  O2  non d ame     -11.216  16.945  69.752  0.00  0.00    -0.266 OA
ATOM     18  H5  non d ame      -9.530  15.577  67.413  0.00  0.00     0.163 HD
BRANCH  16  19
ATOM     19  C4  non d ame      -9.892  18.206  68.262  0.00  0.00     0.154 A 
ATOM     20  C1  non d ame      -8.511  18.580  68.221  0.00  0.00    -0.017 A 
ATOM     21  C2  non d ame      -8.498  19.855  67.612  0.00  0.00     0.077 A 
ATOM     22  H1  non d ame      -7.651  18.013  68.578  0.00  0.00     0.091 H 
ATOM     23  O1  non d ame      -9.731  20.166  67.337  0.00  0.00    -0.218 OA
ATOM     24  N1  non d ame     -10.563  19.220  67.707  0.00  0.00    -0.123 NA
BRANCH  21  25
ATOM     25  C3  non d ame      -7.266  20.705  67.328  0.00  0.00    -0.029 C 
ATOM     26  H2  non d ame      -6.563  20.135  66.722  0.00  0.00     0.036 H 
ATOM     27  H3  non d ame      -7.562  21.605  66.791  0.00  0.00     0.036 H 
ATOM     28  H4  non d ame      -6.792  20.983  68.270  0.00  0.00     0.036 H 
ENDBRANCH  21  25
ENDBRANCH  16  19
ENDBRANCH  13  15
BRANCH  13  29
ATOM     29  C8  non d ame     -12.142  14.236  68.282  0.00  0.00    -0.049 C 
ATOM     30  H7  non d ame     -12.387  13.175  68.222  0.00  0.00     0.030 H 
ATOM     31  H8  non d ame     -12.815  14.724  68.987  0.00  0.00     0.030 H 
ATOM     32  H9  non d ame     -12.254  14.690  67.298  0.00  0.00     0.030 H 
ENDBRANCH  13  29
ENDBRANCH  10  13
ENDBRANCH   7   9
BRANCH   7  33
ATOM     33  C11 non d ame      -9.406   9.594  69.378  0.00  0.00    -0.033 C 
ATOM     34  H12 non d ame      -9.579   8.651  68.861  0.00  0.00     0.042 H 
BRANCH  33  35
ATOM     35  C12 non d ame      -8.047   9.472  70.136  0.00  0.00    -0.071 C 
ATOM     36  H13 non d ame      -7.300   9.032  69.474  0.00  0.00     0.028 H 
ATOM     37  H14 non d ame      -7.716  10.461  70.449  0.00  0.00     0.028 H 
ATOM     38  H15 non d ame      -8.176   8.837  71.011  0.00  0.00     0.028 H 
ENDBRANCH  33  35
BRANCH  33  39
ATOM     39  C13 non d ame     -10.589   9.823  70.373  0.00  0.00    -0.071 C 
ATOM     40  H16 non d ame     -10.287   9.514  71.373  0.00  0.00     0.028 H 
ATOM     41  H17 non d ame     -10.854  10.881  70.385  0.00  0.00     0.028 H 
ATOM     42  H18 non d ame     -11.451   9.237  70.055  0.00  0.00     0.028 H 
ENDBRANCH  33  39
ENDBRANCH   7  33
ENDBRANCH   4   7
ENDBRANCH   1   3
BRANCH   1  43
ATOM     43  C15 non d ame      -8.672   9.402  63.670  0.00  0.00     0.240 C 
ATOM     44  O5  non d ame      -8.495   9.636  62.519  0.00  0.00    -0.271 OA
ATOM     45  N6  non d ame      -7.785   8.431  64.375  0.00  0.00    -0.355 N 
ATOM     46  H46 non d ame      -7.923   8.228  65.353  0.00  0.00     0.162 HD
BRANCH  45  47
ATOM     47  C20 non d ame      -6.697   7.761  63.631  0.00  0.00     0.013 C 
ATOM     48  H30 non d ame      -6.905   7.863  62.566  0.00  0.00     0.072 H 
BRANCH  47  49
ATOM     49  C21 non d ame      -6.659   6.298  64.011  0.00  0.00    -0.038 C 
ATOM     50  H31 non d ame      -6.267   5.777  63.138  0.00  0.00     0.036 H 
ATOM     51  H32 non d ame      -6.123   6.254  64.960  0.00  0.00     0.036 H 
BRANCH  49  52
ATOM     52  C22 non d ame      -8.063   5.711  64.275  0.00  0.00     0.018 C 
ATOM     53  H33 non d ame      -8.739   6.566  64.312  0.00  0.00     0.048 H 
ATOM     54  H34 non d ame      -8.206   4.937  63.522  0.00  0.00     0.048 H 
BRANCH  52  55
ATOM     55  C23 non d ame      -8.197   5.001  65.651  0.00  0.00     0.259 C 
ATOM     56  O7  non d ame      -7.248   4.507  66.169  0.00  0.00    -0.265 OA
BRANCH  55  57
ATOM     57  O8  non d ame      -9.470   4.936  66.281  0.00  0.00    -0.317 OA
BRANCH  57  58
ATOM     58  C29 non d ame      -9.942   6.195  66.771  0.00  0.00     0.052 C 
ATOM     59  H47 non d ame      -9.180   6.923  66.495  0.00  0.00     0.082 H 
ATOM     60  H48 non d ame     -10.958   6.297  66.390  0.00  0.00     0.082 H 
BRANCH  58  61
ATOM     61  C35 non d ame     -10.004   6.112  68.320  0.00  0.00    -0.034 A 
ATOM     62  C30 non d ame      -8.840   5.914  69.055  0.00  0.00    -0.075 A 
ATOM     63  C31 non d ame      -8.897   5.839  70.446  0.00  0.00    -0.082 A 
ATOM     64  H49 non d ame      -7.884   5.817  68.542  0.00  0.00     0.084 H 
ATOM     65  C32 non d ame     -10.125   5.961  71.102  0.00  0.00    -0.083 A 
ATOM     66  H50 non d ame      -7.983   5.687  71.019  0.00  0.00     0.083 H 
ATOM     67  C33 non d ame     -11.285   6.155  70.364  0.00  0.00    -0.082 A 
ATOM     68  H51 non d ame     -10.178   5.905  72.189  0.00  0.00     0.083 H 
ATOM     69  C34 non d ame     -11.232   6.232  68.973  0.00  0.00    -0.075 A 
ATOM     70  H52 non d ame     -12.242   6.248  70.879  0.00  0.00     0.083 H 
ATOM     71  H53 non d ame     -12.148   6.386  68.401  0.00  0.00     0.084 H 
ENDBRANCH  58  61
ENDBRANCH  57  58
ENDBRANCH  55  57
ENDBRANCH  52  55
ENDBRANCH  49  52
ENDBRANCH  47  49
BRANCH  47  72
ATOM     72  C24 non d ame      -5.359   8.412  63.976  0.00  0.00    -0.039 C 
ATOM     73  H35 non d ame      -5.548   9.006  64.871  0.00  0.00     0.036 H 
ATOM     74  H36 non d ame      -4.638   7.596  64.007  0.00  0.00     0.036 H 
BRANCH  72  75
ATOM     75  C25 non d ame      -4.879   9.424  62.830  0.00  0.00    -0.001 C 
ATOM     76  C26 non d ame      -3.298   9.153  62.471  0.00  0.00    -0.035 C 
ATOM     77  C27 non d ame      -2.630  10.331  62.528  0.00  0.00     0.085 C 
ATOM     78  H38 non d ame      -2.832   8.558  63.257  0.00  0.00     0.036 H 
ATOM     79  H39 non d ame      -3.197   8.853  61.429  0.00  0.00     0.036 H 
ATOM     80  N5  non d ame      -3.541  11.322  63.210  0.00  0.00    -0.049 N 
ATOM     81  H40 non d ame      -1.765  10.145  63.166  0.00  0.00     0.075 H 
ATOM     82  H41 non d ame      -2.488  10.634  61.492  0.00  0.00     0.075 H 
ATOM     83  C28 non d ame      -5.010  10.653  63.205  0.00  0.00     0.193 C 
ATOM     84  H42 non d ame      -3.223  11.393  64.166  0.00  0.00     0.280 HD
ATOM     85  H43 non d ame      -3.561  12.144  62.623  0.00  0.00     0.280 HD
ATOM     86  H44 non d ame      -5.773  10.994  62.505  0.00  0.00     0.129 H 
ATOM     87  H37 non d ame      -5.578   9.462  61.994  0.00  0.00     0.046 H 
BRANCH  83  88
ATOM     88  O6  non d ame      -5.606  10.760  64.499  0.00  0.00    -0.369 OA
ATOM     89  H45 non d ame      -5.163  10.162  65.106  0.00  0.00     0.212 HD
ENDBRANCH  83  88
ENDBRANCH  72  75
ENDBRANCH  47  72
ENDBRANCH  45  47
ENDBRANCH   1  43
BRANCH   1  90
ATOM     90  C16 non d ame     -10.333  11.288  63.616  0.00  0.00    -0.035 C 
ATOM     91  H21 non d ame      -9.468  11.937  63.468  0.00  0.00     0.037 H 
ATOM     92  H22 non d ame     -10.832  10.842  62.757  0.00  0.00     0.037 H 
BRANCH  90  93
ATOM     93  C17 non d ame     -11.408  12.148  64.354  0.00  0.00    -0.059 C 
ATOM     94  H23 non d ame     -11.600  11.680  65.319  0.00  0.00     0.038 H 
BRANCH  93  95
ATOM     95  C18 non d ame     -10.914  13.606  64.622  0.00  0.00    -0.073 C 
ATOM     96  H24 non d ame      -9.832  13.604  64.756  0.00  0.00     0.028 H 
ATOM     97  H25 non d ame     -11.174  14.239  63.773  0.00  0.00     0.028 H 
ATOM     98  H26 non d ame     -11.392  13.991  65.523  0.00  0.00     0.028 H 
ENDBRANCH  93  95
BRANCH  93  99
ATOM     99  C19 non d ame     -12.729  12.154  63.581  0.00  0.00    -0.073 C 
ATOM    100  H27 non d ame     -12.618  11.570  62.667  0.00  0.00     0.028 H 
ATOM    101  H28 non d ame     -13.513  11.717  64.199  0.00  0.00     0.028 H 
ATOM    102  H29 non d ame     -12.998  13.180  63.327  0.00  0.00     0.028 H 
ENDBRANCH  93  99
ENDBRANCH  90  93
ENDBRANCH   1  90
TORSDOF 26
ENDMDL
MODEL 11
REMARK VINA RESULT:      -5.9      2.548      8.174
REMARK  26 active torsions:
REMARK  status: ('A' for Active; 'I' for Inactive)
REMARK    1  A    between atoms: C2_2  and  C3_3 
REMARK    2  A    between atoms: C4_6  and  C5_7 
REMARK       I    between atoms: C5_7  and  N2_9 
REMARK    3  A    between atoms: N2_9  and  C6_10 
REMARK    4  A    between atoms: C6_10  and  C7_11 
REMARK    5  A    between atoms: C6_10  and  C8_13 
REMARK       I    between atoms: C7_11  and  N3_14 
REMARK    6  A    between atoms: N3_14  and  C9_15 
REMARK    7  A    between atoms: C9_15  and  C10_16 
REMARK    8  A    between atoms: C9_15  and  C11_18 
REMARK       I    between atoms: C10_16  and  N4_21 
REMARK    9  A    between atoms: C11_18  and  C12_19 
REMARK   10  A    between atoms: C11_18  and  C13_20 
REMARK   11  A    between atoms: N4_21  and  C14_22 
REMARK   12  A    between atoms: C14_22  and  C15_23 
REMARK   13  A    between atoms: C14_22  and  C16_25 
REMARK       I    between atoms: C15_23  and  N6_40 
REMARK   14  A    between atoms: C16_25  and  C17_26 
REMARK   15  A    between atoms: C17_26  and  C18_27 
REMARK   16  A    between atoms: C17_26  and  C19_28 
REMARK   17  A    between atoms: C20_29  and  C21_30 
REMARK   18  A    between atoms: C20_29  and  C24_33 
REMARK   19  A    between atoms: C20_29  and  N6_40 
REMARK   20  A    between atoms: C21_30  and  C22_31 
REMARK   21  A    between atoms: C22_31  and  C23_32 
REMARK   22  A    between atoms: C23_32  and  O8_43 
REMARK   23  A    between atoms: C24_33  and  C25_34 
REMARK   24  A    between atoms: C28_38  and  O6_39 
REMARK   25  A    between atoms: C29_42  and  O8_43 
REMARK   26  A    between atoms: C29_42  and  C35_49 
ROOT
ATOM      1  C14 non d ame     -10.052  11.784  65.177  0.00  0.00     0.089 C 
ATOM      2  H20 non d ame      -9.834  12.176  64.183  0.00  0.00     0.087 H 
ENDROOT
BRANCH   1   3
ATOM      3  N4  non d ame      -9.290  10.554  65.339  0.00  0.00    -0.346 N 
ATOM      4  C10 non d ame      -8.982   9.686  64.144  0.00  0.00     0.241 C 
ATOM      5  O4  non d ame      -9.361   9.996  63.063  0.00  0.00    -0.271 OA
ATOM      6  H19 non d ame      -8.979  10.306  66.267  0.00  0.00     0.163 HD
BRANCH   4   7
ATOM      7  C9  non d ame      -8.188   8.419  64.329  0.00  0.00     0.092 C 
ATOM      8  H11 non d ame      -7.286   8.641  64.900  0.00  0.00     0.088 H 
BRANCH   7   9
ATOM      9  N3  non d ame      -8.972   7.461  65.115  0.00  0.00    -0.346 N 
ATOM     10  C7  non d ame      -8.559   7.116  66.452  0.00  0.00     0.240 C 
ATOM     11  O3  non d ame      -7.598   7.599  66.913  0.00  0.00    -0.271 OA
ATOM     12  H10 non d ame      -9.804   7.035  64.730  0.00  0.00     0.163 HD
BRANCH  10  13
ATOM     13  C6  non d ame      -9.396   6.093  67.281  0.00  0.00     0.086 C 
ATOM     14  H6  non d ame      -8.778   5.454  67.912  0.00  0.00     0.086 H 
BRANCH  13  15
ATOM     15  N2  non d ame     -10.284   6.822  68.172  0.00  0.00    -0.343 N 
ATOM     16  C5  non d ame     -10.416   6.397  69.567  0.00  0.00     0.273 C 
ATOM     17  O2  non d ame      -9.807   5.465  69.962  0.00  0.00    -0.266 OA
ATOM     18  H5  non d ame     -10.803   7.616  67.825  0.00  0.00     0.163 HD
BRANCH  16  19
ATOM     19  C4  non d ame     -11.350   7.160  70.519  0.00  0.00     0.154 A 
ATOM     20  C1  non d ame     -11.605   8.568  70.536  0.00  0.00    -0.017 A 
ATOM     21  C2  non d ame     -12.527   8.758  71.589  0.00  0.00     0.077 A 
ATOM     22  H1  non d ame     -11.186   9.335  69.884  0.00  0.00     0.091 H 
ATOM     23  O1  non d ame     -12.769   7.589  72.108  0.00  0.00    -0.218 OA
ATOM     24  N1  non d ame     -12.093   6.641  71.500  0.00  0.00    -0.123 NA
BRANCH  21  25
ATOM     25  C3  non d ame     -13.129  10.085  72.033  0.00  0.00    -0.029 C 
ATOM     26  H2  non d ame     -12.893  10.258  73.083  0.00  0.00     0.036 H 
ATOM     27  H3  non d ame     -12.715  10.891  71.429  0.00  0.00     0.036 H 
ATOM     28  H4  non d ame     -14.212  10.054  71.904  0.00  0.00     0.036 H 
ENDBRANCH  21  25
ENDBRANCH  16  19
ENDBRANCH  13  15
BRANCH  13  29
ATOM     29  C8  non d ame     -10.201   5.224  66.349  0.00  0.00    -0.049 C 
ATOM     30  H7  non d ame     -11.255   5.491  66.422  0.00  0.00     0.030 H 
ATOM     31  H8  non d ame      -9.858   5.373  65.325  0.00  0.00     0.030 H 
ATOM     32  H9  non d ame     -10.073   4.177  66.626  0.00  0.00     0.030 H 
ENDBRANCH  13  29
ENDBRANCH  10  13
ENDBRANCH   7   9
BRANCH   7  33
ATOM     33  C11 non d ame      -7.864   7.803  62.937  0.00  0.00    -0.033 C 
ATOM     34  H12 non d ame      -8.570   8.219  62.220  0.00  0.00     0.042 H 
BRANCH  33  35
ATOM     35  C12 non d ame      -6.429   8.194  62.463  0.00  0.00    -0.071 C 
ATOM     36  H13 non d ame      -6.447   8.419  61.397  0.00  0.00     0.028 H 
ATOM     37  H14 non d ame      -6.091   9.070  63.014  0.00  0.00     0.028 H 
ATOM     38  H15 non d ame      -5.749   7.363  62.647  0.00  0.00     0.028 H 
ENDBRANCH  33  35
BRANCH  33  39
ATOM     39  C13 non d ame      -8.050   6.252  62.955  0.00  0.00    -0.071 C 
ATOM     40  H16 non d ame      -9.096   6.014  63.146  0.00  0.00     0.028 H 
ATOM     41  H17 non d ame      -7.754   5.839  61.990  0.00  0.00     0.028 H 
ATOM     42  H18 non d ame      -7.430   5.820  63.740  0.00  0.00     0.028 H 
ENDBRANCH  33  39
ENDBRANCH   7  33
ENDBRANCH   4   7
ENDBRANCH   1   3
BRANCH   1  43
ATOM     43  C15 non d ame      -9.639  12.773  66.304  0.00  0.00     0.240 C 
ATOM     44  O5  non d ame      -9.826  12.485  67.441  0.00  0.00    -0.271 OA
ATOM     45  N6  non d ame      -9.000  14.077  65.964  0.00  0.00    -0.355 N 
ATOM     46  H46 non d ame      -8.833  14.330  65.001  0.00  0.00     0.162 HD
BRANCH  45  47
ATOM     47  C20 non d ame      -8.613  15.006  67.047  0.00  0.00     0.013 C 
ATOM     48  H30 non d ame      -9.215  14.770  67.924  0.00  0.00     0.072 H 
BRANCH  47  49
ATOM     49  C21 non d ame      -8.879  16.428  66.605  0.00  0.00    -0.038 C 
ATOM     50  H31 non d ame      -7.999  16.731  66.039  0.00  0.00     0.036 H 
ATOM     51  H32 non d ame      -9.857  16.408  66.124  0.00  0.00     0.036 H 
BRANCH  49  52
ATOM     52  C22 non d ame      -8.996  17.411  67.791  0.00  0.00     0.018 C 
ATOM     53  H33 non d ame      -8.623  16.870  68.661  0.00  0.00     0.048 H 
ATOM     54  H34 non d ame      -8.502  18.326  67.465  0.00  0.00     0.048 H 
BRANCH  52  55
ATOM     55  C23 non d ame     -10.459  17.812  68.131  0.00  0.00     0.259 C 
ATOM     56  O7  non d ame     -10.868  18.892  67.852  0.00  0.00    -0.265 OA
BRANCH  55  57
ATOM     57  O8  non d ame     -11.301  16.877  68.793  0.00  0.00    -0.317 OA
BRANCH  57  58
ATOM     58  C29 non d ame     -10.624  16.068  69.760  0.00  0.00     0.052 C 
ATOM     59  H47 non d ame     -10.221  15.221  69.206  0.00  0.00     0.082 H 
ATOM     60  H48 non d ame      -9.952  16.742  70.290  0.00  0.00     0.082 H 
BRANCH  58  61
ATOM     61  C35 non d ame     -11.682  15.539  70.766  0.00  0.00    -0.034 A 
ATOM     62  C30 non d ame     -11.988  16.275  71.907  0.00  0.00    -0.075 A 
ATOM     63  C31 non d ame     -12.938  15.800  72.810  0.00  0.00    -0.082 A 
ATOM     64  H49 non d ame     -11.485  17.224  72.092  0.00  0.00     0.084 H 
ATOM     65  C32 non d ame     -13.580  14.582  72.571  0.00  0.00    -0.083 A 
ATOM     66  H50 non d ame     -13.178  16.380  73.701  0.00  0.00     0.083 H 
ATOM     67  C33 non d ame     -13.269  13.849  71.433  0.00  0.00    -0.082 A 
ATOM     68  H51 non d ame     -14.325  14.204  73.271  0.00  0.00     0.083 H 
ATOM     69  C34 non d ame     -12.322  14.322  70.527  0.00  0.00    -0.075 A 
ATOM     70  H52 non d ame     -13.771  12.898  71.251  0.00  0.00     0.083 H 
ATOM     71  H53 non d ame     -12.084  13.741  69.635  0.00  0.00     0.084 H 
ENDBRANCH  58  61
ENDBRANCH  57  58
ENDBRANCH  55  57
ENDBRANCH  52  55
ENDBRANCH  49  52
ENDBRANCH  47  49
BRANCH  47  72
ATOM     72  C24 non d ame      -7.127  14.840  67.362  0.00  0.00    -0.039 C 
ATOM     73  H35 non d ame      -6.710  14.297  66.513  0.00  0.00     0.036 H 
ATOM     74  H36 non d ame      -6.767  15.842  67.598  0.00  0.00     0.036 H 
BRANCH  72  75
ATOM     75  C25 non d ame      -6.894  13.935  68.663  0.00  0.00    -0.001 C 
ATOM     76  C26 non d ame      -5.922  14.726  69.727  0.00  0.00    -0.035 C 
ATOM     77  C27 non d ame      -4.907  13.902  70.085  0.00  0.00     0.085 C 
ATOM     78  H38 non d ame      -5.416  15.552  69.229  0.00  0.00     0.036 H 
ATOM     79  H39 non d ame      -6.452  14.897  70.663  0.00  0.00     0.036 H 
ATOM     80  N5  non d ame      -4.915  12.745  69.115  0.00  0.00    -0.049 N 
ATOM     81  H40 non d ame      -3.995  14.482  69.938  0.00  0.00     0.075 H 
ATOM     82  H41 non d ame      -5.166  13.536  71.077  0.00  0.00     0.075 H 
ATOM     83  C28 non d ame      -6.340  12.810  68.358  0.00  0.00     0.193 C 
ATOM     84  H42 non d ame      -4.185  12.929  68.443  0.00  0.00     0.280 HD
ATOM     85  H43 non d ame      -4.888  11.903  69.674  0.00  0.00     0.280 HD
ATOM     86  H44 non d ame      -7.139  12.117  68.619  0.00  0.00     0.129 H 
ATOM     87  H37 non d ame      -7.827  13.526  69.053  0.00  0.00     0.046 H 
BRANCH  83  88
ATOM     88  O6  non d ame      -6.156  12.665  66.948  0.00  0.00    -0.369 OA
ATOM     89  H45 non d ame      -5.227  12.780  66.734  0.00  0.00     0.212 HD
ENDBRANCH  83  88
ENDBRANCH  72  75
ENDBRANCH  47  72
ENDBRANCH  45  47
ENDBRANCH   1  43
BRANCH   1  90
ATOM     90  C16 non d ame     -11.534  11.467  65.292  0.00  0.00    -0.035 C 
ATOM     91  H21 non d ame     -11.669  10.523  64.763  0.00  0.00     0.037 H 
ATOM     92  H22 non d ame     -11.762  11.533  66.355  0.00  0.00     0.037 H 
BRANCH  90  93
ATOM     93  C17 non d ame     -12.454  12.508  64.578  0.00  0.00    -0.059 C 
ATOM     94  H23 non d ame     -13.418  12.030  64.401  0.00  0.00     0.038 H 
BRANCH  93  95
ATOM     95  C18 non d ame     -12.705  13.775  65.457  0.00  0.00    -0.073 C 
ATOM     96  H24 non d ame     -12.821  13.476  66.499  0.00  0.00     0.028 H 
ATOM     97  H25 non d ame     -11.856  14.453  65.367  0.00  0.00     0.028 H 
ATOM     98  H26 non d ame     -13.611  14.278  65.119  0.00  0.00     0.028 H 
ENDBRANCH  93  95
BRANCH  93  99
ATOM     99  C19 non d ame     -11.884  12.898  63.212  0.00  0.00    -0.073 C 
ATOM    100  H27 non d ame     -12.067  13.957  63.030  0.00  0.00     0.028 H 
ATOM    101  H28 non d ame     -10.810  12.707  63.200  0.00  0.00     0.028 H 
ATOM    102  H29 non d ame     -12.366  12.306  62.434  0.00  0.00     0.028 H 
ENDBRANCH  93  99
ENDBRANCH  90  93
ENDBRANCH   1  90
TORSDOF 26
ENDMDL
MODEL 12
REMARK VINA RESULT:      -5.9      3.208      7.770
REMARK  26 active torsions:
REMARK  status: ('A' for Active; 'I' for Inactive)
REMARK    1  A    between atoms: C2_2  and  C3_3 
REMARK    2  A    between atoms: C4_6  and  C5_7 
REMARK       I    between atoms: C5_7  and  N2_9 
REMARK    3  A    between atoms: N2_9  and  C6_10 
REMARK    4  A    between atoms: C6_10  and  C7_11 
REMARK    5  A    between atoms: C6_10  and  C8_13 
REMARK       I    between atoms: C7_11  and  N3_14 
REMARK    6  A    between atoms: N3_14  and  C9_15 
REMARK    7  A    between atoms: C9_15  and  C10_16 
REMARK    8  A    between atoms: C9_15  and  C11_18 
REMARK       I    between atoms: C10_16  and  N4_21 
REMARK    9  A    between atoms: C11_18  and  C12_19 
REMARK   10  A    between atoms: C11_18  and  C13_20 
REMARK   11  A    between atoms: N4_21  and  C14_22 
REMARK   12  A    between atoms: C14_22  and  C15_23 
REMARK   13  A    between atoms: C14_22  and  C16_25 
REMARK       I    between atoms: C15_23  and  N6_40 
REMARK   14  A    between atoms: C16_25  and  C17_26 
REMARK   15  A    between atoms: C17_26  and  C18_27 
REMARK   16  A    between atoms: C17_26  and  C19_28 
REMARK   17  A    between atoms: C20_29  and  C21_30 
REMARK   18  A    between atoms: C20_29  and  C24_33 
REMARK   19  A    between atoms: C20_29  and  N6_40 
REMARK   20  A    between atoms: C21_30  and  C22_31 
REMARK   21  A    between atoms: C22_31  and  C23_32 
REMARK   22  A    between atoms: C23_32  and  O8_43 
REMARK   23  A    between atoms: C24_33  and  C25_34 
REMARK   24  A    between atoms: C28_38  and  O6_39 
REMARK   25  A    between atoms: C29_42  and  O8_43 
REMARK   26  A    between atoms: C29_42  and  C35_49 
ROOT
ATOM      1  C14 non d ame      -7.435  10.047  68.722  0.00  0.00     0.089 C 
ATOM      2  H20 non d ame      -7.584  10.502  69.702  0.00  0.00     0.087 H 
ENDROOT
BRANCH   1   3
ATOM      3  N4  non d ame      -8.159   8.785  68.711  0.00  0.00    -0.346 N 
ATOM      4  C10 non d ame      -9.498   8.668  69.398  0.00  0.00     0.241 C 
ATOM      5  O4  non d ame      -9.970   9.604  69.955  0.00  0.00    -0.271 OA
ATOM      6  H19 non d ame      -7.740   7.999  68.234  0.00  0.00     0.163 HD
BRANCH   4   7
ATOM      7  C9  non d ame     -10.236   7.356  69.373  0.00  0.00     0.092 C 
ATOM      8  H11 non d ame     -11.249   7.520  69.004  0.00  0.00     0.088 H 
BRANCH   7   9
ATOM      9  N3  non d ame      -9.578   6.442  68.433  0.00  0.00    -0.346 N 
ATOM     10  C7  non d ame     -10.201   6.134  67.171  0.00  0.00     0.240 C 
ATOM     11  O3  non d ame     -11.234   6.611  66.893  0.00  0.00    -0.271 OA
ATOM     12  H10 non d ame      -8.687   6.022  68.658  0.00  0.00     0.163 HD
BRANCH  10  13
ATOM     13  C6  non d ame      -9.497   5.159  66.176  0.00  0.00     0.086 C 
ATOM     14  H6  non d ame     -10.111   4.927  65.306  0.00  0.00     0.086 H 
BRANCH  13  15
ATOM     15  N2  non d ame      -8.287   5.790  65.675  0.00  0.00    -0.343 N 
ATOM     16  C5  non d ame      -7.936   5.656  64.260  0.00  0.00     0.273 C 
ATOM     17  O2  non d ame      -8.632   5.036  63.533  0.00  0.00    -0.266 OA
ATOM     18  H5  non d ame      -7.696   6.315  66.304  0.00  0.00     0.163 HD
BRANCH  16  19
ATOM     19  C4  non d ame      -6.660   6.318  63.717  0.00  0.00     0.154 A 
ATOM     20  C1  non d ame      -6.362   7.718  63.676  0.00  0.00    -0.017 A 
ATOM     21  C2  non d ame      -5.080   7.799  63.091  0.00  0.00     0.077 A 
ATOM     22  H1  non d ame      -6.982   8.546  64.018  0.00  0.00     0.091 H 
ATOM     23  O1  non d ame      -4.693   6.584  62.832  0.00  0.00    -0.218 OA
ATOM     24  N1  non d ame      -5.599   5.702  63.189  0.00  0.00    -0.123 NA
BRANCH  21  25
ATOM     25  C3  non d ame      -4.294   9.074  62.816  0.00  0.00    -0.029 C 
ATOM     26  H2  non d ame      -3.855   9.024  61.819  0.00  0.00     0.036 H 
ATOM     27  H3  non d ame      -4.961   9.933  62.876  0.00  0.00     0.036 H 
ATOM     28  H4  non d ame      -3.500   9.179  63.557  0.00  0.00     0.036 H 
ENDBRANCH  21  25
ENDBRANCH  16  19
ENDBRANCH  13  15
BRANCH  13  29
ATOM     29  C8  non d ame      -9.154   3.874  66.886  0.00  0.00    -0.049 C 
ATOM     30  H7  non d ame      -8.445   4.081  67.689  0.00  0.00     0.030 H 
ATOM     31  H8  non d ame     -10.059   3.436  67.304  0.00  0.00     0.030 H 
ATOM     32  H9  non d ame      -8.705   3.177  66.179  0.00  0.00     0.030 H 
ENDBRANCH  13  29
ENDBRANCH  10  13
ENDBRANCH   7   9
BRANCH   7  33
ATOM     33  C11 non d ame     -10.225   6.728  70.797  0.00  0.00    -0.033 C 
ATOM     34  H12 non d ame      -9.483   7.263  71.387  0.00  0.00     0.042 H 
BRANCH  33  35
ATOM     35  C12 non d ame     -11.605   6.903  71.506  0.00  0.00    -0.071 C 
ATOM     36  H13 non d ame     -11.540   6.524  72.525  0.00  0.00     0.028 H 
ATOM     37  H14 non d ame     -11.870   7.960  71.527  0.00  0.00     0.028 H 
ATOM     38  H15 non d ame     -12.366   6.348  70.959  0.00  0.00     0.028 H 
ENDBRANCH  33  35
BRANCH  33  39
ATOM     39  C13 non d ame      -9.806   5.223  70.741  0.00  0.00    -0.071 C 
ATOM     40  H16 non d ame      -9.030   5.090  69.989  0.00  0.00     0.028 H 
ATOM     41  H17 non d ame      -9.424   4.917  71.716  0.00  0.00     0.028 H 
ATOM     42  H18 non d ame     -10.672   4.614  70.483  0.00  0.00     0.028 H 
ENDBRANCH  33  39
ENDBRANCH   7  33
ENDBRANCH   4   7
ENDBRANCH   1   3
BRANCH   1  43
ATOM     43  C15 non d ame      -7.980  10.939  67.570  0.00  0.00     0.240 C 
ATOM     44  O5  non d ame      -7.522  10.842  66.479  0.00  0.00    -0.271 OA
ATOM     45  N6  non d ame      -9.083  11.910  67.827  0.00  0.00    -0.355 N 
ATOM     46  H46 non d ame      -9.483  11.999  68.749  0.00  0.00     0.162 HD
BRANCH  45  47
ATOM     47  C20 non d ame      -9.591  12.751  66.722  0.00  0.00     0.013 C 
ATOM     48  H30 non d ame      -9.180  12.364  65.789  0.00  0.00     0.072 H 
BRANCH  47  49
ATOM     49  C21 non d ame      -9.140  14.179  66.931  0.00  0.00    -0.038 C 
ATOM     50  H31 non d ame      -8.164  14.252  66.452  0.00  0.00     0.036 H 
ATOM     51  H32 non d ame      -9.965  14.802  66.585  0.00  0.00     0.036 H 
BRANCH  49  52
ATOM     52  C22 non d ame      -8.923  14.526  68.420  0.00  0.00     0.018 C 
ATOM     53  H33 non d ame      -9.598  13.876  68.977  0.00  0.00     0.048 H 
ATOM     54  H34 non d ame      -7.848  14.464  68.584  0.00  0.00     0.048 H 
BRANCH  52  55
ATOM     55  C23 non d ame      -9.329  15.981  68.789  0.00  0.00     0.259 C 
ATOM     56  O7  non d ame      -8.733  16.905  68.340  0.00  0.00    -0.265 OA
BRANCH  55  57
ATOM     57  O8  non d ame     -10.415  16.195  69.682  0.00  0.00    -0.317 OA
BRANCH  57  58
ATOM     58  C29 non d ame     -11.679  15.752  69.178  0.00  0.00     0.052 C 
ATOM     59  H47 non d ame     -12.274  16.654  69.041  0.00  0.00     0.082 H 
ATOM     60  H48 non d ame     -11.449  15.116  68.324  0.00  0.00     0.082 H 
BRANCH  58  61
ATOM     61  C35 non d ame     -12.351  14.880  70.272  0.00  0.00    -0.034 A 
ATOM     62  C30 non d ame     -13.152  15.473  71.243  0.00  0.00    -0.075 A 
ATOM     63  C31 non d ame     -13.755  14.689  72.225  0.00  0.00    -0.082 A 
ATOM     64  H49 non d ame     -13.307  16.552  71.233  0.00  0.00     0.084 H 
ATOM     65  C32 non d ame     -13.552  13.306  72.236  0.00  0.00    -0.083 A 
ATOM     66  H50 non d ame     -14.385  15.157  72.982  0.00  0.00     0.083 H 
ATOM     67  C33 non d ame     -12.749  12.719  71.267  0.00  0.00    -0.082 A 
ATOM     68  H51 non d ame     -14.021  12.686  73.000  0.00  0.00     0.083 H 
ATOM     69  C34 non d ame     -12.147  13.499  70.282  0.00  0.00    -0.075 A 
ATOM     70  H52 non d ame     -12.592  11.640  71.280  0.00  0.00     0.083 H 
ATOM     71  H53 non d ame     -11.518  13.029  69.524  0.00  0.00     0.084 H 
ENDBRANCH  58  61
ENDBRANCH  57  58
ENDBRANCH  55  57
ENDBRANCH  52  55
ENDBRANCH  49  52
ENDBRANCH  47  49
BRANCH  47  72
ATOM     72  C24 non d ame     -11.117  12.697  66.692  0.00  0.00    -0.039 C 
ATOM     73  H35 non d ame     -11.402  12.091  67.553  0.00  0.00     0.036 H 
ATOM     74  H36 non d ame     -11.443  13.735  66.625  0.00  0.00     0.036 H 
BRANCH  72  75
ATOM     75  C25 non d ame     -11.659  11.945  65.386  0.00  0.00    -0.001 C 
ATOM     76  C26 non d ame     -10.394  11.380  64.500  0.00  0.00    -0.035 C 
ATOM     77  C27 non d ame     -10.542  11.790  63.218  0.00  0.00     0.085 C 
ATOM     78  H38 non d ame      -9.470  11.861  64.817  0.00  0.00     0.036 H 
ATOM     79  H39 non d ame     -10.445  10.293  64.427  0.00  0.00     0.036 H 
ATOM     80  N5  non d ame     -11.613  12.855  63.216  0.00  0.00    -0.049 N 
ATOM     81  H40 non d ame      -9.588  12.245  62.946  0.00  0.00     0.075 H 
ATOM     82  H41 non d ame     -10.905  10.920  62.673  0.00  0.00     0.075 H 
ATOM     83  C28 non d ame     -12.357  12.739  64.644  0.00  0.00     0.193 C 
ATOM     84  H42 non d ame     -11.134  13.742  63.173  0.00  0.00     0.280 HD
ATOM     85  H43 non d ame     -12.269  12.599  62.491  0.00  0.00     0.280 HD
ATOM     86  H44 non d ame     -13.338  12.273  64.722  0.00  0.00     0.129 H 
ATOM     87  H37 non d ame     -12.457  11.240  65.617  0.00  0.00     0.046 H 
BRANCH  83  88
ATOM     88  O6  non d ame     -12.502  14.034  65.230  0.00  0.00    -0.369 OA
ATOM     89  H45 non d ame     -12.984  14.606  64.628  0.00  0.00     0.212 HD
ENDBRANCH  83  88
ENDBRANCH  72  75
ENDBRANCH  47  72
ENDBRANCH  45  47
ENDBRANCH   1  43
BRANCH   1  90
ATOM     90  C16 non d ame      -5.957   9.773  68.500  0.00  0.00    -0.035 C 
ATOM     91  H21 non d ame      -5.759  10.070  67.469  0.00  0.00     0.037 H 
ATOM     92  H22 non d ame      -5.444  10.275  69.320  0.00  0.00     0.037 H 
BRANCH  90  93
ATOM     93  C17 non d ame      -5.577   8.261  68.603  0.00  0.00    -0.059 C 
ATOM     94  H23 non d ame      -6.501   7.696  68.726  0.00  0.00     0.038 H 
BRANCH  93  95
ATOM     95  C18 non d ame      -4.870   7.742  67.310  0.00  0.00    -0.073 C 
ATOM     96  H24 non d ame      -3.790   7.838  67.424  0.00  0.00     0.028 H 
ATOM     97  H25 non d ame      -5.127   6.694  67.153  0.00  0.00     0.028 H 
ATOM     98  H26 non d ame      -5.201   8.330  66.454  0.00  0.00     0.028 H 
ENDBRANCH  93  95
BRANCH  93  99
ATOM     99  C19 non d ame      -4.715   7.996  69.840  0.00  0.00    -0.073 C 
ATOM    100  H27 non d ame      -5.321   7.515  70.608  0.00  0.00     0.028 H 
ATOM    101  H28 non d ame      -3.884   7.344  69.569  0.00  0.00     0.028 H 
ATOM    102  H29 non d ame      -4.325   8.940  70.221  0.00  0.00     0.028 H 
ENDBRANCH  93  99
ENDBRANCH  90  93
ENDBRANCH   1  90
TORSDOF 26
ENDMDL
MODEL 13
REMARK VINA RESULT:      -5.9      3.139      6.437
REMARK  26 active torsions:
REMARK  status: ('A' for Active; 'I' for Inactive)
REMARK    1  A    between atoms: C2_2  and  C3_3 
REMARK    2  A    between atoms: C4_6  and  C5_7 
REMARK       I    between atoms: C5_7  and  N2_9 
REMARK    3  A    between atoms: N2_9  and  C6_10 
REMARK    4  A    between atoms: C6_10  and  C7_11 
REMARK    5  A    between atoms: C6_10  and  C8_13 
REMARK       I    between atoms: C7_11  and  N3_14 
REMARK    6  A    between atoms: N3_14  and  C9_15 
REMARK    7  A    between atoms: C9_15  and  C10_16 
REMARK    8  A    between atoms: C9_15  and  C11_18 
REMARK       I    between atoms: C10_16  and  N4_21 
REMARK    9  A    between atoms: C11_18  and  C12_19 
REMARK   10  A    between atoms: C11_18  and  C13_20 
REMARK   11  A    between atoms: N4_21  and  C14_22 
REMARK   12  A    between atoms: C14_22  and  C15_23 
REMARK   13  A    between atoms: C14_22  and  C16_25 
REMARK       I    between atoms: C15_23  and  N6_40 
REMARK   14  A    between atoms: C16_25  and  C17_26 
REMARK   15  A    between atoms: C17_26  and  C18_27 
REMARK   16  A    between atoms: C17_26  and  C19_28 
REMARK   17  A    between atoms: C20_29  and  C21_30 
REMARK   18  A    between atoms: C20_29  and  C24_33 
REMARK   19  A    between atoms: C20_29  and  N6_40 
REMARK   20  A    between atoms: C21_30  and  C22_31 
REMARK   21  A    between atoms: C22_31  and  C23_32 
REMARK   22  A    between atoms: C23_32  and  O8_43 
REMARK   23  A    between atoms: C24_33  and  C25_34 
REMARK   24  A    between atoms: C28_38  and  O6_39 
REMARK   25  A    between atoms: C29_42  and  O8_43 
REMARK   26  A    between atoms: C29_42  and  C35_49 
ROOT
ATOM      1  C14 non d ame      -8.955   6.754  66.288  0.00  0.00     0.089 C 
ATOM      2  H20 non d ame      -9.315   6.271  65.378  0.00  0.00     0.087 H 
ENDROOT
BRANCH   1   3
ATOM      3  N4  non d ame      -8.500   8.087  65.925  0.00  0.00    -0.346 N 
ATOM      4  C10 non d ame      -8.136   8.406  64.496  0.00  0.00     0.241 C 
ATOM      5  O4  non d ame      -8.215   7.570  63.656  0.00  0.00    -0.271 OA
ATOM      6  H19 non d ame      -8.437   8.784  66.654  0.00  0.00     0.163 HD
BRANCH   4   7
ATOM      7  C9  non d ame      -7.671   9.793  64.137  0.00  0.00     0.092 C 
ATOM      8  H11 non d ame      -7.661   9.898  63.052  0.00  0.00     0.088 H 
BRANCH   7   9
ATOM      9  N3  non d ame      -8.625  10.778  64.658  0.00  0.00    -0.346 N 
ATOM     10  C7  non d ame      -9.781  11.144  63.878  0.00  0.00     0.240 C 
ATOM     11  O3  non d ame      -9.961  10.657  62.829  0.00  0.00    -0.271 OA
ATOM     12  H10 non d ame      -8.483  11.207  65.561  0.00  0.00     0.163 HD
BRANCH  10  13
ATOM     13  C6  non d ame     -10.790  12.196  64.437  0.00  0.00     0.086 C 
ATOM     14  H6  non d ame     -11.171  11.932  65.424  0.00  0.00     0.086 H 
BRANCH  13  15
ATOM     15  N2  non d ame     -10.109  13.472  64.581  0.00  0.00    -0.343 N 
ATOM     16  C5  non d ame     -10.388  14.311  65.749  0.00  0.00     0.273 C 
ATOM     17  O2  non d ame     -11.164  13.952  66.564  0.00  0.00    -0.266 OA
ATOM     18  H5  non d ame      -9.449  13.772  63.878  0.00  0.00     0.163 HD
BRANCH  16  19
ATOM     19  C4  non d ame      -9.674  15.662  65.914  0.00  0.00     0.154 A 
ATOM     20  C1  non d ame      -8.393  15.896  66.506  0.00  0.00    -0.017 A 
ATOM     21  C2  non d ame      -8.199  17.292  66.411  0.00  0.00     0.077 A 
ATOM     22  H1  non d ame      -7.708  15.165  66.938  0.00  0.00     0.091 H 
ATOM     23  O1  non d ame      -9.249  17.791  65.829  0.00  0.00    -0.218 OA
ATOM     24  N1  non d ame     -10.125  16.859  65.530  0.00  0.00    -0.123 NA
BRANCH  21  25
ATOM     25  C3  non d ame      -6.982  18.068  66.899  0.00  0.00    -0.029 C 
ATOM     26  H2  non d ame      -6.902  17.977  67.982  0.00  0.00     0.036 H 
ATOM     27  H3  non d ame      -6.083  17.665  66.433  0.00  0.00     0.036 H 
ATOM     28  H4  non d ame      -7.090  19.120  66.630  0.00  0.00     0.036 H 
ENDBRANCH  21  25
ENDBRANCH  16  19
ENDBRANCH  13  15
BRANCH  13  29
ATOM     29  C8  non d ame     -11.952  12.335  63.487  0.00  0.00    -0.049 C 
ATOM     30  H7  non d ame     -12.324  13.360  63.517  0.00  0.00     0.030 H 
ATOM     31  H8  non d ame     -11.627  12.095  62.476  0.00  0.00     0.030 H 
ATOM     32  H9  non d ame     -12.748  11.652  63.785  0.00  0.00     0.030 H 
ENDBRANCH  13  29
ENDBRANCH  10  13
ENDBRANCH   7   9
BRANCH   7  33
ATOM     33  C11 non d ame      -6.270  10.049  64.764  0.00  0.00    -0.033 C 
ATOM     34  H12 non d ame      -5.871   9.087  65.082  0.00  0.00     0.042 H 
BRANCH  33  35
ATOM     35  C12 non d ame      -5.278  10.644  63.716  0.00  0.00    -0.071 C 
ATOM     36  H13 non d ame      -4.527  11.245  64.227  0.00  0.00     0.028 H 
ATOM     37  H14 non d ame      -4.790   9.834  63.176  0.00  0.00     0.028 H 
ATOM     38  H15 non d ame      -5.827  11.270  63.014  0.00  0.00     0.028 H 
ENDBRANCH  33  35
BRANCH  33  39
ATOM     39  C13 non d ame      -6.380  10.967  66.023  0.00  0.00    -0.071 C 
ATOM     40  H16 non d ame      -6.353  12.012  65.715  0.00  0.00     0.028 H 
ATOM     41  H17 non d ame      -7.320  10.765  66.539  0.00  0.00     0.028 H 
ATOM     42  H18 non d ame      -5.546  10.765  66.695  0.00  0.00     0.028 H 
ENDBRANCH  33  39
ENDBRANCH   7  33
ENDBRANCH   4   7
ENDBRANCH   1   3
BRANCH   1  43
ATOM     43  C15 non d ame     -10.071   6.888  67.363  0.00  0.00     0.240 C 
ATOM     44  O5  non d ame     -11.193   6.610  67.088  0.00  0.00    -0.271 OA
ATOM     45  N6  non d ame      -9.738   7.354  68.739  0.00  0.00    -0.355 N 
ATOM     46  H46 non d ame      -8.788   7.589  68.985  0.00  0.00     0.162 HD
BRANCH  45  47
ATOM     47  C20 non d ame     -10.810   7.476  69.751  0.00  0.00     0.013 C 
ATOM     48  H30 non d ame     -11.747   7.665  69.226  0.00  0.00     0.072 H 
BRANCH  47  49
ATOM     49  C21 non d ame     -10.496   8.629  70.677  0.00  0.00    -0.038 C 
ATOM     50  H31 non d ame      -9.477   8.458  71.024  0.00  0.00     0.036 H 
ATOM     51  H32 non d ame     -10.737   9.532  70.116  0.00  0.00     0.036 H 
BRANCH  49  52
ATOM     52  C22 non d ame     -11.390   8.645  71.936  0.00  0.00     0.018 C 
ATOM     53  H33 non d ame     -11.497   7.603  72.237  0.00  0.00     0.048 H 
ATOM     54  H34 non d ame     -10.930   9.363  72.615  0.00  0.00     0.048 H 
BRANCH  52  55
ATOM     55  C23 non d ame     -12.831   9.165  71.675  0.00  0.00     0.259 C 
ATOM     56  O7  non d ame     -13.701   8.409  71.384  0.00  0.00    -0.265 OA
BRANCH  55  57
ATOM     57  O8  non d ame     -13.098  10.558  71.773  0.00  0.00    -0.317 OA
BRANCH  57  58
ATOM     58  C29 non d ame     -12.431  11.349  70.784  0.00  0.00     0.052 C 
ATOM     59  H47 non d ame     -11.367  11.164  70.927  0.00  0.00     0.082 H 
ATOM     60  H48 non d ame     -12.906  11.097  69.836  0.00  0.00     0.082 H 
BRANCH  58  61
ATOM     61  C35 non d ame     -12.717  12.843  71.094  0.00  0.00    -0.034 A 
ATOM     62  C30 non d ame     -13.475  13.192  72.207  0.00  0.00    -0.075 A 
ATOM     63  C31 non d ame     -13.731  14.534  72.485  0.00  0.00    -0.082 A 
ATOM     64  H49 non d ame     -13.867  12.414  72.863  0.00  0.00     0.084 H 
ATOM     65  C32 non d ame     -13.230  15.529  71.641  0.00  0.00    -0.083 A 
ATOM     66  H50 non d ame     -14.323  14.804  73.360  0.00  0.00     0.083 H 
ATOM     67  C33 non d ame     -12.477  15.176  70.529  0.00  0.00    -0.082 A 
ATOM     68  H51 non d ame     -13.425  16.580  71.852  0.00  0.00     0.083 H 
ATOM     69  C34 non d ame     -12.217  13.836  70.250  0.00  0.00    -0.075 A 
ATOM     70  H52 non d ame     -12.089  15.955  69.872  0.00  0.00     0.083 H 
ATOM     71  H53 non d ame     -11.623  13.567  69.375  0.00  0.00     0.084 H 
ENDBRANCH  58  61
ENDBRANCH  57  58
ENDBRANCH  55  57
ENDBRANCH  52  55
ENDBRANCH  49  52
ENDBRANCH  47  49
BRANCH  47  72
ATOM     72  C24 non d ame     -10.906   6.183  70.558  0.00  0.00    -0.039 C 
ATOM     73  H35 non d ame     -11.070   6.497  71.590  0.00  0.00     0.036 H 
ATOM     74  H36 non d ame     -11.655   5.577  70.049  0.00  0.00     0.036 H 
BRANCH  72  75
ATOM     75  C25 non d ame      -9.532   5.361  70.528  0.00  0.00    -0.001 C 
ATOM     76  C26 non d ame      -9.731   3.971  69.672  0.00  0.00    -0.035 C 
ATOM     77  C27 non d ame      -9.283   2.932  70.418  0.00  0.00     0.085 C 
ATOM     78  H38 non d ame     -10.792   3.756  69.548  0.00  0.00     0.036 H 
ATOM     79  H39 non d ame      -9.069   3.966  68.806  0.00  0.00     0.036 H 
ATOM     80  N5  non d ame      -9.102   3.446  71.826  0.00  0.00    -0.049 N 
ATOM     81  H40 non d ame     -10.089   2.198  70.408  0.00  0.00     0.075 H 
ATOM     82  H41 non d ame      -8.308   2.676  70.005  0.00  0.00     0.075 H 
ATOM     83  C28 non d ame      -9.141   5.056  71.720  0.00  0.00     0.193 C 
ATOM     84  H42 non d ame      -9.908   3.137  72.349  0.00  0.00     0.280 HD
ATOM     85  H43 non d ame      -8.175   3.166  72.115  0.00  0.00     0.280 HD
ATOM     86  H44 non d ame      -8.223   5.639  71.784  0.00  0.00     0.129 H 
ATOM     87  H37 non d ame      -8.681   5.989  70.263  0.00  0.00     0.046 H 
BRANCH  83  88
ATOM     88  O6  non d ame     -10.005   5.595  72.723  0.00  0.00    -0.369 OA
ATOM     89  H45 non d ame     -10.913   5.566  72.412  0.00  0.00     0.212 HD
ENDBRANCH  83  88
ENDBRANCH  72  75
ENDBRANCH  47  72
ENDBRANCH  45  47
ENDBRANCH   1  43
BRANCH   1  90
ATOM     90  C16 non d ame      -7.786   5.969  66.859  0.00  0.00    -0.035 C 
ATOM     91  H21 non d ame      -8.141   5.575  67.813  0.00  0.00     0.037 H 
ATOM     92  H22 non d ame      -7.482   5.285  66.067  0.00  0.00     0.037 H 
BRANCH  90  93
ATOM     93  C17 non d ame      -6.538   6.850  67.184  0.00  0.00    -0.059 C 
ATOM     94  H23 non d ame      -6.787   7.881  66.931  0.00  0.00     0.038 H 
BRANCH  93  95
ATOM     95  C18 non d ame      -6.165   6.809  68.700  0.00  0.00    -0.073 C 
ATOM     96  H24 non d ame      -7.060   6.604  69.289  0.00  0.00     0.028 H 
ATOM     97  H25 non d ame      -5.430   6.022  68.872  0.00  0.00     0.028 H 
ATOM     98  H26 non d ame      -5.746   7.770  68.997  0.00  0.00     0.028 H 
ENDBRANCH  93  95
BRANCH  93  99
ATOM     99  C19 non d ame      -5.342   6.446  66.317  0.00  0.00    -0.073 C 
ATOM    100  H27 non d ame      -4.426   6.846  66.754  0.00  0.00     0.028 H 
ATOM    101  H28 non d ame      -5.279   5.359  66.271  0.00  0.00     0.028 H 
ATOM    102  H29 non d ame      -5.471   6.845  65.311  0.00  0.00     0.028 H 
ENDBRANCH  93  99
ENDBRANCH  90  93
ENDBRANCH   1  90
TORSDOF 26
ENDMDL
MODEL 14
REMARK VINA RESULT:      -5.8      3.927      8.467
REMARK  26 active torsions:
REMARK  status: ('A' for Active; 'I' for Inactive)
REMARK    1  A    between atoms: C2_2  and  C3_3 
REMARK    2  A    between atoms: C4_6  and  C5_7 
REMARK       I    between atoms: C5_7  and  N2_9 
REMARK    3  A    between atoms: N2_9  and  C6_10 
REMARK    4  A    between atoms: C6_10  and  C7_11 
REMARK    5  A    between atoms: C6_10  and  C8_13 
REMARK       I    between atoms: C7_11  and  N3_14 
REMARK    6  A    between atoms: N3_14  and  C9_15 
REMARK    7  A    between atoms: C9_15  and  C10_16 
REMARK    8  A    between atoms: C9_15  and  C11_18 
REMARK       I    between atoms: C10_16  and  N4_21 
REMARK    9  A    between atoms: C11_18  and  C12_19 
REMARK   10  A    between atoms: C11_18  and  C13_20 
REMARK   11  A    between atoms: N4_21  and  C14_22 
REMARK   12  A    between atoms: C14_22  and  C15_23 
REMARK   13  A    between atoms: C14_22  and  C16_25 
REMARK       I    between atoms: C15_23  and  N6_40 
REMARK   14  A    between atoms: C16_25  and  C17_26 
REMARK   15  A    between atoms: C17_26  and  C18_27 
REMARK   16  A    between atoms: C17_26  and  C19_28 
REMARK   17  A    between atoms: C20_29  and  C21_30 
REMARK   18  A    between atoms: C20_29  and  C24_33 
REMARK   19  A    between atoms: C20_29  and  N6_40 
REMARK   20  A    between atoms: C21_30  and  C22_31 
REMARK   21  A    between atoms: C22_31  and  C23_32 
REMARK   22  A    between atoms: C23_32  and  O8_43 
REMARK   23  A    between atoms: C24_33  and  C25_34 
REMARK   24  A    between atoms: C28_38  and  O6_39 
REMARK   25  A    between atoms: C29_42  and  O8_43 
REMARK   26  A    between atoms: C29_42  and  C35_49 
ROOT
ATOM      1  C14 non d ame      -7.842   9.642  65.527  0.00  0.00     0.089 C 
ATOM      2  H20 non d ame      -7.122   9.799  66.331  0.00  0.00     0.087 H 
ENDROOT
BRANCH   1   3
ATOM      3  N4  non d ame      -7.805   8.229  65.177  0.00  0.00    -0.346 N 
ATOM      4  C10 non d ame      -6.597   7.392  65.515  0.00  0.00     0.241 C 
ATOM      5  O4  non d ame      -5.665   7.879  66.066  0.00  0.00    -0.271 OA
ATOM      6  H19 non d ame      -8.607   7.835  64.706  0.00  0.00     0.163 HD
BRANCH   4   7
ATOM      7  C9  non d ame      -6.577   5.931  65.150  0.00  0.00     0.092 C 
ATOM      8  H11 non d ame      -5.880   5.407  65.804  0.00  0.00     0.088 H 
BRANCH   7   9
ATOM      9  N3  non d ame      -7.905   5.352  65.380  0.00  0.00    -0.346 N 
ATOM     10  C7  non d ame      -8.085   4.340  66.391  0.00  0.00     0.240 C 
ATOM     11  O3  non d ame      -7.173   3.979  67.029  0.00  0.00    -0.271 OA
ATOM     12  H10 non d ame      -8.701   5.653  64.836  0.00  0.00     0.163 HD
BRANCH  10  13
ATOM     13  C6  non d ame      -9.500   3.726  66.628  0.00  0.00     0.086 C 
ATOM     14  H6  non d ame      -9.503   2.638  66.564  0.00  0.00     0.086 H 
BRANCH  13  15
ATOM     15  N2  non d ame      -9.941   4.065  67.971  0.00  0.00    -0.343 N 
ATOM     16  C5  non d ame     -10.085   5.472  68.350  0.00  0.00     0.273 C 
ATOM     17  O2  non d ame      -9.840   6.324  67.568  0.00  0.00    -0.266 OA
ATOM     18  H5  non d ame     -10.146   3.330  68.634  0.00  0.00     0.163 HD
BRANCH  16  19
ATOM     19  C4  non d ame     -10.552   5.845  69.765  0.00  0.00     0.154 A 
ATOM     20  C1  non d ame      -9.900   5.535  71.001  0.00  0.00    -0.017 A 
ATOM     21  C2  non d ame     -10.726   6.096  71.999  0.00  0.00     0.077 A 
ATOM     22  H1  non d ame      -8.969   4.987  71.150  0.00  0.00     0.091 H 
ATOM     23  O1  non d ame     -11.731   6.661  71.397  0.00  0.00    -0.218 OA
ATOM     24  N1  non d ame     -11.652   6.528  70.093  0.00  0.00    -0.123 NA
BRANCH  21  25
ATOM     25  C3  non d ame     -10.483   6.049  73.502  0.00  0.00    -0.029 C 
ATOM     26  H2  non d ame     -10.690   5.045  73.873  0.00  0.00     0.036 H 
ATOM     27  H3  non d ame      -9.445   6.306  73.710  0.00  0.00     0.036 H 
ATOM     28  H4  non d ame     -11.141   6.763  73.999  0.00  0.00     0.036 H 
ENDBRANCH  21  25
ENDBRANCH  16  19
ENDBRANCH  13  15
BRANCH  13  29
ATOM     29  C8  non d ame     -10.467   4.277  65.612  0.00  0.00    -0.049 C 
ATOM     30  H7  non d ame      -9.922   4.866  64.873  0.00  0.00     0.030 H 
ATOM     31  H8  non d ame     -10.980   3.455  65.114  0.00  0.00     0.030 H 
ATOM     32  H9  non d ame     -11.197   4.912  66.113  0.00  0.00     0.030 H 
ENDBRANCH  13  29
ENDBRANCH  10  13
ENDBRANCH   7   9
BRANCH   7  33
ATOM     33  C11 non d ame      -6.199   5.777  63.648  0.00  0.00    -0.033 C 
ATOM     34  H12 non d ame      -5.695   4.819  63.532  0.00  0.00     0.042 H 
BRANCH  33  35
ATOM     35  C12 non d ame      -7.470   5.751  62.742  0.00  0.00    -0.071 C 
ATOM     36  H13 non d ame      -8.313   5.359  63.310  0.00  0.00     0.028 H 
ATOM     37  H14 non d ame      -7.697   6.762  62.406  0.00  0.00     0.028 H 
ATOM     38  H15 non d ame      -7.285   5.113  61.878  0.00  0.00     0.028 H 
ENDBRANCH  33  35
BRANCH  33  39
ATOM     39  C13 non d ame      -5.209   6.901  63.202  0.00  0.00    -0.071 C 
ATOM     40  H16 non d ame      -5.142   6.915  62.115  0.00  0.00     0.028 H 
ATOM     41  H17 non d ame      -5.573   7.867  63.556  0.00  0.00     0.028 H 
ATOM     42  H18 non d ame      -4.224   6.707  63.625  0.00  0.00     0.028 H 
ENDBRANCH  33  39
ENDBRANCH   7  33
ENDBRANCH   4   7
ENDBRANCH   1   3
BRANCH   1  43
ATOM     43  C15 non d ame      -9.292  10.007  65.957  0.00  0.00     0.240 C 
ATOM     44  O5  non d ame     -10.148   9.184  65.909  0.00  0.00    -0.271 OA
ATOM     45  N6  non d ame      -9.612  11.382  66.436  0.00  0.00    -0.355 N 
ATOM     46  H46 non d ame      -8.892  12.088  66.484  0.00  0.00     0.162 HD
BRANCH  45  47
ATOM     47  C20 non d ame     -10.994  11.713  66.841  0.00  0.00     0.013 C 
ATOM     48  H30 non d ame     -11.653  10.933  66.459  0.00  0.00     0.072 H 
BRANCH  47  49
ATOM     49  C21 non d ame     -11.382  13.050  66.251  0.00  0.00    -0.038 C 
ATOM     50  H31 non d ame     -10.452  13.503  65.910  0.00  0.00     0.036 H 
ATOM     51  H32 non d ame     -12.178  12.837  65.537  0.00  0.00     0.036 H 
BRANCH  49  52
ATOM     52  C22 non d ame     -11.981  14.016  67.297  0.00  0.00     0.018 C 
ATOM     53  H33 non d ame     -12.848  14.471  66.818  0.00  0.00     0.048 H 
ATOM     54  H34 non d ame     -12.108  13.426  68.205  0.00  0.00     0.048 H 
BRANCH  52  55
ATOM     55  C23 non d ame     -11.037  15.190  67.677  0.00  0.00     0.259 C 
ATOM     56  O7  non d ame     -10.768  16.030  66.881  0.00  0.00    -0.265 OA
BRANCH  55  57
ATOM     57  O8  non d ame     -10.485  15.245  68.987  0.00  0.00    -0.317 OA
BRANCH  57  58
ATOM     58  C29 non d ame     -11.030  16.284  69.805  0.00  0.00     0.052 C 
ATOM     59  H47 non d ame     -10.172  16.802  70.234  0.00  0.00     0.082 H 
ATOM     60  H48 non d ame     -11.730  16.824  69.168  0.00  0.00     0.082 H 
BRANCH  58  61
ATOM     61  C35 non d ame     -11.828  15.618  70.957  0.00  0.00    -0.034 A 
ATOM     62  C30 non d ame     -11.982  16.278  72.172  0.00  0.00    -0.075 A 
ATOM     63  C31 non d ame     -12.700  15.678  73.206  0.00  0.00    -0.082 A 
ATOM     64  H49 non d ame     -11.541  17.265  72.314  0.00  0.00     0.084 H 
ATOM     65  C32 non d ame     -13.261  14.412  73.024  0.00  0.00    -0.083 A 
ATOM     66  H50 non d ame     -12.821  16.200  74.156  0.00  0.00     0.083 H 
ATOM     67  C33 non d ame     -13.102  13.755  71.811  0.00  0.00    -0.082 A 
ATOM     68  H51 non d ame     -13.824  13.937  73.827  0.00  0.00     0.083 H 
ATOM     69  C34 non d ame     -12.387  14.352  70.774  0.00  0.00    -0.075 A 
ATOM     70  H52 non d ame     -13.540  12.766  71.672  0.00  0.00     0.083 H 
ATOM     71  H53 non d ame     -12.268  13.830  69.823  0.00  0.00     0.084 H 
ENDBRANCH  58  61
ENDBRANCH  57  58
ENDBRANCH  55  57
ENDBRANCH  52  55
ENDBRANCH  49  52
ENDBRANCH  47  49
BRANCH  47  72
ATOM     72  C24 non d ame     -11.083  11.783  68.365  0.00  0.00    -0.039 C 
ATOM     73  H35 non d ame     -10.066  11.981  68.705  0.00  0.00     0.036 H 
ATOM     74  H36 non d ame     -11.876  12.500  68.577  0.00  0.00     0.036 H 
BRANCH  72  75
ATOM     75  C25 non d ame     -11.529  10.381  68.998  0.00  0.00    -0.001 C 
ATOM     76  C26 non d ame     -12.731  10.621  70.095  0.00  0.00    -0.035 C 
ATOM     77  C27 non d ame     -12.393  10.004  71.253  0.00  0.00     0.085 C 
ATOM     78  H38 non d ame     -12.780  11.673  70.372  0.00  0.00     0.036 H 
ATOM     79  H39 non d ame     -13.633  10.096  69.782  0.00  0.00     0.036 H 
ATOM     80  N5  non d ame     -10.929   9.646  71.152  0.00  0.00    -0.049 N 
ATOM     81  H40 non d ame     -12.521  10.757  72.032  0.00  0.00     0.075 H 
ATOM     82  H41 non d ame     -12.981   9.088  71.278  0.00  0.00     0.075 H 
ATOM     83  C28 non d ame     -10.541   9.799  69.592  0.00  0.00     0.193 C 
ATOM     84  H42 non d ame     -10.426  10.345  71.679  0.00  0.00     0.280 HD
ATOM     85  H43 non d ame     -10.855   8.672  71.406  0.00  0.00     0.280 HD
ATOM     86  H44 non d ame     -10.421   8.919  68.962  0.00  0.00     0.129 H 
ATOM     87  H37 non d ame     -11.698   9.620  68.237  0.00  0.00     0.046 H 
BRANCH  83  88
ATOM     88  O6  non d ame      -9.324  10.535  69.457  0.00  0.00    -0.369 OA
ATOM     89  H45 non d ame      -9.520  11.474  69.416  0.00  0.00     0.212 HD
ENDBRANCH  83  88
ENDBRANCH  72  75
ENDBRANCH  47  72
ENDBRANCH  45  47
ENDBRANCH   1  43
BRANCH   1  90
ATOM     90  C16 non d ame      -7.446  10.464  64.312  0.00  0.00    -0.035 C 
ATOM     91  H21 non d ame      -7.596  11.504  64.606  0.00  0.00     0.037 H 
ATOM     92  H22 non d ame      -6.451  10.114  64.039  0.00  0.00     0.037 H 
BRANCH  90  93
ATOM     93  C17 non d ame      -8.357  10.222  63.067  0.00  0.00    -0.059 C 
ATOM     94  H23 non d ame      -8.942   9.322  63.255  0.00  0.00     0.038 H 
BRANCH  93  95
ATOM     95  C18 non d ame      -9.356  11.399  62.830  0.00  0.00    -0.073 C 
ATOM     96  H24 non d ame     -10.053  11.129  62.036  0.00  0.00     0.028 H 
ATOM     97  H25 non d ame      -9.911  11.595  63.748  0.00  0.00     0.028 H 
ATOM     98  H26 non d ame      -8.803  12.293  62.541  0.00  0.00     0.028 H 
ENDBRANCH  93  95
BRANCH  93  99
ATOM     99  C19 non d ame      -7.515   9.962  61.815  0.00  0.00    -0.073 C 
ATOM    100  H27 non d ame      -6.892  10.833  61.609  0.00  0.00     0.028 H 
ATOM    101  H28 non d ame      -6.880   9.091  61.980  0.00  0.00     0.028 H 
ATOM    102  H29 non d ame      -8.173   9.775  60.966  0.00  0.00     0.028 H 
ENDBRANCH  93  99
ENDBRANCH  90  93
ENDBRANCH   1  90
TORSDOF 26
ENDMDL
MODEL 15
REMARK VINA RESULT:      -5.8      3.389      7.981
REMARK  26 active torsions:
REMARK  status: ('A' for Active; 'I' for Inactive)
REMARK    1  A    between atoms: C2_2  and  C3_3 
REMARK    2  A    between atoms: C4_6  and  C5_7 
REMARK       I    between atoms: C5_7  and  N2_9 
REMARK    3  A    between atoms: N2_9  and  C6_10 
REMARK    4  A    between atoms: C6_10  and  C7_11 
REMARK    5  A    between atoms: C6_10  and  C8_13 
REMARK       I    between atoms: C7_11  and  N3_14 
REMARK    6  A    between atoms: N3_14  and  C9_15 
REMARK    7  A    between atoms: C9_15  and  C10_16 
REMARK    8  A    between atoms: C9_15  and  C11_18 
REMARK       I    between atoms: C10_16  and  N4_21 
REMARK    9  A    between atoms: C11_18  and  C12_19 
REMARK   10  A    between atoms: C11_18  and  C13_20 
REMARK   11  A    between atoms: N4_21  and  C14_22 
REMARK   12  A    between atoms: C14_22  and  C15_23 
REMARK   13  A    between atoms: C14_22  and  C16_25 
REMARK       I    between atoms: C15_23  and  N6_40 
REMARK   14  A    between atoms: C16_25  and  C17_26 
REMARK   15  A    between atoms: C17_26  and  C18_27 
REMARK   16  A    between atoms: C17_26  and  C19_28 
REMARK   17  A    between atoms: C20_29  and  C21_30 
REMARK   18  A    between atoms: C20_29  and  C24_33 
REMARK   19  A    between atoms: C20_29  and  N6_40 
REMARK   20  A    between atoms: C21_30  and  C22_31 
REMARK   21  A    between atoms: C22_31  and  C23_32 
REMARK   22  A    between atoms: C23_32  and  O8_43 
REMARK   23  A    between atoms: C24_33  and  C25_34 
REMARK   24  A    between atoms: C28_38  and  O6_39 
REMARK   25  A    between atoms: C29_42  and  O8_43 
REMARK   26  A    between atoms: C29_42  and  C35_49 
ROOT
ATOM      1  C14 non d ame      -7.357  10.240  65.870  0.00  0.00     0.089 C 
ATOM      2  H20 non d ame      -7.396   9.752  64.896  0.00  0.00     0.087 H 
ENDROOT
BRANCH   1   3
ATOM      3  N4  non d ame      -8.448  11.202  65.922  0.00  0.00    -0.346 N 
ATOM      4  C10 non d ame      -9.860  10.769  65.613  0.00  0.00     0.241 C 
ATOM      5  O4  non d ame     -10.092   9.641  65.322  0.00  0.00    -0.271 OA
ATOM      6  H19 non d ame      -8.230  12.157  66.169  0.00  0.00     0.163 HD
BRANCH   4   7
ATOM      7  C9  non d ame     -10.979  11.775  65.676  0.00  0.00     0.092 C 
ATOM      8  H11 non d ame     -11.921  11.255  65.847  0.00  0.00     0.088 H 
BRANCH   7   9
ATOM      9  N3  non d ame     -10.767  12.671  66.818  0.00  0.00    -0.346 N 
ATOM     10  C7  non d ame     -11.430  12.410  68.071  0.00  0.00     0.240 C 
ATOM     11  O3  non d ame     -12.139  11.486  68.180  0.00  0.00    -0.271 OA
ATOM     12  H10 non d ame     -10.158  13.474  66.739  0.00  0.00     0.163 HD
BRANCH  10  13
ATOM     13  C6  non d ame     -11.202  13.369  69.281  0.00  0.00     0.086 C 
ATOM     14  H6  non d ame     -10.225  13.238  69.746  0.00  0.00     0.086 H 
BRANCH  13  15
ATOM     15  N2  non d ame     -11.257  14.744  68.810  0.00  0.00    -0.343 N 
ATOM     16  C5  non d ame     -10.056  15.579  68.878  0.00  0.00     0.273 C 
ATOM     17  O2  non d ame      -9.052  15.136  69.316  0.00  0.00    -0.266 OA
ATOM     18  H5  non d ame     -12.121  15.114  68.440  0.00  0.00     0.163 HD
BRANCH  16  19
ATOM     19  C4  non d ame     -10.100  17.032  68.383  0.00  0.00     0.154 A 
ATOM     20  C1  non d ame      -8.986  17.897  68.139  0.00  0.00    -0.017 A 
ATOM     21  C2  non d ame      -9.558  19.112  67.701  0.00  0.00     0.077 A 
ATOM     22  H1  non d ame      -7.925  17.677  68.261  0.00  0.00     0.091 H 
ATOM     23  O1  non d ame     -10.849  18.952  67.695  0.00  0.00    -0.218 OA
ATOM     24  N1  non d ame     -11.190  17.747  68.089  0.00  0.00    -0.123 NA
BRANCH  21  25
ATOM     25  C3  non d ame      -8.802  20.373  67.306  0.00  0.00    -0.029 C 
ATOM     26  H2  non d ame      -8.478  20.899  68.204  0.00  0.00     0.036 H 
ATOM     27  H3  non d ame      -7.931  20.104  66.709  0.00  0.00     0.036 H 
ATOM     28  H4  non d ame      -9.456  21.022  66.721  0.00  0.00     0.036 H 
ENDBRANCH  21  25
ENDBRANCH  16  19
ENDBRANCH  13  15
BRANCH  13  29
ATOM     29  C8  non d ame     -12.271  13.136  70.319  0.00  0.00    -0.049 C 
ATOM     30  H7  non d ame     -11.837  12.622  71.177  0.00  0.00     0.030 H 
ATOM     31  H8  non d ame     -12.683  14.092  70.638  0.00  0.00     0.030 H 
ATOM     32  H9  non d ame     -13.064  12.522  69.892  0.00  0.00     0.030 H 
ENDBRANCH  13  29
ENDBRANCH  10  13
ENDBRANCH   7   9
BRANCH   7  33
ATOM     33  C11 non d ame     -11.000  12.610  64.362  0.00  0.00    -0.033 C 
ATOM     34  H12 non d ame     -10.054  12.442  63.850  0.00  0.00     0.042 H 
BRANCH  33  35
ATOM     35  C12 non d ame     -12.141  12.137  63.408  0.00  0.00    -0.071 C 
ATOM     36  H13 non d ame     -12.426  11.116  63.659  0.00  0.00     0.028 H 
ATOM     37  H14 non d ame     -13.004  12.793  63.520  0.00  0.00     0.028 H 
ATOM     38  H15 non d ame     -11.789  12.173  62.378  0.00  0.00     0.028 H 
ENDBRANCH  33  35
BRANCH  33  39
ATOM     39  C13 non d ame     -11.118  14.137  64.672  0.00  0.00    -0.071 C 
ATOM     40  H16 non d ame     -10.653  14.349  65.634  0.00  0.00     0.028 H 
ATOM     41  H17 non d ame     -10.613  14.706  63.890  0.00  0.00     0.028 H 
ATOM     42  H18 non d ame     -12.169  14.421  64.705  0.00  0.00     0.028 H 
ENDBRANCH  33  39
ENDBRANCH   7  33
ENDBRANCH   4   7
ENDBRANCH   1   3
BRANCH   1  43
ATOM     43  C15 non d ame      -7.531   9.232  67.041  0.00  0.00     0.240 C 
ATOM     44  O5  non d ame      -7.136   9.511  68.126  0.00  0.00    -0.271 OA
ATOM     45  N6  non d ame      -8.199   7.919  66.811  0.00  0.00    -0.355 N 
ATOM     46  H46 non d ame      -8.543   7.672  65.894  0.00  0.00     0.162 HD
BRANCH  45  47
ATOM     47  C20 non d ame      -8.358   6.971  67.935  0.00  0.00     0.013 C 
ATOM     48  H30 non d ame      -7.822   7.375  68.793  0.00  0.00     0.072 H 
BRANCH  47  49
ATOM     49  C21 non d ame      -7.773   5.632  67.546  0.00  0.00    -0.038 C 
ATOM     50  H31 non d ame      -8.124   4.927  68.300  0.00  0.00     0.036 H 
ATOM     51  H32 non d ame      -8.040   5.487  66.498  0.00  0.00     0.036 H 
BRANCH  49  52
ATOM     52  C22 non d ame      -6.231   5.609  67.611  0.00  0.00     0.018 C 
ATOM     53  H33 non d ame      -5.924   6.651  67.714  0.00  0.00     0.048 H 
ATOM     54  H34 non d ame      -5.979   4.888  68.388  0.00  0.00     0.048 H 
BRANCH  52  55
ATOM     55  C23 non d ame      -5.556   5.092  66.311  0.00  0.00     0.259 C 
ATOM     56  O7  non d ame      -5.517   3.928  66.073  0.00  0.00    -0.265 OA
BRANCH  55  57
ATOM     57  O8  non d ame      -4.970   6.025  65.411  0.00  0.00    -0.317 OA
BRANCH  57  58
ATOM     58  C29 non d ame      -5.199   5.725  64.031  0.00  0.00     0.052 C 
ATOM     59  H47 non d ame      -4.218   5.744  63.558  0.00  0.00     0.082 H 
ATOM     60  H48 non d ame      -5.790   4.809  64.023  0.00  0.00     0.082 H 
BRANCH  58  61
ATOM     61  C35 non d ame      -6.059   6.868  63.429  0.00  0.00    -0.034 A 
ATOM     62  C30 non d ame      -7.447   6.779  63.443  0.00  0.00    -0.075 A 
ATOM     63  C31 non d ame      -8.218   7.806  62.902  0.00  0.00    -0.082 A 
ATOM     64  H49 non d ame      -7.930   5.904  63.878  0.00  0.00     0.084 H 
ATOM     65  C32 non d ame      -7.596   8.925  62.342  0.00  0.00    -0.083 A 
ATOM     66  H50 non d ame      -9.306   7.734  62.917  0.00  0.00     0.083 H 
ATOM     67  C33 non d ame      -6.210   9.009  62.327  0.00  0.00    -0.082 A 
ATOM     68  H51 non d ame      -8.192   9.733  61.918  0.00  0.00     0.083 H 
ATOM     69  C34 non d ame      -5.436   7.985  62.869  0.00  0.00    -0.075 A 
ATOM     70  H52 non d ame      -5.728   9.883  61.887  0.00  0.00     0.083 H 
ATOM     71  H53 non d ame      -4.347   8.059  62.854  0.00  0.00     0.084 H 
ENDBRANCH  58  61
ENDBRANCH  57  58
ENDBRANCH  55  57
ENDBRANCH  52  55
ENDBRANCH  49  52
ENDBRANCH  47  49
BRANCH  47  72
ATOM     72  C24 non d ame      -9.840   6.805  68.264  0.00  0.00    -0.039 C 
ATOM     73  H35 non d ame     -10.368   7.437  67.550  0.00  0.00     0.036 H 
ATOM     74  H36 non d ame     -10.017   5.729  68.272  0.00  0.00     0.036 H 
BRANCH  72  75
ATOM     75  C25 non d ame     -10.187   7.352  69.729  0.00  0.00    -0.001 C 
ATOM     76  C26 non d ame     -11.149   6.275  70.515  0.00  0.00    -0.035 C 
ATOM     77  C27 non d ame     -12.230   6.930  71.002  0.00  0.00     0.085 C 
ATOM     78  H38 non d ame     -11.577   5.568  69.806  0.00  0.00     0.036 H 
ATOM     79  H39 non d ame     -10.648   5.911  71.412  0.00  0.00     0.036 H 
ATOM     80  N5  non d ame     -12.258   8.288  70.340  0.00  0.00    -0.049 N 
ATOM     81  H40 non d ame     -13.095   6.355  70.668  0.00  0.00     0.075 H 
ATOM     82  H41 non d ame     -12.039   7.058  72.066  0.00  0.00     0.075 H 
ATOM     83  C28 non d ame     -10.802   8.486  69.672  0.00  0.00     0.193 C 
ATOM     84  H42 non d ame     -12.946   8.233  69.603  0.00  0.00     0.280 HD
ATOM     85  H43 non d ame     -12.366   8.965  71.082  0.00  0.00     0.280 HD
ATOM     86  H44 non d ame     -10.063   9.137  70.137  0.00  0.00     0.129 H 
ATOM     87  H37 non d ame      -9.301   7.705  70.258  0.00  0.00     0.046 H 
BRANCH  83  88
ATOM     88  O6  non d ame     -10.936   8.959  68.330  0.00  0.00    -0.369 OA
ATOM     89  H45 non d ame     -10.350   9.707  68.195  0.00  0.00     0.212 HD
ENDBRANCH  83  88
ENDBRANCH  72  75
ENDBRANCH  47  72
ENDBRANCH  45  47
ENDBRANCH   1  43
BRANCH   1  90
ATOM     90  C16 non d ame      -6.038  10.979  66.023  0.00  0.00    -0.035 C 
ATOM     91  H21 non d ame      -6.127  11.863  65.390  0.00  0.00     0.037 H 
ATOM     92  H22 non d ame      -5.893  11.092  67.097  0.00  0.00     0.037 H 
BRANCH  90  93
ATOM     93  C17 non d ame      -4.806  10.180  65.493  0.00  0.00    -0.059 C 
ATOM     94  H23 non d ame      -5.183   9.308  64.958  0.00  0.00     0.038 H 
BRANCH  93  95
ATOM     95  C18 non d ame      -3.945  11.016  64.493  0.00  0.00    -0.073 C 
ATOM     96  H24 non d ame      -2.895  10.952  64.775  0.00  0.00     0.028 H 
ATOM     97  H25 non d ame      -4.075  10.623  63.485  0.00  0.00     0.028 H 
ATOM     98  H26 non d ame      -4.267  12.058  64.520  0.00  0.00     0.028 H 
ENDBRANCH  93  95
BRANCH  93  99
ATOM     99  C19 non d ame      -3.947   9.665  66.651  0.00  0.00    -0.073 C 
ATOM    100  H27 non d ame      -4.327   8.698  66.983  0.00  0.00     0.028 H 
ATOM    101  H28 non d ame      -2.915   9.555  66.316  0.00  0.00     0.028 H 
ATOM    102  H29 non d ame      -3.986  10.375  67.477  0.00  0.00     0.028 H 
ENDBRANCH  93  99
ENDBRANCH  90  93
ENDBRANCH   1  90
TORSDOF 26
ENDMDL
MODEL 16
REMARK VINA RESULT:      -5.8      3.250      8.326
REMARK  26 active torsions:
REMARK  status: ('A' for Active; 'I' for Inactive)
REMARK    1  A    between atoms: C2_2  and  C3_3 
REMARK    2  A    between atoms: C4_6  and  C5_7 
REMARK       I    between atoms: C5_7  and  N2_9 
REMARK    3  A    between atoms: N2_9  and  C6_10 
REMARK    4  A    between atoms: C6_10  and  C7_11 
REMARK    5  A    between atoms: C6_10  and  C8_13 
REMARK       I    between atoms: C7_11  and  N3_14 
REMARK    6  A    between atoms: N3_14  and  C9_15 
REMARK    7  A    between atoms: C9_15  and  C10_16 
REMARK    8  A    between atoms: C9_15  and  C11_18 
REMARK       I    between atoms: C10_16  and  N4_21 
REMARK    9  A    between atoms: C11_18  and  C12_19 
REMARK   10  A    between atoms: C11_18  and  C13_20 
REMARK   11  A    between atoms: N4_21  and  C14_22 
REMARK   12  A    between atoms: C14_22  and  C15_23 
REMARK   13  A    between atoms: C14_22  and  C16_25 
REMARK       I    between atoms: C15_23  and  N6_40 
REMARK   14  A    between atoms: C16_25  and  C17_26 
REMARK   15  A    between atoms: C17_26  and  C18_27 
REMARK   16  A    between atoms: C17_26  and  C19_28 
REMARK   17  A    between atoms: C20_29  and  C21_30 
REMARK   18  A    between atoms: C20_29  and  C24_33 
REMARK   19  A    between atoms: C20_29  and  N6_40 
REMARK   20  A    between atoms: C21_30  and  C22_31 
REMARK   21  A    between atoms: C22_31  and  C23_32 
REMARK   22  A    between atoms: C23_32  and  O8_43 
REMARK   23  A    between atoms: C24_33  and  C25_34 
REMARK   24  A    between atoms: C28_38  and  O6_39 
REMARK   25  A    between atoms: C29_42  and  O8_43 
REMARK   26  A    between atoms: C29_42  and  C35_49 
ROOT
ATOM      1  C14 non d ame     -10.221   8.778  69.006  0.00  0.00     0.089 C 
ATOM      2  H20 non d ame     -11.300   8.656  69.104  0.00  0.00     0.087 H 
ENDROOT
BRANCH   1   3
ATOM      3  N4  non d ame      -9.652   7.463  68.752  0.00  0.00    -0.346 N 
ATOM      4  C10 non d ame     -10.491   6.222  68.935  0.00  0.00     0.241 C 
ATOM      5  O4  non d ame     -11.621   6.309  69.290  0.00  0.00    -0.271 OA
ATOM      6  H19 non d ame      -8.689   7.410  68.453  0.00  0.00     0.163 HD
BRANCH   4   7
ATOM      7  C9  non d ame      -9.889   4.869  68.663  0.00  0.00     0.092 C 
ATOM      8  H11 non d ame     -10.545   4.312  67.994  0.00  0.00     0.088 H 
BRANCH   7   9
ATOM      9  N3  non d ame      -8.606   5.034  67.972  0.00  0.00    -0.346 N 
ATOM     10  C7  non d ame      -8.510   4.768  66.558  0.00  0.00     0.240 C 
ATOM     11  O3  non d ame      -9.453   4.418  65.960  0.00  0.00    -0.271 OA
ATOM     12  H10 non d ame      -7.783   5.334  68.475  0.00  0.00     0.163 HD
BRANCH  10  13
ATOM     13  C6  non d ame      -7.141   4.943  65.830  0.00  0.00     0.086 C 
ATOM     14  H6  non d ame      -7.038   4.292  64.961  0.00  0.00     0.086 H 
BRANCH  13  15
ATOM     15  N2  non d ame      -7.039   6.308  65.340  0.00  0.00    -0.343 N 
ATOM     16  C5  non d ame      -7.113   6.566  63.900  0.00  0.00     0.273 C 
ATOM     17  O2  non d ame      -7.250   5.668  63.144  0.00  0.00    -0.266 OA
ATOM     18  H5  non d ame      -6.918   7.069  65.993  0.00  0.00     0.163 HD
BRANCH  16  19
ATOM     19  C4  non d ame      -7.007   8.004  63.369  0.00  0.00     0.154 A 
ATOM     20  C1  non d ame      -7.842   8.626  62.387  0.00  0.00    -0.017 A 
ATOM     21  C2  non d ame      -7.333   9.937  62.257  0.00  0.00     0.077 A 
ATOM     22  H1  non d ame      -8.687   8.193  61.852  0.00  0.00     0.091 H 
ATOM     23  O1  non d ame      -6.327  10.046  63.074  0.00  0.00    -0.218 OA
ATOM     24  N1  non d ame      -6.117   8.930  63.734  0.00  0.00    -0.123 NA
BRANCH  21  25
ATOM     25  C3  non d ame      -7.867  11.023  61.332  0.00  0.00    -0.029 C 
ATOM     26  H2  non d ame      -7.063  11.715  61.081  0.00  0.00     0.036 H 
ATOM     27  H3  non d ame      -8.253  10.568  60.421  0.00  0.00     0.036 H 
ATOM     28  H4  non d ame      -8.669  11.566  61.834  0.00  0.00     0.036 H 
ENDBRANCH  21  25
ENDBRANCH  16  19
ENDBRANCH  13  15
BRANCH  13  29
ATOM     29  C8  non d ame      -6.016   4.654  66.790  0.00  0.00    -0.049 C 
ATOM     30  H7  non d ame      -5.216   5.380  66.642  0.00  0.00     0.030 H 
ATOM     31  H8  non d ame      -6.384   4.723  67.814  0.00  0.00     0.030 H 
ATOM     32  H9  non d ame      -5.632   3.650  66.609  0.00  0.00     0.030 H 
ENDBRANCH  13  29
ENDBRANCH  10  13
ENDBRANCH   7   9
BRANCH   7  33
ATOM     33  C11 non d ame      -9.658   4.124  70.010  0.00  0.00    -0.033 C 
ATOM     34  H12 non d ame     -10.580   4.191  70.586  0.00  0.00     0.042 H 
BRANCH  33  35
ATOM     35  C12 non d ame      -9.358   2.610  69.778  0.00  0.00    -0.071 C 
ATOM     36  H13 non d ame      -8.292   2.474  69.597  0.00  0.00     0.028 H 
ATOM     37  H14 non d ame      -9.652   2.042  70.660  0.00  0.00     0.028 H 
ATOM     38  H15 non d ame      -9.921   2.258  68.914  0.00  0.00     0.028 H 
ENDBRANCH  33  35
BRANCH  33  39
ATOM     39  C13 non d ame      -8.521   4.805  70.837  0.00  0.00    -0.071 C 
ATOM     40  H16 non d ame      -7.677   4.122  70.926  0.00  0.00     0.028 H 
ATOM     41  H17 non d ame      -8.199   5.716  70.331  0.00  0.00     0.028 H 
ATOM     42  H18 non d ame      -8.893   5.054  71.831  0.00  0.00     0.028 H 
ENDBRANCH  33  39
ENDBRANCH   7  33
ENDBRANCH   4   7
ENDBRANCH   1   3
BRANCH   1  43
ATOM     43  C15 non d ame      -9.841   9.717  67.825  0.00  0.00     0.240 C 
ATOM     44  O5  non d ame      -9.580   9.254  66.762  0.00  0.00    -0.271 OA
ATOM     45  N6  non d ame      -9.810  11.195  68.018  0.00  0.00    -0.355 N 
ATOM     46  H46 non d ame     -10.033  11.599  68.916  0.00  0.00     0.162 HD
BRANCH  45  47
ATOM     47  C20 non d ame      -9.447  12.074  66.886  0.00  0.00     0.013 C 
ATOM     48  H30 non d ame      -9.130  11.441  66.057  0.00  0.00     0.072 H 
BRANCH  47  49
ATOM     49  C21 non d ame      -8.315  12.985  67.302  0.00  0.00    -0.038 C 
ATOM     50  H31 non d ame      -7.428  12.353  67.341  0.00  0.00     0.036 H 
ATOM     51  H32 non d ame      -8.351  13.832  66.617  0.00  0.00     0.036 H 
BRANCH  49  52
ATOM     52  C22 non d ame      -8.501  13.563  68.722  0.00  0.00     0.018 C 
ATOM     53  H33 non d ame      -9.353  13.032  69.148  0.00  0.00     0.048 H 
ATOM     54  H34 non d ame      -7.524  13.496  69.199  0.00  0.00     0.048 H 
BRANCH  52  55
ATOM     55  C23 non d ame      -8.885  15.069  68.739  0.00  0.00     0.259 C 
ATOM     56  O7  non d ame      -8.283  15.852  68.079  0.00  0.00    -0.265 OA
BRANCH  55  57
ATOM     57  O8  non d ame      -9.957  15.505  69.566  0.00  0.00    -0.317 OA
BRANCH  57  58
ATOM     58  C29 non d ame     -11.192  14.822  69.326  0.00  0.00     0.052 C 
ATOM     59  H47 non d ame     -11.731  15.432  68.603  0.00  0.00     0.082 H 
ATOM     60  H48 non d ame     -10.917  13.797  69.077  0.00  0.00     0.082 H 
BRANCH  58  61
ATOM     61  C35 non d ame     -11.996  14.806  70.653  0.00  0.00    -0.034 A 
ATOM     62  C30 non d ame     -11.978  15.915  71.493  0.00  0.00    -0.075 A 
ATOM     63  C31 non d ame     -12.700  15.901  72.685  0.00  0.00    -0.082 A 
ATOM     64  H49 non d ame     -11.398  16.796  71.216  0.00  0.00     0.084 H 
ATOM     65  C32 non d ame     -13.440  14.769  73.039  0.00  0.00    -0.083 A 
ATOM     66  H50 non d ame     -12.687  16.773  73.339  0.00  0.00     0.083 H 
ATOM     67  C33 non d ame     -13.452  13.663  72.200  0.00  0.00    -0.082 A 
ATOM     68  H51 non d ame     -14.008  14.750  73.968  0.00  0.00     0.083 H 
ATOM     69  C34 non d ame     -12.733  13.675  71.006  0.00  0.00    -0.075 A 
ATOM     70  H52 non d ame     -14.029  12.781  72.480  0.00  0.00     0.083 H 
ATOM     71  H53 non d ame     -12.749  12.802  70.352  0.00  0.00     0.084 H 
ENDBRANCH  58  61
ENDBRANCH  57  58
ENDBRANCH  55  57
ENDBRANCH  52  55
ENDBRANCH  49  52
ENDBRANCH  47  49
BRANCH  47  72
ATOM     72  C24 non d ame     -10.655  12.915  66.479  0.00  0.00    -0.039 C 
ATOM     73  H35 non d ame     -11.244  13.036  67.389  0.00  0.00     0.036 H 
ATOM     74  H36 non d ame     -10.243  13.791  65.977  0.00  0.00     0.036 H 
BRANCH  72  75
ATOM     75  C25 non d ame     -11.579  12.152  65.416  0.00  0.00    -0.001 C 
ATOM     76  C26 non d ame     -10.639  11.381  64.309  0.00  0.00    -0.035 C 
ATOM     77  C27 non d ame     -11.058  11.723  63.067  0.00  0.00     0.085 C 
ATOM     78  H38 non d ame      -9.621  11.767  64.349  0.00  0.00     0.036 H 
ATOM     79  H39 non d ame     -10.817  10.307  64.351  0.00  0.00     0.036 H 
ATOM     80  N5  non d ame     -11.982  12.907  63.224  0.00  0.00    -0.049 N 
ATOM     81  H40 non d ame     -10.162  12.040  62.534  0.00  0.00     0.075 H 
ATOM     82  H41 non d ame     -11.633  10.870  62.709  0.00  0.00     0.075 H 
ATOM     83  C28 non d ame     -12.355  12.975  64.793  0.00  0.00     0.193 C 
ATOM     84  H42 non d ame     -11.442  13.725  62.985  0.00  0.00     0.280 HD
ATOM     85  H43 non d ame     -12.820  12.686  62.704  0.00  0.00     0.280 HD
ATOM     86  H44 non d ame     -13.328  12.638  65.147  0.00  0.00     0.129 H 
ATOM     87  H37 non d ame     -12.362  11.565  65.897  0.00  0.00     0.046 H 
BRANCH  83  88
ATOM     88  O6  non d ame     -12.217  14.314  65.274  0.00  0.00    -0.369 OA
ATOM     89  H45 non d ame     -11.311  14.460  65.557  0.00  0.00     0.212 HD
ENDBRANCH  83  88
ENDBRANCH  72  75
ENDBRANCH  47  72
ENDBRANCH  45  47
ENDBRANCH   1  43
BRANCH   1  90
ATOM     90  C16 non d ame      -9.644   9.326  70.301  0.00  0.00    -0.035 C 
ATOM     91  H21 non d ame      -8.801   8.676  70.539  0.00  0.00     0.037 H 
ATOM     92  H22 non d ame      -9.478  10.387  70.117  0.00  0.00     0.037 H 
BRANCH  90  93
ATOM     93  C17 non d ame     -10.626   9.236  71.512  0.00  0.00    -0.059 C 
ATOM     94  H23 non d ame     -10.367  10.034  72.207  0.00  0.00     0.038 H 
BRANCH  93  95
ATOM     95  C18 non d ame     -12.113   9.443  71.082  0.00  0.00    -0.073 C 
ATOM     96  H24 non d ame     -12.147   9.806  70.055  0.00  0.00     0.028 H 
ATOM     97  H25 non d ame     -12.646   8.494  71.149  0.00  0.00     0.028 H 
ATOM     98  H26 non d ame     -12.584  10.172  71.742  0.00  0.00     0.028 H 
ENDBRANCH  93  95
BRANCH  93  99
ATOM     99  C19 non d ame     -10.454   7.910  72.258  0.00  0.00    -0.073 C 
ATOM    100  H27 non d ame     -11.210   7.833  73.041  0.00  0.00     0.028 H 
ATOM    101  H28 non d ame     -10.570   7.082  71.558  0.00  0.00     0.028 H 
ATOM    102  H29 non d ame      -9.461   7.870  72.705  0.00  0.00     0.028 H 
ENDBRANCH  93  99
ENDBRANCH  90  93
ENDBRANCH   1  90
TORSDOF 26
ENDMDL
MODEL 17
REMARK VINA RESULT:      -5.8      1.836      5.350
REMARK  26 active torsions:
REMARK  status: ('A' for Active; 'I' for Inactive)
REMARK    1  A    between atoms: C2_2  and  C3_3 
REMARK    2  A    between atoms: C4_6  and  C5_7 
REMARK       I    between atoms: C5_7  and  N2_9 
REMARK    3  A    between atoms: N2_9  and  C6_10 
REMARK    4  A    between atoms: C6_10  and  C7_11 
REMARK    5  A    between atoms: C6_10  and  C8_13 
REMARK       I    between atoms: C7_11  and  N3_14 
REMARK    6  A    between atoms: N3_14  and  C9_15 
REMARK    7  A    between atoms: C9_15  and  C10_16 
REMARK    8  A    between atoms: C9_15  and  C11_18 
REMARK       I    between atoms: C10_16  and  N4_21 
REMARK    9  A    between atoms: C11_18  and  C12_19 
REMARK   10  A    between atoms: C11_18  and  C13_20 
REMARK   11  A    between atoms: N4_21  and  C14_22 
REMARK   12  A    between atoms: C14_22  and  C15_23 
REMARK   13  A    between atoms: C14_22  and  C16_25 
REMARK       I    between atoms: C15_23  and  N6_40 
REMARK   14  A    between atoms: C16_25  and  C17_26 
REMARK   15  A    between atoms: C17_26  and  C18_27 
REMARK   16  A    between atoms: C17_26  and  C19_28 
REMARK   17  A    between atoms: C20_29  and  C21_30 
REMARK   18  A    between atoms: C20_29  and  C24_33 
REMARK   19  A    between atoms: C20_29  and  N6_40 
REMARK   20  A    between atoms: C21_30  and  C22_31 
REMARK   21  A    between atoms: C22_31  and  C23_32 
REMARK   22  A    between atoms: C23_32  and  O8_43 
REMARK   23  A    between atoms: C24_33  and  C25_34 
REMARK   24  A    between atoms: C28_38  and  O6_39 
REMARK   25  A    between atoms: C29_42  and  O8_43 
REMARK   26  A    between atoms: C29_42  and  C35_49 
ROOT
ATOM      1  C14 non d ame      -6.729  13.290  68.190  0.00  0.00     0.089 C 
ATOM      2  H20 non d ame      -5.753  13.167  67.718  0.00  0.00     0.087 H 
ENDROOT
BRANCH   1   3
ATOM      3  N4  non d ame      -7.034  14.713  68.200  0.00  0.00    -0.346 N 
ATOM      4  C10 non d ame      -6.014  15.715  67.719  0.00  0.00     0.241 C 
ATOM      5  O4  non d ame      -4.953  15.350  67.330  0.00  0.00    -0.271 OA
ATOM      6  H19 non d ame      -7.941  15.003  68.538  0.00  0.00     0.163 HD
BRANCH   4   7
ATOM      7  C9  non d ame      -6.348  17.183  67.732  0.00  0.00     0.092 C 
ATOM      8  H11 non d ame      -6.153  17.604  66.746  0.00  0.00     0.088 H 
BRANCH   7   9
ATOM      9  N3  non d ame      -7.779  17.356  68.002  0.00  0.00    -0.346 N 
ATOM     10  C7  non d ame      -8.641  17.909  66.987  0.00  0.00     0.240 C 
ATOM     11  O3  non d ame      -8.202  18.220  65.948  0.00  0.00    -0.271 OA
ATOM     12  H10 non d ame      -8.173  17.093  68.894  0.00  0.00     0.163 HD
BRANCH  10  13
ATOM     13  C6  non d ame     -10.163  18.094  67.282  0.00  0.00     0.086 C 
ATOM     14  H6  non d ame     -10.798  17.687  66.494  0.00  0.00     0.086 H 
BRANCH  13  15
ATOM     15  N2  non d ame     -10.498  17.374  68.500  0.00  0.00    -0.343 N 
ATOM     16  C5  non d ame     -11.262  16.127  68.415  0.00  0.00     0.273 C 
ATOM     17  O2  non d ame     -11.605  15.714  67.362  0.00  0.00    -0.266 OA
ATOM     18  H5  non d ame     -10.203  17.737  69.395  0.00  0.00     0.163 HD
BRANCH  16  19
ATOM     19  C4  non d ame     -11.622  15.357  69.694  0.00  0.00     0.154 A 
ATOM     20  C1  non d ame     -12.025  15.908  70.952  0.00  0.00    -0.017 A 
ATOM     21  C2  non d ame     -12.238  14.790  71.787  0.00  0.00     0.077 A 
ATOM     22  H1  non d ame     -12.145  16.959  71.217  0.00  0.00     0.091 H 
ATOM     23  O1  non d ame     -11.987  13.726  71.083  0.00  0.00    -0.218 OA
ATOM     24  N1  non d ame     -11.625  14.031  69.857  0.00  0.00    -0.123 NA
BRANCH  21  25
ATOM     25  C3  non d ame     -12.682  14.824  73.244  0.00  0.00    -0.029 C 
ATOM     26  H2  non d ame     -13.695  15.222  73.306  0.00  0.00     0.036 H 
ATOM     27  H3  non d ame     -12.662  13.815  73.654  0.00  0.00     0.036 H 
ATOM     28  H4  non d ame     -12.006  15.462  73.815  0.00  0.00     0.036 H 
ENDBRANCH  21  25
ENDBRANCH  16  19
ENDBRANCH  13  15
BRANCH  13  29
ATOM     29  C8  non d ame     -10.471  19.560  67.447  0.00  0.00    -0.049 C 
ATOM     30  H7  non d ame     -11.475  19.676  67.858  0.00  0.00     0.030 H 
ATOM     31  H8  non d ame      -9.747  20.011  68.124  0.00  0.00     0.030 H 
ATOM     32  H9  non d ame     -10.419  20.053  66.476  0.00  0.00     0.030 H 
ENDBRANCH  13  29
ENDBRANCH  10  13
ENDBRANCH   7   9
BRANCH   7  33
ATOM     33  C11 non d ame      -5.523  17.892  68.845  0.00  0.00    -0.033 C 
ATOM     34  H12 non d ame      -4.482  17.903  68.527  0.00  0.00     0.042 H 
BRANCH  33  35
ATOM     35  C12 non d ame      -5.973  19.376  69.028  0.00  0.00    -0.071 C 
ATOM     36  H13 non d ame      -5.946  19.885  68.066  0.00  0.00     0.028 H 
ATOM     37  H14 non d ame      -6.988  19.401  69.424  0.00  0.00     0.028 H 
ATOM     38  H15 non d ame      -5.299  19.875  69.723  0.00  0.00     0.028 H 
ENDBRANCH  33  35
BRANCH  33  39
ATOM     39  C13 non d ame      -5.608  17.105  70.192  0.00  0.00    -0.071 C 
ATOM     40  H16 non d ame      -6.241  16.228  70.061  0.00  0.00     0.028 H 
ATOM     41  H17 non d ame      -4.608  16.790  70.493  0.00  0.00     0.028 H 
ATOM     42  H18 non d ame      -6.033  17.748  70.963  0.00  0.00     0.028 H 
ENDBRANCH  33  39
ENDBRANCH   7  33
ENDBRANCH   4   7
ENDBRANCH   1   3
BRANCH   1  43
ATOM     43  C15 non d ame      -7.854  12.549  67.413  0.00  0.00     0.240 C 
ATOM     44  O5  non d ame      -7.571  11.759  66.572  0.00  0.00    -0.271 OA
ATOM     45  N6  non d ame      -9.288  12.818  67.725  0.00  0.00    -0.355 N 
ATOM     46  H46 non d ame      -9.540  13.484  68.441  0.00  0.00     0.162 HD
BRANCH  45  47
ATOM     47  C20 non d ame     -10.346  12.105  66.979  0.00  0.00     0.013 C 
ATOM     48  H30 non d ame      -9.866  11.364  66.340  0.00  0.00     0.072 H 
BRANCH  47  49
ATOM     49  C21 non d ame     -11.115  13.095  66.133  0.00  0.00    -0.038 C 
ATOM     50  H31 non d ame     -11.585  13.781  66.837  0.00  0.00     0.036 H 
ATOM     51  H32 non d ame     -10.403  13.470  65.398  0.00  0.00     0.036 H 
BRANCH  49  52
ATOM     52  C22 non d ame     -12.261  12.436  65.334  0.00  0.00     0.018 C 
ATOM     53  H33 non d ame     -12.358  11.426  65.734  0.00  0.00     0.048 H 
ATOM     54  H34 non d ame     -13.100  13.129  65.395  0.00  0.00     0.048 H 
BRANCH  52  55
ATOM     55  C23 non d ame     -11.953  12.268  63.820  0.00  0.00     0.259 C 
ATOM     56  O7  non d ame     -12.342  13.069  63.033  0.00  0.00    -0.265 OA
BRANCH  55  57
ATOM     57  O8  non d ame     -11.212  11.136  63.381  0.00  0.00    -0.317 OA
BRANCH  57  58
ATOM     58  C29 non d ame      -9.828  11.406  63.137  0.00  0.00     0.052 C 
ATOM     59  H47 non d ame      -9.740  11.543  62.060  0.00  0.00     0.082 H 
ATOM     60  H48 non d ame      -9.563  12.219  63.813  0.00  0.00     0.082 H 
BRANCH  58  61
ATOM     61  C35 non d ame      -9.016  10.147  63.541  0.00  0.00    -0.034 A 
ATOM     62  C30 non d ame      -9.337   9.454  64.704  0.00  0.00    -0.075 A 
ATOM     63  C31 non d ame      -8.608   8.322  65.066  0.00  0.00    -0.082 A 
ATOM     64  H49 non d ame     -10.162   9.796  65.330  0.00  0.00     0.084 H 
ATOM     65  C32 non d ame      -7.550   7.888  64.263  0.00  0.00    -0.083 A 
ATOM     66  H50 non d ame      -8.864   7.780  65.976  0.00  0.00     0.083 H 
ATOM     67  C33 non d ame      -7.230   8.585  63.106  0.00  0.00    -0.082 A 
ATOM     68  H51 non d ame      -6.975   7.004  64.539  0.00  0.00     0.083 H 
ATOM     69  C34 non d ame      -7.959   9.714  62.739  0.00  0.00    -0.075 A 
ATOM     70  H52 non d ame      -6.403   8.243  62.483  0.00  0.00     0.083 H 
ATOM     71  H53 non d ame      -7.702  10.256  61.827  0.00  0.00     0.084 H 
ENDBRANCH  58  61
ENDBRANCH  57  58
ENDBRANCH  55  57
ENDBRANCH  52  55
ENDBRANCH  49  52
ENDBRANCH  47  49
BRANCH  47  72
ATOM     72  C24 non d ame     -11.298  11.423  67.959  0.00  0.00    -0.039 C 
ATOM     73  H35 non d ame     -11.784  12.234  68.503  0.00  0.00     0.036 H 
ATOM     74  H36 non d ame     -11.895  10.739  67.355  0.00  0.00     0.036 H 
BRANCH  72  75
ATOM     75  C25 non d ame     -10.508  10.538  69.035  0.00  0.00    -0.001 C 
ATOM     76  C26 non d ame     -10.087   9.094  68.371  0.00  0.00    -0.035 C 
ATOM     77  C27 non d ame     -10.494   8.099  69.196  0.00  0.00     0.085 C 
ATOM     78  H38 non d ame     -10.659   8.920  67.461  0.00  0.00     0.036 H 
ATOM     79  H39 non d ame      -9.002   8.989  68.362  0.00  0.00     0.036 H 
ATOM     80  N5  non d ame     -11.441   8.717  70.198  0.00  0.00    -0.049 N 
ATOM     81  H40 non d ame     -11.048   7.405  68.564  0.00  0.00     0.075 H 
ATOM     82  H41 non d ame      -9.596   7.766  69.716  0.00  0.00     0.075 H 
ATOM     83  C28 non d ame     -11.233  10.313  70.080  0.00  0.00     0.193 C 
ATOM     84  H42 non d ame     -12.374   8.489  69.887  0.00  0.00     0.280 HD
ATOM     85  H43 non d ame     -11.126   8.419  71.110  0.00  0.00     0.280 HD
ATOM     86  H44 non d ame     -10.667  10.856  70.836  0.00  0.00     0.129 H 
ATOM     87  H37 non d ame      -9.721  11.103  69.535  0.00  0.00     0.046 H 
BRANCH  83  88
ATOM     88  O6  non d ame     -12.500  10.971  70.007  0.00  0.00    -0.369 OA
ATOM     89  H45 non d ame     -12.645  11.475  70.812  0.00  0.00     0.212 HD
ENDBRANCH  83  88
ENDBRANCH  72  75
ENDBRANCH  47  72
ENDBRANCH  45  47
ENDBRANCH   1  43
BRANCH   1  90
ATOM     90  C16 non d ame      -6.677  12.783  69.622  0.00  0.00    -0.035 C 
ATOM     91  H21 non d ame      -6.877  13.657  70.245  0.00  0.00     0.037 H 
ATOM     92  H22 non d ame      -7.352  11.928  69.650  0.00  0.00     0.037 H 
BRANCH  90  93
ATOM     93  C17 non d ame      -5.271  12.251  70.048  0.00  0.00    -0.059 C 
ATOM     94  H23 non d ame      -4.868  12.940  70.789  0.00  0.00     0.038 H 
BRANCH  93  95
ATOM     95  C18 non d ame      -5.351  10.837  70.706  0.00  0.00    -0.073 C 
ATOM     96  H24 non d ame      -6.336  10.700  71.154  0.00  0.00     0.028 H 
ATOM     97  H25 non d ame      -5.189  10.073  69.946  0.00  0.00     0.028 H 
ATOM     98  H26 non d ame      -4.585  10.752  71.478  0.00  0.00     0.028 H 
ENDBRANCH  93  95
BRANCH  93  99
ATOM     99  C19 non d ame      -4.305  12.245  68.860  0.00  0.00    -0.073 C 
ATOM    100  H27 non d ame      -4.731  11.652  68.049  0.00  0.00     0.028 H 
ATOM    101  H28 non d ame      -4.145  13.268  68.518  0.00  0.00     0.028 H 
ATOM    102  H29 non d ame      -3.354  11.812  69.167  0.00  0.00     0.028 H 
ENDBRANCH  93  99
ENDBRANCH  90  93
ENDBRANCH   1  90
TORSDOF 26
ENDMDL
MODEL 18
REMARK VINA RESULT:      -5.7      4.703      9.469
REMARK  26 active torsions:
REMARK  status: ('A' for Active; 'I' for Inactive)
REMARK    1  A    between atoms: C2_2  and  C3_3 
REMARK    2  A    between atoms: C4_6  and  C5_7 
REMARK       I    between atoms: C5_7  and  N2_9 
REMARK    3  A    between atoms: N2_9  and  C6_10 
REMARK    4  A    between atoms: C6_10  and  C7_11 
REMARK    5  A    between atoms: C6_10  and  C8_13 
REMARK       I    between atoms: C7_11  and  N3_14 
REMARK    6  A    between atoms: N3_14  and  C9_15 
REMARK    7  A    between atoms: C9_15  and  C10_16 
REMARK    8  A    between atoms: C9_15  and  C11_18 
REMARK       I    between atoms: C10_16  and  N4_21 
REMARK    9  A    between atoms: C11_18  and  C12_19 
REMARK   10  A    between atoms: C11_18  and  C13_20 
REMARK   11  A    between atoms: N4_21  and  C14_22 
REMARK   12  A    between atoms: C14_22  and  C15_23 
REMARK   13  A    between atoms: C14_22  and  C16_25 
REMARK       I    between atoms: C15_23  and  N6_40 
REMARK   14  A    between atoms: C16_25  and  C17_26 
REMARK   15  A    between atoms: C17_26  and  C18_27 
REMARK   16  A    between atoms: C17_26  and  C19_28 
REMARK   17  A    between atoms: C20_29  and  C21_30 
REMARK   18  A    between atoms: C20_29  and  C24_33 
REMARK   19  A    between atoms: C20_29  and  N6_40 
REMARK   20  A    between atoms: C21_30  and  C22_31 
REMARK   21  A    between atoms: C22_31  and  C23_32 
REMARK   22  A    between atoms: C23_32  and  O8_43 
REMARK   23  A    between atoms: C24_33  and  C25_34 
REMARK   24  A    between atoms: C28_38  and  O6_39 
REMARK   25  A    between atoms: C29_42  and  O8_43 
REMARK   26  A    between atoms: C29_42  and  C35_49 
ROOT
ATOM      1  C14 non d ame     -10.266  11.109  64.259  0.00  0.00     0.089 C 
ATOM      2  H20 non d ame     -11.240  10.631  64.376  0.00  0.00     0.087 H 
ENDROOT
BRANCH   1   3
ATOM      3  N4  non d ame      -9.593  11.051  65.548  0.00  0.00    -0.346 N 
ATOM      4  C10 non d ame     -10.395  11.001  66.825  0.00  0.00     0.241 C 
ATOM      5  O4  non d ame     -11.582  11.011  66.789  0.00  0.00    -0.271 OA
ATOM      6  H19 non d ame      -8.583  11.047  65.558  0.00  0.00     0.163 HD
BRANCH   4   7
ATOM      7  C9  non d ame      -9.683  10.937  68.150  0.00  0.00     0.092 C 
ATOM      8  H11 non d ame      -9.615  11.941  68.571  0.00  0.00     0.088 H 
BRANCH   7   9
ATOM      9  N3  non d ame     -10.468  10.128  69.088  0.00  0.00    -0.346 N 
ATOM     10  C7  non d ame     -11.405  10.764  69.979  0.00  0.00     0.240 C 
ATOM     11  O3  non d ame     -11.542  11.926  69.957  0.00  0.00    -0.271 OA
ATOM     12  H10 non d ame     -10.360   9.124  69.120  0.00  0.00     0.163 HD
BRANCH  10  13
ATOM     13  C6  non d ame     -12.235   9.897  70.977  0.00  0.00     0.086 C 
ATOM     14  H6  non d ame     -12.863   9.160  70.476  0.00  0.00     0.086 H 
BRANCH  13  15
ATOM     15  N2  non d ame     -11.321   9.154  71.829  0.00  0.00    -0.343 N 
ATOM     16  C5  non d ame     -11.673   7.798  72.257  0.00  0.00     0.273 C 
ATOM     17  O2  non d ame     -12.696   7.317  71.914  0.00  0.00    -0.266 OA
ATOM     18  H5  non d ame     -10.449   9.575  72.119  0.00  0.00     0.163 HD
BRANCH  16  19
ATOM     19  C4  non d ame     -10.715   7.001  73.156  0.00  0.00     0.154 A 
ATOM     20  C1  non d ame      -9.493   7.462  73.740  0.00  0.00    -0.017 A 
ATOM     21  C2  non d ame      -8.999   6.357  74.469  0.00  0.00     0.077 A 
ATOM     22  H1  non d ame      -9.035   8.447  73.650  0.00  0.00     0.091 H 
ATOM     23  O1  non d ame      -9.847   5.383  74.316  0.00  0.00    -0.218 OA
ATOM     24  N1  non d ame     -10.857   5.734  73.554  0.00  0.00    -0.123 NA
BRANCH  21  25
ATOM     25  C3  non d ame      -7.713   6.317  75.284  0.00  0.00    -0.029 C 
ATOM     26  H2  non d ame      -7.885   6.778  76.257  0.00  0.00     0.036 H 
ATOM     27  H3  non d ame      -7.403   5.282  75.422  0.00  0.00     0.036 H 
ATOM     28  H4  non d ame      -6.931   6.864  74.756  0.00  0.00     0.036 H 
ENDBRANCH  21  25
ENDBRANCH  16  19
ENDBRANCH  13  15
BRANCH  13  29
ATOM     29  C8  non d ame     -13.110  10.792  71.817  0.00  0.00    -0.049 C 
ATOM     30  H7  non d ame     -12.531  11.650  72.159  0.00  0.00     0.030 H 
ATOM     31  H8  non d ame     -13.956  11.137  71.223  0.00  0.00     0.030 H 
ATOM     32  H9  non d ame     -13.476  10.235  72.681  0.00  0.00     0.030 H 
ENDBRANCH  13  29
ENDBRANCH  10  13
ENDBRANCH   7   9
BRANCH   7  33
ATOM     33  C11 non d ame      -8.282  10.288  67.955  0.00  0.00    -0.033 C 
ATOM     34  H12 non d ame      -7.909  10.598  66.980  0.00  0.00     0.042 H 
BRANCH  33  35
ATOM     35  C12 non d ame      -7.267  10.792  69.028  0.00  0.00    -0.071 C 
ATOM     36  H13 non d ame      -7.694  10.658  70.022  0.00  0.00     0.028 H 
ATOM     37  H14 non d ame      -6.343  10.221  68.950  0.00  0.00     0.028 H 
ATOM     38  H15 non d ame      -7.059  11.848  68.862  0.00  0.00     0.028 H 
ENDBRANCH  33  35
BRANCH  33  39
ATOM     39  C13 non d ame      -8.382   8.729  67.960  0.00  0.00    -0.071 C 
ATOM     40  H16 non d ame      -9.390   8.431  68.248  0.00  0.00     0.028 H 
ATOM     41  H17 non d ame      -8.162   8.347  66.962  0.00  0.00     0.028 H 
ATOM     42  H18 non d ame      -7.665   8.320  68.671  0.00  0.00     0.028 H 
ENDBRANCH  33  39
ENDBRANCH   7  33
ENDBRANCH   4   7
ENDBRANCH   1   3
BRANCH   1  43
ATOM     43  C15 non d ame      -9.379  10.385  63.206  0.00  0.00     0.240 C 
ATOM     44  O5  non d ame      -9.136  10.917  62.172  0.00  0.00    -0.271 OA
ATOM     45  N6  non d ame      -8.824   9.031  63.492  0.00  0.00    -0.355 N 
ATOM     46  H46 non d ame      -9.020   8.571  64.368  0.00  0.00     0.162 HD
BRANCH  45  47
ATOM     47  C20 non d ame      -7.982   8.357  62.481  0.00  0.00     0.013 C 
ATOM     48  H30 non d ame      -8.467   8.468  61.511  0.00  0.00     0.072 H 
BRANCH  47  49
ATOM     49  C21 non d ame      -7.857   6.891  62.830  0.00  0.00    -0.038 C 
ATOM     50  H31 non d ame      -8.523   6.367  62.145  0.00  0.00     0.036 H 
ATOM     51  H32 non d ame      -6.788   6.676  62.823  0.00  0.00     0.036 H 
BRANCH  49  52
ATOM     52  C22 non d ame      -8.358   6.570  64.255  0.00  0.00     0.018 C 
ATOM     53  H33 non d ame      -8.163   7.466  64.846  0.00  0.00     0.048 H 
ATOM     54  H34 non d ame      -9.378   6.208  64.136  0.00  0.00     0.048 H 
BRANCH  52  55
ATOM     55  C23 non d ame      -7.574   5.422  64.951  0.00  0.00     0.259 C 
ATOM     56  O7  non d ame      -6.386   5.422  64.959  0.00  0.00    -0.265 OA
BRANCH  55  57
ATOM     57  O8  non d ame      -8.294   4.362  65.568  0.00  0.00    -0.317 OA
BRANCH  57  58
ATOM     58  C29 non d ame      -9.694   4.618  65.715  0.00  0.00     0.052 C 
ATOM     59  H47 non d ame      -9.888   5.530  65.152  0.00  0.00     0.082 H 
ATOM     60  H48 non d ame     -10.194   3.690  65.438  0.00  0.00     0.082 H 
BRANCH  58  61
ATOM     61  C35 non d ame      -9.975   4.897  67.216  0.00  0.00    -0.034 A 
ATOM     62  C30 non d ame      -9.360   4.125  68.196  0.00  0.00    -0.075 A 
ATOM     63  C31 non d ame      -9.612   4.376  69.544  0.00  0.00    -0.082 A 
ATOM     64  H49 non d ame      -8.679   3.323  67.907  0.00  0.00     0.084 H 
ATOM     65  C32 non d ame     -10.486   5.403  69.910  0.00  0.00    -0.083 A 
ATOM     66  H50 non d ame      -9.125   3.771  70.309  0.00  0.00     0.083 H 
ATOM     67  C33 non d ame     -11.101   6.169  68.929  0.00  0.00    -0.082 A 
ATOM     68  H51 non d ame     -10.688   5.606  70.962  0.00  0.00     0.083 H 
ATOM     69  C34 non d ame     -10.850   5.922  67.580  0.00  0.00    -0.075 A 
ATOM     70  H52 non d ame     -11.784   6.967  69.219  0.00  0.00     0.083 H 
ATOM     71  H53 non d ame     -11.336   6.529  66.816  0.00  0.00     0.084 H 
ENDBRANCH  58  61
ENDBRANCH  57  58
ENDBRANCH  55  57
ENDBRANCH  52  55
ENDBRANCH  49  52
ENDBRANCH  47  49
BRANCH  47  72
ATOM     72  C24 non d ame      -6.595   8.995  62.456  0.00  0.00    -0.039 C 
ATOM     73  H35 non d ame      -6.009   8.390  61.763  0.00  0.00     0.036 H 
ATOM     74  H36 non d ame      -6.765  10.051  62.246  0.00  0.00     0.036 H 
BRANCH  72  75
ATOM     75  C25 non d ame      -5.875   8.908  63.885  0.00  0.00    -0.001 C 
ATOM     76  C26 non d ame      -5.704  10.415  64.518  0.00  0.00    -0.035 C 
ATOM     77  C27 non d ame      -4.413  10.587  64.892  0.00  0.00     0.085 C 
ATOM     78  H38 non d ame      -5.846  11.166  63.742  0.00  0.00     0.036 H 
ATOM     79  H39 non d ame      -6.252  10.491  65.457  0.00  0.00     0.036 H 
ATOM     80  N5  non d ame      -3.621   9.460  64.272  0.00  0.00    -0.049 N 
ATOM     81  H40 non d ame      -4.102  11.530  64.440  0.00  0.00     0.075 H 
ATOM     82  H41 non d ame      -4.405  10.473  65.975  0.00  0.00     0.075 H 
ATOM     83  C28 non d ame      -4.706   8.368  63.789  0.00  0.00     0.193 C 
ATOM     84  H42 non d ame      -3.166   9.844  63.457  0.00  0.00     0.280 HD
ATOM     85  H43 non d ame      -3.069   9.056  65.016  0.00  0.00     0.280 HD
ATOM     86  H44 non d ame      -4.863   7.452  64.358  0.00  0.00     0.129 H 
ATOM     87  H37 non d ame      -6.323   8.148  64.526  0.00  0.00     0.046 H 
BRANCH  83  88
ATOM     88  O6  non d ame      -4.418   7.943  62.455  0.00  0.00    -0.369 OA
ATOM     89  H45 non d ame      -4.698   8.621  61.836  0.00  0.00     0.212 HD
ENDBRANCH  83  88
ENDBRANCH  72  75
ENDBRANCH  47  72
ENDBRANCH  45  47
ENDBRANCH   1  43
BRANCH   1  90
ATOM     90  C16 non d ame     -10.450  12.564  63.860  0.00  0.00    -0.035 C 
ATOM     91  H21 non d ame     -10.020  13.144  64.678  0.00  0.00     0.037 H 
ATOM     92  H22 non d ame     -10.031  12.643  62.857  0.00  0.00     0.037 H 
BRANCH  90  93
ATOM     93  C17 non d ame     -11.946  12.999  63.750  0.00  0.00    -0.059 C 
ATOM     94  H23 non d ame     -12.043  13.624  62.862  0.00  0.00     0.038 H 
BRANCH  93  95
ATOM     95  C18 non d ame     -12.905  11.778  63.581  0.00  0.00    -0.073 C 
ATOM     96  H24 non d ame     -13.515  11.916  62.688  0.00  0.00     0.028 H 
ATOM     97  H25 non d ame     -12.317  10.866  63.481  0.00  0.00     0.028 H 
ATOM     98  H26 non d ame     -13.551  11.700  64.455  0.00  0.00     0.028 H 
ENDBRANCH  93  95
BRANCH  93  99
ATOM     99  C19 non d ame     -12.358  13.853  64.953  0.00  0.00    -0.073 C 
ATOM    100  H27 non d ame     -11.997  14.872  64.815  0.00  0.00     0.028 H 
ATOM    101  H28 non d ame     -13.445  13.859  65.037  0.00  0.00     0.028 H 
ATOM    102  H29 non d ame     -11.926  13.433  65.861  0.00  0.00     0.028 H 
ENDBRANCH  93  99
ENDBRANCH  90  93
ENDBRANCH   1  90
TORSDOF 26
ENDMDL
MODEL 19
REMARK VINA RESULT:      -5.7      2.677      7.648
REMARK  26 active torsions:
REMARK  status: ('A' for Active; 'I' for Inactive)
REMARK    1  A    between atoms: C2_2  and  C3_3 
REMARK    2  A    between atoms: C4_6  and  C5_7 
REMARK       I    between atoms: C5_7  and  N2_9 
REMARK    3  A    between atoms: N2_9  and  C6_10 
REMARK    4  A    between atoms: C6_10  and  C7_11 
REMARK    5  A    between atoms: C6_10  and  C8_13 
REMARK       I    between atoms: C7_11  and  N3_14 
REMARK    6  A    between atoms: N3_14  and  C9_15 
REMARK    7  A    between atoms: C9_15  and  C10_16 
REMARK    8  A    between atoms: C9_15  and  C11_18 
REMARK       I    between atoms: C10_16  and  N4_21 
REMARK    9  A    between atoms: C11_18  and  C12_19 
REMARK   10  A    between atoms: C11_18  and  C13_20 
REMARK   11  A    between atoms: N4_21  and  C14_22 
REMARK   12  A    between atoms: C14_22  and  C15_23 
REMARK   13  A    between atoms: C14_22  and  C16_25 
REMARK       I    between atoms: C15_23  and  N6_40 
REMARK   14  A    between atoms: C16_25  and  C17_26 
REMARK   15  A    between atoms: C17_26  and  C18_27 
REMARK   16  A    between atoms: C17_26  and  C19_28 
REMARK   17  A    between atoms: C20_29  and  C21_30 
REMARK   18  A    between atoms: C20_29  and  C24_33 
REMARK   19  A    between atoms: C20_29  and  N6_40 
REMARK   20  A    between atoms: C21_30  and  C22_31 
REMARK   21  A    between atoms: C22_31  and  C23_32 
REMARK   22  A    between atoms: C23_32  and  O8_43 
REMARK   23  A    between atoms: C24_33  and  C25_34 
REMARK   24  A    between atoms: C28_38  and  O6_39 
REMARK   25  A    between atoms: C29_42  and  O8_43 
REMARK   26  A    between atoms: C29_42  and  C35_49 
ROOT
ATOM      1  C14 non d ame      -8.609   8.380  65.325  0.00  0.00     0.089 C 
ATOM      2  H20 non d ame      -8.930   7.343  65.221  0.00  0.00     0.087 H 
ENDROOT
BRANCH   1   3
ATOM      3  N4  non d ame      -9.805   9.199  65.452  0.00  0.00    -0.346 N 
ATOM      4  C10 non d ame      -9.692  10.668  65.776  0.00  0.00     0.241 C 
ATOM      5  O4  non d ame      -8.626  11.167  65.934  0.00  0.00    -0.271 OA
ATOM      6  H19 non d ame     -10.702   8.755  65.317  0.00  0.00     0.163 HD
BRANCH   4   7
ATOM      7  C9  non d ame     -10.940  11.502  65.899  0.00  0.00     0.092 C 
ATOM      8  H11 non d ame     -11.785  10.852  66.127  0.00  0.00     0.088 H 
BRANCH   7   9
ATOM      9  N3  non d ame     -10.796  12.434  67.022  0.00  0.00    -0.346 N 
ATOM     10  C7  non d ame     -11.593  12.258  68.210  0.00  0.00     0.240 C 
ATOM     11  O3  non d ame     -12.355  11.373  68.282  0.00  0.00    -0.271 OA
ATOM     12  H10 non d ame     -10.143  13.204  66.975  0.00  0.00     0.163 HD
BRANCH  10  13
ATOM     13  C6  non d ame     -11.438  13.256  69.401  0.00  0.00     0.086 C 
ATOM     14  H6  non d ame     -10.476  13.164  69.906  0.00  0.00     0.086 H 
BRANCH  13  15
ATOM     15  N2  non d ame     -11.511  14.615  68.889  0.00  0.00    -0.343 N 
ATOM     16  C5  non d ame     -10.312  15.456  68.899  0.00  0.00     0.273 C 
ATOM     17  O2  non d ame      -9.294  15.030  69.324  0.00  0.00    -0.266 OA
ATOM     18  H5  non d ame     -12.386  14.971  68.531  0.00  0.00     0.163 HD
BRANCH  16  19
ATOM     19  C4  non d ame     -10.375  16.893  68.361  0.00  0.00     0.154 A 
ATOM     20  C1  non d ame     -10.379  17.304  66.990  0.00  0.00    -0.017 A 
ATOM     21  C2  non d ame     -10.449  18.714  67.033  0.00  0.00     0.077 A 
ATOM     22  H1  non d ame     -10.338  16.675  66.100  0.00  0.00     0.091 H 
ATOM     23  O1  non d ame     -10.483  19.062  68.286  0.00  0.00    -0.218 OA
ATOM     24  N1  non d ame     -10.441  18.017  69.080  0.00  0.00    -0.123 NA
BRANCH  21  25
ATOM     25  C3  non d ame     -10.480  19.652  65.833  0.00  0.00    -0.029 C 
ATOM     26  H2  non d ame     -11.310  19.380  65.181  0.00  0.00     0.036 H 
ATOM     27  H3  non d ame     -10.610  20.677  66.177  0.00  0.00     0.036 H 
ATOM     28  H4  non d ame      -9.542  19.569  65.282  0.00  0.00     0.036 H 
ENDBRANCH  21  25
ENDBRANCH  16  19
ENDBRANCH  13  15
BRANCH  13  29
ATOM     29  C8  non d ame     -12.538  13.022  70.403  0.00  0.00    -0.049 C 
ATOM     30  H7  non d ame     -12.714  13.937  70.970  0.00  0.00     0.030 H 
ATOM     31  H8  non d ame     -13.451  12.736  69.882  0.00  0.00     0.030 H 
ATOM     32  H9  non d ame     -12.244  12.224  71.086  0.00  0.00     0.030 H 
ENDBRANCH  13  29
ENDBRANCH  10  13
ENDBRANCH   7   9
BRANCH   7  33
ATOM     33  C11 non d ame     -11.157  12.306  64.584  0.00  0.00    -0.033 C 
ATOM     34  H12 non d ame     -12.230  12.379  64.416  0.00  0.00     0.042 H 
BRANCH  33  35
ATOM     35  C12 non d ame     -10.601  13.760  64.709  0.00  0.00    -0.071 C 
ATOM     36  H13 non d ame     -11.378  14.471  64.429  0.00  0.00     0.028 H 
ATOM     37  H14 non d ame     -10.293  13.944  65.737  0.00  0.00     0.028 H 
ATOM     38  H15 non d ame      -9.745  13.878  64.046  0.00  0.00     0.028 H 
ENDBRANCH  33  35
BRANCH  33  39
ATOM     39  C13 non d ame     -10.526  11.563  63.363  0.00  0.00    -0.071 C 
ATOM     40  H16 non d ame      -9.986  10.683  63.713  0.00  0.00     0.028 H 
ATOM     41  H17 non d ame     -11.316  11.255  62.677  0.00  0.00     0.028 H 
ATOM     42  H18 non d ame      -9.837  12.231  62.847  0.00  0.00     0.028 H 
ENDBRANCH  33  39
ENDBRANCH   7  33
ENDBRANCH   4   7
ENDBRANCH   1   3
BRANCH   1  43
ATOM     43  C15 non d ame      -7.725   8.598  66.586  0.00  0.00     0.240 C 
ATOM     44  O5  non d ame      -6.550   8.728  66.469  0.00  0.00    -0.271 OA
ATOM     45  N6  non d ame      -8.346   8.654  67.940  0.00  0.00    -0.355 N 
ATOM     46  H46 non d ame      -9.343   8.549  68.051  0.00  0.00     0.162 HD
BRANCH  45  47
ATOM     47  C20 non d ame      -7.492   8.863  69.129  0.00  0.00     0.013 C 
ATOM     48  H30 non d ame      -6.454   8.721  68.827  0.00  0.00     0.072 H 
BRANCH  47  49
ATOM     49  C21 non d ame      -7.861   7.855  70.194  0.00  0.00    -0.038 C 
ATOM     50  H31 non d ame      -8.547   7.157  69.714  0.00  0.00     0.036 H 
ATOM     51  H32 non d ame      -6.915   7.497  70.601  0.00  0.00     0.036 H 
BRANCH  49  52
ATOM     52  C22 non d ame      -8.634   8.485  71.373  0.00  0.00     0.018 C 
ATOM     53  H33 non d ame      -8.336   7.921  72.257  0.00  0.00     0.048 H 
ATOM     54  H34 non d ame      -8.436   9.555  71.318  0.00  0.00     0.048 H 
BRANCH  52  55
ATOM     55  C23 non d ame     -10.177   8.329  71.266  0.00  0.00     0.259 C 
ATOM     56  O7  non d ame     -10.870   8.532  72.210  0.00  0.00    -0.265 OA
BRANCH  55  57
ATOM     57  O8  non d ame     -10.752   7.925  70.030  0.00  0.00    -0.317 OA
BRANCH  57  58
ATOM     58  C29 non d ame     -11.335   6.618  70.059  0.00  0.00     0.052 C 
ATOM     59  H47 non d ame     -11.045   6.188  71.017  0.00  0.00     0.082 H 
ATOM     60  H48 non d ame     -12.389   6.761  69.823  0.00  0.00     0.082 H 
BRANCH  58  61
ATOM     61  C35 non d ame     -10.687   5.780  68.926  0.00  0.00    -0.034 A 
ATOM     62  C30 non d ame     -10.857   6.154  67.597  0.00  0.00    -0.075 A 
ATOM     63  C31 non d ame     -10.275   5.400  66.579  0.00  0.00    -0.082 A 
ATOM     64  H49 non d ame     -11.446   7.038  67.353  0.00  0.00     0.084 H 
ATOM     65  C32 non d ame      -9.523   4.265  66.894  0.00  0.00    -0.083 A 
ATOM     66  H50 non d ame     -10.408   5.698  65.538  0.00  0.00     0.083 H 
ATOM     67  C33 non d ame      -9.358   3.893  68.222  0.00  0.00    -0.082 A 
ATOM     68  H51 non d ame      -9.063   3.671  66.104  0.00  0.00     0.083 H 
ATOM     69  C34 non d ame      -9.937   4.646  69.242  0.00  0.00    -0.075 A 
ATOM     70  H52 non d ame      -8.772   3.006  68.463  0.00  0.00     0.083 H 
ATOM     71  H53 non d ame      -9.802   4.347  70.282  0.00  0.00     0.084 H 
ENDBRANCH  58  61
ENDBRANCH  57  58
ENDBRANCH  55  57
ENDBRANCH  52  55
ENDBRANCH  49  52
ENDBRANCH  47  49
BRANCH  47  72
ATOM     72  C24 non d ame      -7.698  10.276  69.671  0.00  0.00    -0.039 C 
ATOM     73  H35 non d ame      -8.560  10.670  69.131  0.00  0.00     0.036 H 
ATOM     74  H36 non d ame      -7.738  10.168  70.755  0.00  0.00     0.036 H 
BRANCH  72  75
ATOM     75  C25 non d ame      -6.454  11.228  69.335  0.00  0.00    -0.001 C 
ATOM     76  C26 non d ame      -5.605  11.542  70.708  0.00  0.00    -0.035 C 
ATOM     77  C27 non d ame      -5.437  12.882  70.819  0.00  0.00     0.085 C 
ATOM     78  H38 non d ame      -6.200  11.287  71.583  0.00  0.00     0.036 H 
ATOM     79  H39 non d ame      -4.587  11.165  70.612  0.00  0.00     0.036 H 
ATOM     80  N5  non d ame      -6.373  13.528  69.825  0.00  0.00    -0.049 N 
ATOM     81  H40 non d ame      -5.762  13.134  71.829  0.00  0.00     0.075 H 
ATOM     82  H41 non d ame      -4.409  13.073  70.514  0.00  0.00     0.075 H 
ATOM     83  C28 non d ame      -6.845  12.349  68.829  0.00  0.00     0.193 C 
ATOM     84  H42 non d ame      -7.173  13.845  70.351  0.00  0.00     0.280 HD
ATOM     85  H43 non d ame      -5.819  14.190  69.300  0.00  0.00     0.280 HD
ATOM     86  H44 non d ame      -6.428  12.270  67.826  0.00  0.00     0.129 H 
ATOM     87  H37 non d ame      -5.889  10.878  68.471  0.00  0.00     0.046 H 
BRANCH  83  88
ATOM     88  O6  non d ame      -8.263  12.394  68.650  0.00  0.00    -0.369 OA
ATOM     89  H45 non d ame      -8.546  11.621  68.155  0.00  0.00     0.212 HD
ENDBRANCH  83  88
ENDBRANCH  72  75
ENDBRANCH  47  72
ENDBRANCH  45  47
ENDBRANCH   1  43
BRANCH   1  90
ATOM     90  C16 non d ame      -7.844   8.808  64.083  0.00  0.00    -0.035 C 
ATOM     91  H21 non d ame      -8.572   9.332  63.462  0.00  0.00     0.037 H 
ATOM     92  H22 non d ame      -6.965   9.335  64.453  0.00  0.00     0.037 H 
BRANCH  90  93
ATOM     93  C17 non d ame      -7.315   7.612  63.229  0.00  0.00    -0.059 C 
ATOM     94  H23 non d ame      -7.661   7.758  62.206  0.00  0.00     0.038 H 
BRANCH  93  95
ATOM     95  C18 non d ame      -5.754   7.554  63.199  0.00  0.00    -0.073 C 
ATOM     96  H24 non d ame      -5.431   6.868  62.416  0.00  0.00     0.028 H 
ATOM     97  H25 non d ame      -5.357   8.549  62.998  0.00  0.00     0.028 H 
ATOM     98  H26 non d ame      -5.385   7.204  64.164  0.00  0.00     0.028 H 
ENDBRANCH  93  95
BRANCH  93  99
ATOM     99  C19 non d ame      -7.900   6.286  63.722  0.00  0.00    -0.073 C 
ATOM    100  H27 non d ame      -7.493   6.053  64.707  0.00  0.00     0.028 H 
ATOM    101  H28 non d ame      -8.985   6.371  63.787  0.00  0.00     0.028 H 
ATOM    102  H29 non d ame      -7.640   5.491  63.023  0.00  0.00     0.028 H 
ENDBRANCH  93  99
ENDBRANCH  90  93
ENDBRANCH   1  90
TORSDOF 26
ENDMDL
MODEL 20
REMARK VINA RESULT:      -5.7      2.861      8.562
REMARK  26 active torsions:
REMARK  status: ('A' for Active; 'I' for Inactive)
REMARK    1  A    between atoms: C2_2  and  C3_3 
REMARK    2  A    between atoms: C4_6  and  C5_7 
REMARK       I    between atoms: C5_7  and  N2_9 
REMARK    3  A    between atoms: N2_9  and  C6_10 
REMARK    4  A    between atoms: C6_10  and  C7_11 
REMARK    5  A    between atoms: C6_10  and  C8_13 
REMARK       I    between atoms: C7_11  and  N3_14 
REMARK    6  A    between atoms: N3_14  and  C9_15 
REMARK    7  A    between atoms: C9_15  and  C10_16 
REMARK    8  A    between atoms: C9_15  and  C11_18 
REMARK       I    between atoms: C10_16  and  N4_21 
REMARK    9  A    between atoms: C11_18  and  C12_19 
REMARK   10  A    between atoms: C11_18  and  C13_20 
REMARK   11  A    between atoms: N4_21  and  C14_22 
REMARK   12  A    between atoms: C14_22  and  C15_23 
REMARK   13  A    between atoms: C14_22  and  C16_25 
REMARK       I    between atoms: C15_23  and  N6_40 
REMARK   14  A    between atoms: C16_25  and  C17_26 
REMARK   15  A    between atoms: C17_26  and  C18_27 
REMARK   16  A    between atoms: C17_26  and  C19_28 
REMARK   17  A    between atoms: C20_29  and  C21_30 
REMARK   18  A    between atoms: C20_29  and  C24_33 
REMARK   19  A    between atoms: C20_29  and  N6_40 
REMARK   20  A    between atoms: C21_30  and  C22_31 
REMARK   21  A    between atoms: C22_31  and  C23_32 
REMARK   22  A    between atoms: C23_32  and  O8_43 
REMARK   23  A    between atoms: C24_33  and  C25_34 
REMARK   24  A    between atoms: C28_38  and  O6_39 
REMARK   25  A    between atoms: C29_42  and  O8_43 
REMARK   26  A    between atoms: C29_42  and  C35_49 
ROOT
ATOM      1  C14 non d ame      -8.873  10.343  65.063  0.00  0.00     0.089 C 
ATOM      2  H20 non d ame      -7.816  10.569  65.208  0.00  0.00     0.087 H 
ENDROOT
BRANCH   1   3
ATOM      3  N4  non d ame      -9.147   9.080  65.731  0.00  0.00    -0.346 N 
ATOM      4  C10 non d ame      -8.013   8.175  66.146  0.00  0.00     0.241 C 
ATOM      5  O4  non d ame      -6.888   8.486  65.928  0.00  0.00    -0.271 OA
ATOM      6  H19 non d ame     -10.111   8.832  65.905  0.00  0.00     0.163 HD
BRANCH   4   7
ATOM      7  C9  non d ame      -8.314   6.874  66.841  0.00  0.00     0.092 C 
ATOM      8  H11 non d ame      -7.444   6.221  66.773  0.00  0.00     0.088 H 
BRANCH   7   9
ATOM      9  N3  non d ame      -8.555   7.125  68.266  0.00  0.00    -0.346 N 
ATOM     10  C7  non d ame      -7.537   6.809  69.236  0.00  0.00     0.240 C 
ATOM     11  O3  non d ame      -6.517   6.352  68.890  0.00  0.00    -0.271 OA
ATOM     12  H10 non d ame      -9.431   7.519  68.580  0.00  0.00     0.163 HD
BRANCH  10  13
ATOM     13  C6  non d ame      -7.802   7.076  70.751  0.00  0.00     0.086 C 
ATOM     14  H6  non d ame      -7.329   7.991  71.107  0.00  0.00     0.086 H 
BRANCH  13  15
ATOM     15  N2  non d ame      -9.232   7.239  70.958  0.00  0.00    -0.343 N 
ATOM     16  C5  non d ame      -9.789   8.584  71.118  0.00  0.00     0.273 C 
ATOM     17  O2  non d ame      -9.079   9.527  71.082  0.00  0.00    -0.266 OA
ATOM     18  H5  non d ame      -9.831   6.426  70.990  0.00  0.00     0.163 HD
BRANCH  16  19
ATOM     19  C4  non d ame     -11.299   8.770  71.336  0.00  0.00     0.154 A 
ATOM     20  C1  non d ame     -12.289   7.743  71.457  0.00  0.00    -0.017 A 
ATOM     21  C2  non d ame     -13.506   8.433  71.644  0.00  0.00     0.077 A 
ATOM     22  H1  non d ame     -12.145   6.664  71.415  0.00  0.00     0.091 H 
ATOM     23  O1  non d ame     -13.237   9.706  71.634  0.00  0.00    -0.218 OA
ATOM     24  N1  non d ame     -11.955   9.927  71.456  0.00  0.00    -0.123 NA
BRANCH  21  25
ATOM     25  C3  non d ame     -14.881   7.802  71.828  0.00  0.00    -0.029 C 
ATOM     26  H2  non d ame     -15.613   8.581  72.041  0.00  0.00     0.036 H 
ATOM     27  H3  non d ame     -15.164   7.277  70.916  0.00  0.00     0.036 H 
ATOM     28  H4  non d ame     -14.849   7.097  72.659  0.00  0.00     0.036 H 
ENDBRANCH  21  25
ENDBRANCH  16  19
ENDBRANCH  13  15
BRANCH  13  29
ATOM     29  C8  non d ame      -7.291   5.915  71.565  0.00  0.00    -0.049 C 
ATOM     30  H7  non d ame      -7.306   5.010  70.957  0.00  0.00     0.030 H 
ATOM     31  H8  non d ame      -6.271   6.118  71.890  0.00  0.00     0.030 H 
ATOM     32  H9  non d ame      -7.930   5.775  72.438  0.00  0.00     0.030 H 
ENDBRANCH  13  29
ENDBRANCH  10  13
ENDBRANCH   7   9
BRANCH   7  33
ATOM     33  C11 non d ame      -9.581   6.229  66.208  0.00  0.00    -0.033 C 
ATOM     34  H12 non d ame     -10.034   6.970  65.551  0.00  0.00     0.042 H 
BRANCH  33  35
ATOM     35  C12 non d ame      -9.212   4.990  65.334  0.00  0.00    -0.071 C 
ATOM     36  H13 non d ame      -8.459   4.393  65.849  0.00  0.00     0.028 H 
ATOM     37  H14 non d ame     -10.103   4.385  65.167  0.00  0.00     0.028 H 
ATOM     38  H15 non d ame      -8.816   5.327  64.378  0.00  0.00     0.028 H 
ENDBRANCH  33  35
BRANCH  33  39
ATOM     39  C13 non d ame     -10.626   5.854  67.308  0.00  0.00    -0.071 C 
ATOM     40  H16 non d ame     -10.170   5.174  68.026  0.00  0.00     0.028 H 
ATOM     41  H17 non d ame     -10.954   6.759  67.822  0.00  0.00     0.028 H 
ATOM     42  H18 non d ame     -11.485   5.370  66.843  0.00  0.00     0.028 H 
ENDBRANCH  33  39
ENDBRANCH   7  33
ENDBRANCH   4   7
ENDBRANCH   1   3
BRANCH   1  43
ATOM     43  C15 non d ame      -9.797  11.435  65.673  0.00  0.00     0.240 C 
ATOM     44  O5  non d ame     -10.897  11.152  66.021  0.00  0.00    -0.271 OA
ATOM     45  N6  non d ame      -9.306  12.834  65.831  0.00  0.00    -0.355 N 
ATOM     46  H46 non d ame      -8.371  13.085  65.543  0.00  0.00     0.162 HD
BRANCH  45  47
ATOM     47  C20 non d ame     -10.196  13.861  66.414  0.00  0.00     0.013 C 
ATOM     48  H30 non d ame     -11.207  13.673  66.053  0.00  0.00     0.072 H 
BRANCH  47  49
ATOM     49  C21 non d ame      -9.736  15.232  65.970  0.00  0.00    -0.038 C 
ATOM     50  H31 non d ame      -8.661  15.254  66.147  0.00  0.00     0.036 H 
ATOM     51  H32 non d ame     -10.125  15.360  64.960  0.00  0.00     0.036 H 
BRANCH  49  52
ATOM     52  C22 non d ame     -10.342  16.370  66.819  0.00  0.00     0.018 C 
ATOM     53  H33 non d ame     -11.297  16.613  66.351  0.00  0.00     0.048 H 
ATOM     54  H34 non d ame     -10.315  16.017  67.850  0.00  0.00     0.048 H 
BRANCH  52  55
ATOM     55  C23 non d ame      -9.509  17.682  66.794  0.00  0.00     0.259 C 
ATOM     56  O7  non d ame      -9.504  18.375  65.828  0.00  0.00    -0.265 OA
BRANCH  55  57
ATOM     57  O8  non d ame      -8.739  18.040  67.935  0.00  0.00    -0.317 OA
BRANCH  57  58
ATOM     58  C29 non d ame      -7.364  17.654  67.853  0.00  0.00     0.052 C 
ATOM     59  H47 non d ame      -7.353  16.573  67.985  0.00  0.00     0.082 H 
ATOM     60  H48 non d ame      -6.989  18.094  66.929  0.00  0.00     0.082 H 
BRANCH  58  61
ATOM     61  C35 non d ame      -6.612  18.303  69.046  0.00  0.00    -0.034 A 
ATOM     62  C30 non d ame      -5.906  17.507  69.941  0.00  0.00    -0.075 A 
ATOM     63  C31 non d ame      -5.231  18.091  71.013  0.00  0.00    -0.082 A 
ATOM     64  H49 non d ame      -5.880  16.426  69.803  0.00  0.00     0.084 H 
ATOM     65  C32 non d ame      -5.268  19.476  71.189  0.00  0.00    -0.083 A 
ATOM     66  H50 non d ame      -4.675  17.464  71.710  0.00  0.00     0.083 H 
ATOM     67  C33 non d ame      -5.978  20.267  70.295  0.00  0.00    -0.082 A 
ATOM     68  H51 non d ame      -4.742  19.941  72.023  0.00  0.00     0.083 H 
ATOM     69  C34 non d ame      -6.651  19.688  69.221  0.00  0.00    -0.075 A 
ATOM     70  H52 non d ame      -6.006  21.348  70.437  0.00  0.00     0.083 H 
ATOM     71  H53 non d ame      -7.205  20.316  68.522  0.00  0.00     0.084 H 
ENDBRANCH  58  61
ENDBRANCH  57  58
ENDBRANCH  55  57
ENDBRANCH  52  55
ENDBRANCH  49  52
ENDBRANCH  47  49
BRANCH  47  72
ATOM     72  C24 non d ame     -10.152  13.777  67.938  0.00  0.00    -0.039 C 
ATOM     73  H35 non d ame      -9.542  12.901  68.163  0.00  0.00     0.036 H 
ATOM     74  H36 non d ame      -9.832  14.764  68.275  0.00  0.00     0.036 H 
BRANCH  72  75
ATOM     75  C25 non d ame     -11.605  13.514  68.560  0.00  0.00    -0.001 C 
ATOM     76  C26 non d ame     -12.000  14.731  69.593  0.00  0.00    -0.035 C 
ATOM     77  C27 non d ame     -12.394  14.192  70.772  0.00  0.00     0.085 C 
ATOM     78  H38 non d ame     -11.110  15.301  69.858  0.00  0.00     0.036 H 
ATOM     79  H39 non d ame     -12.892  15.247  69.238  0.00  0.00     0.036 H 
ATOM     80  N5  non d ame     -11.991  12.736  70.747  0.00  0.00    -0.049 N 
ATOM     81  H40 non d ame     -11.813  14.708  71.537  0.00  0.00     0.075 H 
ATOM     82  H41 non d ame     -13.481  14.260  70.774  0.00  0.00     0.075 H 
ATOM     83  C28 non d ame     -11.642  12.398  69.208  0.00  0.00     0.193 C 
ATOM     84  H42 non d ame     -11.146  12.664  71.293  0.00  0.00     0.280 HD
ATOM     85  H43 non d ame     -12.811  12.209  71.014  0.00  0.00     0.280 HD
ATOM     86  H44 non d ame     -12.341  11.833  68.592  0.00  0.00     0.129 H 
ATOM     87  H37 non d ame     -12.338  13.252  67.797  0.00  0.00     0.046 H 
BRANCH  83  88
ATOM     88  O6  non d ame     -10.404  11.688  69.129  0.00  0.00    -0.369 OA
ATOM     89  H45 non d ame     -10.485  10.976  68.490  0.00  0.00     0.212 HD
ENDBRANCH  83  88
ENDBRANCH  72  75
ENDBRANCH  47  72
ENDBRANCH  45  47
ENDBRANCH   1  43
BRANCH   1  90
ATOM     90  C16 non d ame      -9.168  10.193  63.579  0.00  0.00    -0.035 C 
ATOM     91  H21 non d ame      -9.857   9.350  63.506  0.00  0.00     0.037 H 
ATOM     92  H22 non d ame      -9.481  11.183  63.246  0.00  0.00     0.037 H 
BRANCH  90  93
ATOM     93  C17 non d ame      -7.916   9.815  62.726  0.00  0.00    -0.059 C 
ATOM     94  H23 non d ame      -7.030  10.064  63.310  0.00  0.00     0.038 H 
BRANCH  93  95
ATOM     95  C18 non d ame      -7.861   8.287  62.405  0.00  0.00    -0.073 C 
ATOM     96  H24 non d ame      -8.773   7.991  61.888  0.00  0.00     0.028 H 
ATOM     97  H25 non d ame      -7.000   8.080  61.770  0.00  0.00     0.028 H 
ATOM     98  H26 non d ame      -7.770   7.724  63.335  0.00  0.00     0.028 H 
ENDBRANCH  93  95
BRANCH  93  99
ATOM     99  C19 non d ame      -7.859  10.644  61.440  0.00  0.00    -0.073 C 
ATOM    100  H27 non d ame      -7.835   9.975  60.578  0.00  0.00     0.028 H 
ATOM    101  H28 non d ame      -8.741  11.282  61.381  0.00  0.00     0.028 H 
ATOM    102  H29 non d ame      -6.963  11.264  61.446  0.00  0.00     0.028 H 
ENDBRANCH  93  99
ENDBRANCH  90  93
ENDBRANCH   1  90
TORSDOF 26
ENDMDL
