MODEL 1
REMARK VINA RESULT:      -7.0      0.000      0.000
REMARK  26 active torsions:
REMARK  status: ('A' for Active; 'I' for Inactive)
REMARK    1  A    between atoms: C2_2  and  C3_3 
REMARK    2  A    between atoms: C4_6  and  C5_7 
REMARK       I    between atoms: C5_7  and  N2_9 
REMARK    3  A    between atoms: N2_9  and  C6_10 
REMARK    4  A    between atoms: C6_10  and  C7_11 
REMARK    5  A    between atoms: C6_10  and  C8_13 
REMARK       I    between atoms: C7_11  and  N3_14 
REMARK    6  A    between atoms: N3_14  and  C9_15 
REMARK    7  A    between atoms: C9_15  and  C10_16 
REMARK    8  A    between atoms: C9_15  and  C11_18 
REMARK       I    between atoms: C10_16  and  N4_21 
REMARK    9  A    between atoms: C11_18  and  C12_19 
REMARK   10  A    between atoms: C11_18  and  C13_20 
REMARK   11  A    between atoms: N4_21  and  C14_22 
REMARK   12  A    between atoms: C14_22  and  C15_23 
REMARK   13  A    between atoms: C14_22  and  C16_25 
REMARK       I    between atoms: C15_23  and  N6_40 
REMARK   14  A    between atoms: C16_25  and  C17_26 
REMARK   15  A    between atoms: C17_26  and  C18_27 
REMARK   16  A    between atoms: C17_26  and  C19_28 
REMARK   17  A    between atoms: C20_29  and  C21_30 
REMARK   18  A    between atoms: C20_29  and  C24_33 
REMARK   19  A    between atoms: C20_29  and  N6_40 
REMARK   20  A    between atoms: C21_30  and  C22_31 
REMARK   21  A    between atoms: C22_31  and  C23_32 
REMARK   22  A    between atoms: C23_32  and  O8_43 
REMARK   23  A    between atoms: C24_33  and  C25_34 
REMARK   24  A    between atoms: C28_38  and  O6_39 
REMARK   25  A    between atoms: C29_42  and  O8_43 
REMARK   26  A    between atoms: C29_42  and  C35_49 
ROOT
ATOM      1  C14 non d ame     -10.618   9.445  69.512  0.00  0.00     0.089 C 
ATOM      2  H20 non d ame     -11.052   8.578  69.012  0.00  0.00     0.087 H 
ENDROOT
BRANCH   1   3
ATOM      3  N4  non d ame      -9.259   9.602  69.015  0.00  0.00    -0.346 N 
ATOM      4  C10 non d ame      -8.455   8.396  68.598  0.00  0.00     0.241 C 
ATOM      5  O4  non d ame      -8.924   7.307  68.674  0.00  0.00    -0.271 OA
ATOM      6  H19 non d ame      -8.878  10.536  68.961  0.00  0.00     0.163 HD
BRANCH   4   7
ATOM      7  C9  non d ame      -7.053   8.577  68.082  0.00  0.00     0.092 C 
ATOM      8  H11 non d ame      -6.641   7.605  67.811  0.00  0.00     0.088 H 
BRANCH   7   9
ATOM      9  N3  non d ame      -7.082   9.389  66.861  0.00  0.00    -0.346 N 
ATOM     10  C7  non d ame      -6.853   8.771  65.579  0.00  0.00     0.240 C 
ATOM     11  O3  non d ame      -6.642   7.622  65.509  0.00  0.00    -0.271 OA
ATOM     12  H10 non d ame      -7.263  10.382  66.905  0.00  0.00     0.163 HD
BRANCH  10  13
ATOM     13  C6  non d ame      -6.883   9.642  64.283  0.00  0.00     0.086 C 
ATOM     14  H6  non d ame      -7.060   9.053  63.383  0.00  0.00     0.086 H 
BRANCH  13  15
ATOM     15  N2  non d ame      -7.978  10.593  64.380  0.00  0.00    -0.343 N 
ATOM     16  C5  non d ame      -9.170  10.409  63.550  0.00  0.00     0.273 C 
ATOM     17  O2  non d ame      -9.237   9.494  62.806  0.00  0.00    -0.266 OA
ATOM     18  H5  non d ame      -7.910  11.374  65.018  0.00  0.00     0.163 HD
BRANCH  16  19
ATOM     19  C4  non d ame     -10.335  11.407  63.644  0.00  0.00     0.154 A 
ATOM     20  C1  non d ame     -10.327  12.689  64.280  0.00  0.00    -0.017 A 
ATOM     21  C2  non d ame     -11.629  13.199  64.085  0.00  0.00     0.077 A 
ATOM     22  H1  non d ame      -9.502  13.174  64.802  0.00  0.00     0.091 H 
ATOM     23  O1  non d ame     -12.298  12.309  63.412  0.00  0.00    -0.218 OA
ATOM     24  N1  non d ame     -11.564  11.254  63.144  0.00  0.00    -0.123 NA
BRANCH  21  25
ATOM     25  C3  non d ame     -12.151  14.545  64.570  0.00  0.00    -0.029 C 
ATOM     26  H2  non d ame     -11.431  15.325  64.323  0.00  0.00     0.036 H 
ATOM     27  H3  non d ame     -13.102  14.763  64.085  0.00  0.00     0.036 H 
ATOM     28  H4  non d ame     -12.295  14.512  65.651  0.00  0.00     0.036 H 
ENDBRANCH  21  25
ENDBRANCH  16  19
ENDBRANCH  13  15
BRANCH  13  29
ATOM     29  C8  non d ame      -5.574  10.375  64.136  0.00  0.00    -0.049 C 
ATOM     30  H7  non d ame      -4.765   9.755  64.526  0.00  0.00     0.030 H 
ATOM     31  H8  non d ame      -5.392  10.589  63.084  0.00  0.00     0.030 H 
ATOM     32  H9  non d ame      -5.616  11.309  64.696  0.00  0.00     0.030 H 
ENDBRANCH  13  29
ENDBRANCH  10  13
ENDBRANCH   7   9
BRANCH   7  33
ATOM     33  C11 non d ame      -6.192   9.298  69.160  0.00  0.00    -0.033 C 
ATOM     34  H12 non d ame      -6.681  10.242  69.394  0.00  0.00     0.042 H 
BRANCH  33  35
ATOM     35  C12 non d ame      -6.120   8.466  70.479  0.00  0.00    -0.071 C 
ATOM     36  H13 non d ame      -5.282   7.771  70.425  0.00  0.00     0.028 H 
ATOM     37  H14 non d ame      -5.982   9.138  71.325  0.00  0.00     0.028 H 
ATOM     38  H15 non d ame      -7.047   7.907  70.605  0.00  0.00     0.028 H 
ENDBRANCH  33  35
BRANCH  33  39
ATOM     39  C13 non d ame      -4.763   9.616  68.614  0.00  0.00    -0.071 C 
ATOM     40  H16 non d ame      -4.034   8.978  69.112  0.00  0.00     0.028 H 
ATOM     41  H17 non d ame      -4.735   9.430  67.540  0.00  0.00     0.028 H 
ATOM     42  H18 non d ame      -4.524  10.662  68.808  0.00  0.00     0.028 H 
ENDBRANCH  33  39
ENDBRANCH   7  33
ENDBRANCH   4   7
ENDBRANCH   1   3
BRANCH   1  43
ATOM     43  C15 non d ame     -11.408  10.751  69.214  0.00  0.00     0.240 C 
ATOM     44  O5  non d ame     -11.971  10.878  68.176  0.00  0.00    -0.271 OA
ATOM     45  N6  non d ame     -11.469  11.842  70.230  0.00  0.00    -0.355 N 
ATOM     46  H46 non d ame     -10.998  11.743  71.117  0.00  0.00     0.162 HD
BRANCH  45  47
ATOM     47  C20 non d ame     -12.225  13.077  69.932  0.00  0.00     0.013 C 
ATOM     48  H30 non d ame     -12.884  12.873  69.088  0.00  0.00     0.072 H 
BRANCH  47  49
ATOM     49  C21 non d ame     -11.257  14.182  69.575  0.00  0.00    -0.038 C 
ATOM     50  H31 non d ame     -11.686  15.095  69.988  0.00  0.00     0.036 H 
ATOM     51  H32 non d ame     -10.279  13.837  69.912  0.00  0.00     0.036 H 
BRANCH  49  52
ATOM     52  C22 non d ame     -11.139  14.406  68.051  0.00  0.00     0.018 C 
ATOM     53  H33 non d ame     -11.491  13.483  67.589  0.00  0.00     0.048 H 
ATOM     54  H34 non d ame     -11.652  15.346  67.850  0.00  0.00     0.048 H 
BRANCH  52  55
ATOM     55  C23 non d ame      -9.678  14.600  67.558  0.00  0.00     0.259 C 
ATOM     56  O7  non d ame      -8.772  14.102  68.144  0.00  0.00    -0.265 OA
BRANCH  55  57
ATOM     57  O8  non d ame      -9.433  15.393  66.403  0.00  0.00    -0.317 OA
BRANCH  57  58
ATOM     58  C29 non d ame      -8.306  16.266  66.525  0.00  0.00     0.052 C 
ATOM     59  H47 non d ame      -7.759  15.921  67.402  0.00  0.00     0.082 H 
ATOM     60  H48 non d ame      -7.824  16.264  65.548  0.00  0.00     0.082 H 
BRANCH  58  61
ATOM     61  C35 non d ame      -8.837  17.697  66.808  0.00  0.00    -0.034 A 
ATOM     62  C30 non d ame     -10.179  17.996  66.598  0.00  0.00    -0.075 A 
ATOM     63  C31 non d ame     -10.656  19.281  66.852  0.00  0.00    -0.082 A 
ATOM     64  H49 non d ame     -10.858  17.223  66.235  0.00  0.00     0.084 H 
ATOM     65  C32 non d ame      -9.784  20.270  67.313  0.00  0.00    -0.083 A 
ATOM     66  H50 non d ame     -11.709  19.511  66.689  0.00  0.00     0.083 H 
ATOM     67  C33 non d ame      -8.444  19.968  67.518  0.00  0.00    -0.082 A 
ATOM     68  H51 non d ame     -10.149  21.278  67.515  0.00  0.00     0.083 H 
ATOM     69  C34 non d ame      -7.964  18.684  67.268  0.00  0.00    -0.075 A 
ATOM     70  H52 non d ame      -7.766  20.744  67.877  0.00  0.00     0.083 H 
ATOM     71  H53 non d ame      -6.911  18.455  67.432  0.00  0.00     0.084 H 
ENDBRANCH  58  61
ENDBRANCH  57  58
ENDBRANCH  55  57
ENDBRANCH  52  55
ENDBRANCH  49  52
ENDBRANCH  47  49
BRANCH  47  72
ATOM     72  C24 non d ame     -13.041  13.490  71.155  0.00  0.00    -0.039 C 
ATOM     73  H35 non d ame     -14.084  13.399  70.851  0.00  0.00     0.036 H 
ATOM     74  H36 non d ame     -12.659  12.884  71.977  0.00  0.00     0.036 H 
BRANCH  72  75
ATOM     75  C25 non d ame     -12.794  15.024  71.544  0.00  0.00    -0.001 C 
ATOM     76  C26 non d ame     -12.001  15.115  72.982  0.00  0.00    -0.035 C 
ATOM     77  C27 non d ame     -12.675  15.960  73.799  0.00  0.00     0.085 C 
ATOM     78  H38 non d ame     -12.057  14.160  73.502  0.00  0.00     0.036 H 
ATOM     79  H39 non d ame     -11.038  15.606  72.848  0.00  0.00     0.036 H 
ATOM     80  N5  non d ame     -14.027  16.197  73.169  0.00  0.00    -0.049 N 
ATOM     81  H40 non d ame     -12.810  15.416  74.734  0.00  0.00     0.075 H 
ATOM     82  H41 non d ame     -12.110  16.891  73.786  0.00  0.00     0.075 H 
ATOM     83  C28 non d ame     -13.909  15.667  71.649  0.00  0.00     0.193 C 
ATOM     84  H42 non d ame     -14.681  15.610  73.665  0.00  0.00     0.280 HD
ATOM     85  H43 non d ame     -14.162  17.198  73.149  0.00  0.00     0.280 HD
ATOM     86  H44 non d ame     -13.811  16.370  70.822  0.00  0.00     0.129 H 
ATOM     87  H37 non d ame     -12.383  15.599  70.714  0.00  0.00     0.046 H 
BRANCH  83  88
ATOM     88  O6  non d ame     -15.034  14.849  71.323  0.00  0.00    -0.369 OA
ATOM     89  H45 non d ame     -15.814  15.187  71.768  0.00  0.00     0.212 HD
ENDBRANCH  83  88
ENDBRANCH  72  75
ENDBRANCH  47  72
ENDBRANCH  45  47
ENDBRANCH   1  43
BRANCH   1  90
ATOM     90  C16 non d ame     -10.573   9.205  71.012  0.00  0.00    -0.035 C 
ATOM     91  H21 non d ame      -9.610   8.726  71.199  0.00  0.00     0.037 H 
ATOM     92  H22 non d ame     -10.798  10.169  71.466  0.00  0.00     0.037 H 
BRANCH  90  93
ATOM     93  C17 non d ame     -11.665   8.211  71.521  0.00  0.00    -0.059 C 
ATOM     94  H23 non d ame     -12.013   7.635  70.664  0.00  0.00     0.038 H 
BRANCH  93  95
ATOM     95  C18 non d ame     -11.101   7.204  72.575  0.00  0.00    -0.073 C 
ATOM     96  H24 non d ame     -11.813   7.099  73.393  0.00  0.00     0.028 H 
ATOM     97  H25 non d ame     -10.944   6.235  72.102  0.00  0.00     0.028 H 
ATOM     98  H26 non d ame     -10.153   7.578  72.962  0.00  0.00     0.028 H 
ENDBRANCH  93  95
BRANCH  93  99
ATOM     99  C19 non d ame     -12.874   8.966  72.082  0.00  0.00    -0.073 C 
ATOM    100  H27 non d ame     -13.781   8.613  71.591  0.00  0.00     0.028 H 
ATOM    101  H28 non d ame     -12.947   8.787  73.155  0.00  0.00     0.028 H 
ATOM    102  H29 non d ame     -12.752  10.034  71.900  0.00  0.00     0.028 H 
ENDBRANCH  93  99
ENDBRANCH  90  93
ENDBRANCH   1  90
TORSDOF 26
ENDMDL
MODEL 2
REMARK VINA RESULT:      -6.9      2.589      7.865
REMARK  26 active torsions:
REMARK  status: ('A' for Active; 'I' for Inactive)
REMARK    1  A    between atoms: C2_2  and  C3_3 
REMARK    2  A    between atoms: C4_6  and  C5_7 
REMARK       I    between atoms: C5_7  and  N2_9 
REMARK    3  A    between atoms: N2_9  and  C6_10 
REMARK    4  A    between atoms: C6_10  and  C7_11 
REMARK    5  A    between atoms: C6_10  and  C8_13 
REMARK       I    between atoms: C7_11  and  N3_14 
REMARK    6  A    between atoms: N3_14  and  C9_15 
REMARK    7  A    between atoms: C9_15  and  C10_16 
REMARK    8  A    between atoms: C9_15  and  C11_18 
REMARK       I    between atoms: C10_16  and  N4_21 
REMARK    9  A    between atoms: C11_18  and  C12_19 
REMARK   10  A    between atoms: C11_18  and  C13_20 
REMARK   11  A    between atoms: N4_21  and  C14_22 
REMARK   12  A    between atoms: C14_22  and  C15_23 
REMARK   13  A    between atoms: C14_22  and  C16_25 
REMARK       I    between atoms: C15_23  and  N6_40 
REMARK   14  A    between atoms: C16_25  and  C17_26 
REMARK   15  A    between atoms: C17_26  and  C18_27 
REMARK   16  A    between atoms: C17_26  and  C19_28 
REMARK   17  A    between atoms: C20_29  and  C21_30 
REMARK   18  A    between atoms: C20_29  and  C24_33 
REMARK   19  A    between atoms: C20_29  and  N6_40 
REMARK   20  A    between atoms: C21_30  and  C22_31 
REMARK   21  A    between atoms: C22_31  and  C23_32 
REMARK   22  A    between atoms: C23_32  and  O8_43 
REMARK   23  A    between atoms: C24_33  and  C25_34 
REMARK   24  A    between atoms: C28_38  and  O6_39 
REMARK   25  A    between atoms: C29_42  and  O8_43 
REMARK   26  A    between atoms: C29_42  and  C35_49 
ROOT
ATOM      1  C14 non d ame      -9.685  10.304  69.160  0.00  0.00     0.089 C 
ATOM      2  H20 non d ame      -9.044  10.052  70.006  0.00  0.00     0.087 H 
ENDROOT
BRANCH   1   3
ATOM      3  N4  non d ame      -9.403  11.684  68.792  0.00  0.00    -0.346 N 
ATOM      4  C10 non d ame      -7.991  12.116  68.484  0.00  0.00     0.241 C 
ATOM      5  O4  non d ame      -7.098  11.336  68.541  0.00  0.00    -0.271 OA
ATOM      6  H19 non d ame     -10.175  12.333  68.752  0.00  0.00     0.163 HD
BRANCH   4   7
ATOM      7  C9  non d ame      -7.717  13.547  68.100  0.00  0.00     0.092 C 
ATOM      8  H11 non d ame      -7.495  13.596  67.034  0.00  0.00     0.088 H 
BRANCH   7   9
ATOM      9  N3  non d ame      -8.921  14.353  68.329  0.00  0.00    -0.346 N 
ATOM     10  C7  non d ame      -9.318  15.345  67.361  0.00  0.00     0.240 C 
ATOM     11  O3  non d ame      -8.681  15.510  66.393  0.00  0.00    -0.271 OA
ATOM     12  H10 non d ame      -9.480  14.223  69.160  0.00  0.00     0.163 HD
BRANCH  10  13
ATOM     13  C6  non d ame     -10.598  16.202  67.612  0.00  0.00     0.086 C 
ATOM     14  H6  non d ame     -11.455  15.860  67.032  0.00  0.00     0.086 H 
BRANCH  13  15
ATOM     15  N2  non d ame     -10.972  16.091  69.012  0.00  0.00    -0.343 N 
ATOM     16  C5  non d ame     -11.832  14.987  69.445  0.00  0.00     0.273 C 
ATOM     17  O2  non d ame     -12.219  14.195  68.657  0.00  0.00    -0.266 OA
ATOM     18  H5  non d ame     -10.639  16.774  69.678  0.00  0.00     0.163 HD
BRANCH  16  19
ATOM     19  C4  non d ame     -12.234  14.857  70.922  0.00  0.00     0.154 A 
ATOM     20  C1  non d ame     -11.921  15.761  71.986  0.00  0.00    -0.017 A 
ATOM     21  C2  non d ame     -12.517  15.193  73.133  0.00  0.00     0.077 A 
ATOM     22  H1  non d ame     -11.349  16.688  71.934  0.00  0.00     0.091 H 
ATOM     23  O1  non d ame     -13.103  14.093  72.760  0.00  0.00    -0.218 OA
ATOM     24  N1  non d ame     -12.952  13.876  71.474  0.00  0.00    -0.123 NA
BRANCH  21  25
ATOM     25  C3  non d ame     -12.482  15.764  74.545  0.00  0.00    -0.029 C 
ATOM     26  H2  non d ame     -12.813  15.005  75.253  0.00  0.00     0.036 H 
ATOM     27  H3  non d ame     -11.464  16.069  74.788  0.00  0.00     0.036 H 
ATOM     28  H4  non d ame     -13.144  16.629  74.604  0.00  0.00     0.036 H 
ENDBRANCH  21  25
ENDBRANCH  16  19
ENDBRANCH  13  15
BRANCH  13  29
ATOM     29  C8  non d ame     -10.318  17.642  67.265  0.00  0.00    -0.049 C 
ATOM     30  H7  non d ame     -10.928  17.935  66.409  0.00  0.00     0.030 H 
ATOM     31  H8  non d ame     -10.560  18.276  68.117  0.00  0.00     0.030 H 
ATOM     32  H9  non d ame      -9.263  17.757  67.014  0.00  0.00     0.030 H 
ENDBRANCH  13  29
ENDBRANCH  10  13
ENDBRANCH   7   9
BRANCH   7  33
ATOM     33  C11 non d ame      -6.551  14.102  68.968  0.00  0.00    -0.033 C 
ATOM     34  H12 non d ame      -6.307  13.347  69.714  0.00  0.00     0.042 H 
BRANCH  33  35
ATOM     35  C12 non d ame      -5.270  14.345  68.110  0.00  0.00    -0.071 C 
ATOM     36  H13 non d ame      -4.496  13.635  68.402  0.00  0.00     0.028 H 
ATOM     37  H14 non d ame      -5.508  14.210  67.056  0.00  0.00     0.028 H 
ATOM     38  H15 non d ame      -4.911  15.360  68.275  0.00  0.00     0.028 H 
ENDBRANCH  33  35
BRANCH  33  39
ATOM     39  C13 non d ame      -6.983  15.403  69.719  0.00  0.00    -0.071 C 
ATOM     40  H16 non d ame      -6.882  16.258  69.052  0.00  0.00     0.028 H 
ATOM     41  H17 non d ame      -8.022  15.310  70.037  0.00  0.00     0.028 H 
ATOM     42  H18 non d ame      -6.348  15.545  70.593  0.00  0.00     0.028 H 
ENDBRANCH  33  39
ENDBRANCH   7  33
ENDBRANCH   4   7
ENDBRANCH   1   3
BRANCH   1  43
ATOM     43  C15 non d ame      -9.411   9.398  67.926  0.00  0.00     0.240 C 
ATOM     44  O5  non d ame     -10.221   9.317  67.060  0.00  0.00    -0.271 OA
ATOM     45  N6  non d ame      -8.132   8.638  67.819  0.00  0.00    -0.355 N 
ATOM     46  H46 non d ame      -7.435   8.703  68.546  0.00  0.00     0.162 HD
BRANCH  45  47
ATOM     47  C20 non d ame      -7.886   7.781  66.639  0.00  0.00     0.013 C 
ATOM     48  H30 non d ame      -7.284   6.932  66.960  0.00  0.00     0.072 H 
BRANCH  47  49
ATOM     49  C21 non d ame      -7.140   8.575  65.591  0.00  0.00    -0.038 C 
ATOM     50  H31 non d ame      -7.584   9.570  65.604  0.00  0.00     0.036 H 
ATOM     51  H32 non d ame      -6.082   8.447  65.822  0.00  0.00     0.036 H 
BRANCH  49  52
ATOM     52  C22 non d ame      -7.345   8.024  64.163  0.00  0.00     0.018 C 
ATOM     53  H33 non d ame      -6.345   7.840  63.770  0.00  0.00     0.048 H 
ATOM     54  H34 non d ame      -8.051   7.199  64.263  0.00  0.00     0.048 H 
BRANCH  52  55
ATOM     55  C23 non d ame      -8.007   9.038  63.189  0.00  0.00     0.259 C 
ATOM     56  O7  non d ame      -8.233   8.733  62.063  0.00  0.00    -0.265 OA
BRANCH  55  57
ATOM     57  O8  non d ame      -8.328  10.343  63.654  0.00  0.00    -0.317 OA
BRANCH  57  58
ATOM     58  C29 non d ame      -9.257  11.045  62.822  0.00  0.00     0.052 C 
ATOM     59  H47 non d ame      -8.692  11.861  62.372  0.00  0.00     0.082 H 
ATOM     60  H48 non d ame      -9.717  10.286  62.189  0.00  0.00     0.082 H 
BRANCH  58  61
ATOM     61  C35 non d ame     -10.355  11.651  63.736  0.00  0.00    -0.034 A 
ATOM     62  C30 non d ame     -10.051  12.014  65.045  0.00  0.00    -0.075 A 
ATOM     63  C31 non d ame     -11.037  12.559  65.866  0.00  0.00    -0.082 A 
ATOM     64  H49 non d ame      -9.039  11.872  65.426  0.00  0.00     0.084 H 
ATOM     65  C32 non d ame     -12.333  12.737  65.375  0.00  0.00    -0.083 A 
ATOM     66  H50 non d ame     -10.794  12.845  66.889  0.00  0.00     0.083 H 
ATOM     67  C33 non d ame     -12.633  12.370  64.070  0.00  0.00    -0.082 A 
ATOM     68  H51 non d ame     -13.110  13.163  66.010  0.00  0.00     0.083 H 
ATOM     69  C34 non d ame     -11.649  11.828  63.245  0.00  0.00    -0.075 A 
ATOM     70  H52 non d ame     -13.646  12.509  63.691  0.00  0.00     0.083 H 
ATOM     71  H53 non d ame     -11.893  11.543  62.221  0.00  0.00     0.084 H 
ENDBRANCH  58  61
ENDBRANCH  57  58
ENDBRANCH  55  57
ENDBRANCH  52  55
ENDBRANCH  49  52
ENDBRANCH  47  49
BRANCH  47  72
ATOM     72  C24 non d ame      -9.217   7.301  66.064  0.00  0.00    -0.039 C 
ATOM     73  H35 non d ame      -9.985   7.822  66.636  0.00  0.00     0.036 H 
ATOM     74  H36 non d ame      -9.141   7.456  64.987  0.00  0.00     0.036 H 
BRANCH  72  75
ATOM     75  C25 non d ame      -9.435   5.732  66.301  0.00  0.00    -0.001 C 
ATOM     76  C26 non d ame      -9.049   4.901  64.935  0.00  0.00    -0.035 C 
ATOM     77  C27 non d ame     -10.075   4.074  64.623  0.00  0.00     0.085 C 
ATOM     78  H38 non d ame      -9.001   5.580  64.085  0.00  0.00     0.036 H 
ATOM     79  H39 non d ame      -8.223   4.218  65.134  0.00  0.00     0.036 H 
ATOM     80  N5  non d ame     -11.257   4.502  65.461  0.00  0.00    -0.049 N 
ATOM     81  H40 non d ame     -10.296   4.267  63.573  0.00  0.00     0.075 H 
ATOM     82  H41 non d ame      -9.757   3.082  64.940  0.00  0.00     0.075 H 
ATOM     83  C28 non d ame     -10.661   5.470  66.607  0.00  0.00     0.193 C 
ATOM     84  H42 non d ame     -11.853   5.048  64.856  0.00  0.00     0.280 HD
ATOM     85  H43 non d ame     -11.614   3.666  65.900  0.00  0.00     0.280 HD
ATOM     86  H44 non d ame     -10.538   5.109  67.628  0.00  0.00     0.129 H 
ATOM     87  H37 non d ame      -8.985   5.390  67.233  0.00  0.00     0.046 H 
BRANCH  83  88
ATOM     88  O6  non d ame     -11.454   6.654  66.714  0.00  0.00    -0.369 OA
ATOM     89  H45 non d ame     -11.999   6.746  65.929  0.00  0.00     0.212 HD
ENDBRANCH  83  88
ENDBRANCH  72  75
ENDBRANCH  47  72
ENDBRANCH  45  47
ENDBRANCH   1  43
BRANCH   1  90
ATOM     90  C16 non d ame     -11.145  10.188  69.566  0.00  0.00    -0.035 C 
ATOM     91  H21 non d ame     -11.539  11.204  69.518  0.00  0.00     0.037 H 
ATOM     92  H22 non d ame     -11.562   9.411  68.925  0.00  0.00     0.037 H 
BRANCH  90  93
ATOM     93  C17 non d ame     -11.350   9.704  71.037  0.00  0.00    -0.059 C 
ATOM     94  H23 non d ame     -10.576  10.168  71.648  0.00  0.00     0.038 H 
BRANCH  93  95
ATOM     95  C18 non d ame     -12.736  10.138  71.612  0.00  0.00    -0.073 C 
ATOM     96  H24 non d ame     -12.584  10.771  72.487  0.00  0.00     0.028 H 
ATOM     97  H25 non d ame     -13.286  10.693  70.853  0.00  0.00     0.028 H 
ATOM     98  H26 non d ame     -13.304   9.252  71.898  0.00  0.00     0.028 H 
ENDBRANCH  93  95
BRANCH  93  99
ATOM     99  C19 non d ame     -11.166   8.188  71.145  0.00  0.00    -0.073 C 
ATOM    100  H27 non d ame     -11.648   7.827  72.055  0.00  0.00     0.028 H 
ATOM    101  H28 non d ame     -11.617   7.705  70.278  0.00  0.00     0.028 H 
ATOM    102  H29 non d ame     -10.102   7.952  71.178  0.00  0.00     0.028 H 
ENDBRANCH  93  99
ENDBRANCH  90  93
ENDBRANCH   1  90
TORSDOF 26
ENDMDL
MODEL 3
REMARK VINA RESULT:      -6.8      2.695      8.660
REMARK  26 active torsions:
REMARK  status: ('A' for Active; 'I' for Inactive)
REMARK    1  A    between atoms: C2_2  and  C3_3 
REMARK    2  A    between atoms: C4_6  and  C5_7 
REMARK       I    between atoms: C5_7  and  N2_9 
REMARK    3  A    between atoms: N2_9  and  C6_10 
REMARK    4  A    between atoms: C6_10  and  C7_11 
REMARK    5  A    between atoms: C6_10  and  C8_13 
REMARK       I    between atoms: C7_11  and  N3_14 
REMARK    6  A    between atoms: N3_14  and  C9_15 
REMARK    7  A    between atoms: C9_15  and  C10_16 
REMARK    8  A    between atoms: C9_15  and  C11_18 
REMARK       I    between atoms: C10_16  and  N4_21 
REMARK    9  A    between atoms: C11_18  and  C12_19 
REMARK   10  A    between atoms: C11_18  and  C13_20 
REMARK   11  A    between atoms: N4_21  and  C14_22 
REMARK   12  A    between atoms: C14_22  and  C15_23 
REMARK   13  A    between atoms: C14_22  and  C16_25 
REMARK       I    between atoms: C15_23  and  N6_40 
REMARK   14  A    between atoms: C16_25  and  C17_26 
REMARK   15  A    between atoms: C17_26  and  C18_27 
REMARK   16  A    between atoms: C17_26  and  C19_28 
REMARK   17  A    between atoms: C20_29  and  C21_30 
REMARK   18  A    between atoms: C20_29  and  C24_33 
REMARK   19  A    between atoms: C20_29  and  N6_40 
REMARK   20  A    between atoms: C21_30  and  C22_31 
REMARK   21  A    between atoms: C22_31  and  C23_32 
REMARK   22  A    between atoms: C23_32  and  O8_43 
REMARK   23  A    between atoms: C24_33  and  C25_34 
REMARK   24  A    between atoms: C28_38  and  O6_39 
REMARK   25  A    between atoms: C29_42  and  O8_43 
REMARK   26  A    between atoms: C29_42  and  C35_49 
ROOT
ATOM      1  C14 non d ame     -11.715  10.219  70.881  0.00  0.00     0.089 C 
ATOM      2  H20 non d ame     -11.356  10.020  71.892  0.00  0.00     0.087 H 
ENDROOT
BRANCH   1   3
ATOM      3  N4  non d ame     -11.734  11.663  70.701  0.00  0.00    -0.346 N 
ATOM      4  C10 non d ame     -12.627  12.527  71.557  0.00  0.00     0.241 C 
ATOM      5  O4  non d ame     -13.323  12.035  72.384  0.00  0.00    -0.271 OA
ATOM      6  H19 non d ame     -11.137  12.062  69.990  0.00  0.00     0.163 HD
BRANCH   4   7
ATOM      7  C9  non d ame     -12.631  14.020  71.361  0.00  0.00     0.092 C 
ATOM      8  H11 non d ame     -11.662  14.423  71.655  0.00  0.00     0.088 H 
BRANCH   7   9
ATOM      9  N3  non d ame     -12.811  14.325  69.938  0.00  0.00    -0.346 N 
ATOM     10  C7  non d ame     -11.660  14.509  69.089  0.00  0.00     0.240 C 
ATOM     11  O3  non d ame     -10.581  14.416  69.533  0.00  0.00    -0.271 OA
ATOM     12  H10 non d ame     -13.736  14.409  69.540  0.00  0.00     0.163 HD
BRANCH  10  13
ATOM     13  C6  non d ame     -11.859  14.837  67.576  0.00  0.00     0.086 C 
ATOM     14  H6  non d ame     -12.643  15.574  67.403  0.00  0.00     0.086 H 
BRANCH  13  15
ATOM     15  N2  non d ame     -10.629  15.408  67.052  0.00  0.00    -0.343 N 
ATOM     16  C5  non d ame     -10.380  16.844  67.198  0.00  0.00     0.273 C 
ATOM     17  O2  non d ame     -11.177  17.531  67.736  0.00  0.00    -0.266 OA
ATOM     18  H5  non d ame      -9.955  14.813  66.591  0.00  0.00     0.163 HD
BRANCH  16  19
ATOM     19  C4  non d ame      -9.084  17.460  66.650  0.00  0.00     0.154 A 
ATOM     20  C1  non d ame      -7.774  16.884  66.675  0.00  0.00    -0.017 A 
ATOM     21  C2  non d ame      -6.944  17.841  66.051  0.00  0.00     0.077 A 
ATOM     22  H1  non d ame      -7.473  15.919  67.083  0.00  0.00     0.091 H 
ATOM     23  O1  non d ame      -7.698  18.844  65.709  0.00  0.00    -0.218 OA
ATOM     24  N1  non d ame      -8.951  18.645  66.048  0.00  0.00    -0.123 NA
BRANCH  21  25
ATOM     25  C3  non d ame      -5.444  17.719  65.820  0.00  0.00    -0.029 C 
ATOM     26  H2  non d ame      -5.072  16.818  66.309  0.00  0.00     0.036 H 
ATOM     27  H3  non d ame      -5.244  17.660  64.750  0.00  0.00     0.036 H 
ATOM     28  H4  non d ame      -4.939  18.592  66.235  0.00  0.00     0.036 H 
ENDBRANCH  21  25
ENDBRANCH  16  19
ENDBRANCH  13  15
BRANCH  13  29
ATOM     29  C8  non d ame     -12.203  13.575  66.826  0.00  0.00    -0.049 C 
ATOM     30  H7  non d ame     -11.335  13.244  66.255  0.00  0.00     0.030 H 
ATOM     31  H8  non d ame     -12.490  12.798  67.533  0.00  0.00     0.030 H 
ATOM     32  H9  non d ame     -13.031  13.771  66.145  0.00  0.00     0.030 H 
ENDBRANCH  13  29
ENDBRANCH  10  13
ENDBRANCH   7   9
BRANCH   7  33
ATOM     33  C11 non d ame     -13.799  14.647  72.175  0.00  0.00    -0.033 C 
ATOM     34  H12 non d ame     -14.182  13.879  72.845  0.00  0.00     0.042 H 
BRANCH  33  35
ATOM     35  C12 non d ame     -13.303  15.835  73.058  0.00  0.00    -0.071 C 
ATOM     36  H13 non d ame     -14.055  16.624  73.061  0.00  0.00     0.028 H 
ATOM     37  H14 non d ame     -13.137  15.487  74.076  0.00  0.00     0.028 H 
ATOM     38  H15 non d ame     -12.371  16.224  72.650  0.00  0.00     0.028 H 
ENDBRANCH  33  35
BRANCH  33  39
ATOM     39  C13 non d ame     -14.963  15.091  71.232  0.00  0.00    -0.071 C 
ATOM     40  H16 non d ame     -15.870  14.546  71.493  0.00  0.00     0.028 H 
ATOM     41  H17 non d ame     -15.137  16.162  71.348  0.00  0.00     0.028 H 
ATOM     42  H18 non d ame     -14.695  14.877  70.198  0.00  0.00     0.028 H 
ENDBRANCH  33  39
ENDBRANCH   7  33
ENDBRANCH   4   7
ENDBRANCH   1   3
BRANCH   1  43
ATOM     43  C15 non d ame     -10.792   9.598  69.795  0.00  0.00     0.240 C 
ATOM     44  O5  non d ame      -9.779   9.064  70.115  0.00  0.00    -0.271 OA
ATOM     45  N6  non d ame     -11.175   9.659  68.356  0.00  0.00    -0.355 N 
ATOM     46  H46 non d ame     -12.035  10.106  68.073  0.00  0.00     0.162 HD
BRANCH  45  47
ATOM     47  C20 non d ame     -10.287   9.063  67.335  0.00  0.00     0.013 C 
ATOM     48  H30 non d ame      -9.286   8.990  67.761  0.00  0.00     0.072 H 
BRANCH  47  49
ATOM     49  C21 non d ame     -10.263   9.951  66.112  0.00  0.00    -0.038 C 
ATOM     50  H31 non d ame     -11.123   9.652  65.514  0.00  0.00     0.036 H 
ATOM     51  H32 non d ame     -10.190  10.971  66.490  0.00  0.00     0.036 H 
BRANCH  49  52
ATOM     52  C22 non d ame      -9.016   9.722  65.230  0.00  0.00     0.018 C 
ATOM     53  H33 non d ame      -8.251  10.394  65.618  0.00  0.00     0.048 H 
ATOM     54  H34 non d ame      -8.847   8.645  65.232  0.00  0.00     0.048 H 
BRANCH  52  55
ATOM     55  C23 non d ame      -9.220  10.120  63.741  0.00  0.00     0.259 C 
ATOM     56  O7  non d ame     -10.254  10.579  63.376  0.00  0.00    -0.265 OA
BRANCH  55  57
ATOM     57  O8  non d ame      -8.160   9.918  62.814  0.00  0.00    -0.317 OA
BRANCH  57  58
ATOM     58  C29 non d ame      -8.171   8.629  62.192  0.00  0.00     0.052 C 
ATOM     59  H47 non d ame      -9.103   8.160  62.502  0.00  0.00     0.082 H 
ATOM     60  H48 non d ame      -7.977   8.811  61.135  0.00  0.00     0.082 H 
BRANCH  58  61
ATOM     61  C35 non d ame      -6.989   7.808  62.773  0.00  0.00    -0.034 A 
ATOM     62  C30 non d ame      -5.723   8.376  62.867  0.00  0.00    -0.075 A 
ATOM     63  C31 non d ame      -4.662   7.638  63.389  0.00  0.00    -0.082 A 
ATOM     64  H49 non d ame      -5.563   9.401  62.532  0.00  0.00     0.084 H 
ATOM     65  C32 non d ame      -4.871   6.324  63.815  0.00  0.00    -0.083 A 
ATOM     66  H50 non d ame      -3.672   8.088  63.464  0.00  0.00     0.083 H 
ATOM     67  C33 non d ame      -6.135   5.758  63.717  0.00  0.00    -0.082 A 
ATOM     68  H51 non d ame      -4.047   5.740  64.226  0.00  0.00     0.083 H 
ATOM     69  C34 non d ame      -7.198   6.494  63.198  0.00  0.00    -0.075 A 
ATOM     70  H52 non d ame      -6.293   4.732  64.049  0.00  0.00     0.083 H 
ATOM     71  H53 non d ame      -8.189   6.043  63.125  0.00  0.00     0.084 H 
ENDBRANCH  58  61
ENDBRANCH  57  58
ENDBRANCH  55  57
ENDBRANCH  52  55
ENDBRANCH  49  52
ENDBRANCH  47  49
BRANCH  47  72
ATOM     72  C24 non d ame     -10.801   7.677  66.950  0.00  0.00    -0.039 C 
ATOM     73  H35 non d ame     -11.812   7.621  67.355  0.00  0.00     0.036 H 
ATOM     74  H36 non d ame     -10.641   7.597  65.874  0.00  0.00     0.036 H 
BRANCH  72  75
ATOM     75  C25 non d ame      -9.948   6.513  67.644  0.00  0.00    -0.001 C 
ATOM     76  C26 non d ame      -8.342   6.841  67.510  0.00  0.00    -0.035 C 
ATOM     77  C27 non d ame      -7.716   5.753  67.000  0.00  0.00     0.085 C 
ATOM     78  H38 non d ame      -8.178   7.607  66.754  0.00  0.00     0.036 H 
ATOM     79  H39 non d ame      -7.899   6.949  68.500  0.00  0.00     0.036 H 
ATOM     80  N5  non d ame      -8.790   4.835  66.468  0.00  0.00    -0.049 N 
ATOM     81  H40 non d ame      -7.121   6.125  66.165  0.00  0.00     0.075 H 
ATOM     82  H41 non d ame      -7.227   5.275  67.848  0.00  0.00     0.075 H 
ATOM     83  C28 non d ame     -10.180   5.369  67.092  0.00  0.00     0.193 C 
ATOM     84  H42 non d ame      -8.813   4.970  65.469  0.00  0.00     0.280 HD
ATOM     85  H43 non d ame      -8.599   3.919  66.850  0.00  0.00     0.280 HD
ATOM     86  H44 non d ame     -10.656   4.843  67.918  0.00  0.00     0.129 H 
ATOM     87  H37 non d ame     -10.322   6.263  68.637  0.00  0.00     0.046 H 
BRANCH  83  88
ATOM     88  O6  non d ame     -11.177   5.457  66.071  0.00  0.00    -0.369 OA
ATOM     89  H45 non d ame     -11.464   4.573  65.829  0.00  0.00     0.212 HD
ENDBRANCH  83  88
ENDBRANCH  72  75
ENDBRANCH  47  72
ENDBRANCH  45  47
ENDBRANCH   1  43
BRANCH   1  90
ATOM     90  C16 non d ame     -13.127   9.681  70.721  0.00  0.00    -0.035 C 
ATOM     91  H21 non d ame     -13.785  10.511  70.986  0.00  0.00     0.037 H 
ATOM     92  H22 non d ame     -13.163   9.257  69.718  0.00  0.00     0.037 H 
BRANCH  90  93
ATOM     93  C17 non d ame     -13.470   8.517  71.705  0.00  0.00    -0.059 C 
ATOM     94  H23 non d ame     -13.185   8.836  72.707  0.00  0.00     0.038 H 
BRANCH  93  95
ATOM     95  C18 non d ame     -14.998   8.191  71.724  0.00  0.00    -0.073 C 
ATOM     96  H24 non d ame     -15.336   8.098  72.756  0.00  0.00     0.028 H 
ATOM     97  H25 non d ame     -15.546   8.995  71.233  0.00  0.00     0.028 H 
ATOM     98  H26 non d ame     -15.176   7.254  71.196  0.00  0.00     0.028 H 
ENDBRANCH  93  95
BRANCH  93  99
ATOM     99  C19 non d ame     -12.650   7.265  71.378  0.00  0.00    -0.073 C 
ATOM    100  H27 non d ame     -12.129   7.410  70.431  0.00  0.00     0.028 H 
ATOM    101  H28 non d ame     -11.923   7.091  72.171  0.00  0.00     0.028 H 
ATOM    102  H29 non d ame     -13.315   6.405  71.300  0.00  0.00     0.028 H 
ENDBRANCH  93  99
ENDBRANCH  90  93
ENDBRANCH   1  90
TORSDOF 26
ENDMDL
MODEL 4
REMARK VINA RESULT:      -6.8      2.535      5.033
REMARK  26 active torsions:
REMARK  status: ('A' for Active; 'I' for Inactive)
REMARK    1  A    between atoms: C2_2  and  C3_3 
REMARK    2  A    between atoms: C4_6  and  C5_7 
REMARK       I    between atoms: C5_7  and  N2_9 
REMARK    3  A    between atoms: N2_9  and  C6_10 
REMARK    4  A    between atoms: C6_10  and  C7_11 
REMARK    5  A    between atoms: C6_10  and  C8_13 
REMARK       I    between atoms: C7_11  and  N3_14 
REMARK    6  A    between atoms: N3_14  and  C9_15 
REMARK    7  A    between atoms: C9_15  and  C10_16 
REMARK    8  A    between atoms: C9_15  and  C11_18 
REMARK       I    between atoms: C10_16  and  N4_21 
REMARK    9  A    between atoms: C11_18  and  C12_19 
REMARK   10  A    between atoms: C11_18  and  C13_20 
REMARK   11  A    between atoms: N4_21  and  C14_22 
REMARK   12  A    between atoms: C14_22  and  C15_23 
REMARK   13  A    between atoms: C14_22  and  C16_25 
REMARK       I    between atoms: C15_23  and  N6_40 
REMARK   14  A    between atoms: C16_25  and  C17_26 
REMARK   15  A    between atoms: C17_26  and  C18_27 
REMARK   16  A    between atoms: C17_26  and  C19_28 
REMARK   17  A    between atoms: C20_29  and  C21_30 
REMARK   18  A    between atoms: C20_29  and  C24_33 
REMARK   19  A    between atoms: C20_29  and  N6_40 
REMARK   20  A    between atoms: C21_30  and  C22_31 
REMARK   21  A    between atoms: C22_31  and  C23_32 
REMARK   22  A    between atoms: C23_32  and  O8_43 
REMARK   23  A    between atoms: C24_33  and  C25_34 
REMARK   24  A    between atoms: C28_38  and  O6_39 
REMARK   25  A    between atoms: C29_42  and  O8_43 
REMARK   26  A    between atoms: C29_42  and  C35_49 
ROOT
ATOM      1  C14 non d ame     -11.067  12.486  66.818  0.00  0.00     0.089 C 
ATOM      2  H20 non d ame     -10.077  12.590  66.372  0.00  0.00     0.087 H 
ENDROOT
BRANCH   1   3
ATOM      3  N4  non d ame     -11.032  11.329  67.700  0.00  0.00    -0.346 N 
ATOM      4  C10 non d ame     -10.276  10.087  67.298  0.00  0.00     0.241 C 
ATOM      5  O4  non d ame      -9.705  10.043  66.257  0.00  0.00    -0.271 OA
ATOM      6  H19 non d ame     -11.525  11.386  68.580  0.00  0.00     0.163 HD
BRANCH   4   7
ATOM      7  C9  non d ame     -10.245   8.901  68.225  0.00  0.00     0.092 C 
ATOM      8  H11 non d ame     -11.261   8.536  68.375  0.00  0.00     0.088 H 
BRANCH   7   9
ATOM      9  N3  non d ame      -9.482   7.814  67.603  0.00  0.00    -0.346 N 
ATOM     10  C7  non d ame     -10.173   6.713  66.981  0.00  0.00     0.240 C 
ATOM     11  O3  non d ame     -11.343   6.683  66.971  0.00  0.00    -0.271 OA
ATOM     12  H10 non d ame      -8.471   7.825  67.605  0.00  0.00     0.163 HD
BRANCH  10  13
ATOM     13  C6  non d ame      -9.355   5.557  66.324  0.00  0.00     0.086 C 
ATOM     14  H6  non d ame      -9.894   5.067  65.514  0.00  0.00     0.086 H 
BRANCH  13  15
ATOM     15  N2  non d ame      -8.143   6.110  65.742  0.00  0.00    -0.343 N 
ATOM     16  C5  non d ame      -7.835   5.851  64.333  0.00  0.00     0.273 C 
ATOM     17  O2  non d ame      -8.567   5.195  63.679  0.00  0.00    -0.266 OA
ATOM     18  H5  non d ame      -7.521   6.668  66.310  0.00  0.00     0.163 HD
BRANCH  16  19
ATOM     19  C4  non d ame      -6.558   6.431  63.705  0.00  0.00     0.154 A 
ATOM     20  C1  non d ame      -6.141   7.800  63.699  0.00  0.00    -0.017 A 
ATOM     21  C2  non d ame      -4.913   7.802  63.002  0.00  0.00     0.077 A 
ATOM     22  H1  non d ame      -6.652   8.659  64.135  0.00  0.00     0.091 H 
ATOM     23  O1  non d ame      -4.661   6.574  62.655  0.00  0.00    -0.218 OA
ATOM     24  N1  non d ame      -5.607   5.755  63.054  0.00  0.00    -0.123 NA
BRANCH  21  25
ATOM     25  C3  non d ame      -4.043   9.019  62.714  0.00  0.00    -0.029 C 
ATOM     26  H2  non d ame      -4.645   9.924  62.795  0.00  0.00     0.036 H 
ATOM     27  H3  non d ame      -3.226   9.060  63.433  0.00  0.00     0.036 H 
ATOM     28  H4  non d ame      -3.635   8.944  61.705  0.00  0.00     0.036 H 
ENDBRANCH  21  25
ENDBRANCH  16  19
ENDBRANCH  13  15
BRANCH  13  29
ATOM     29  C8  non d ame      -9.003   4.529  67.368  0.00  0.00    -0.049 C 
ATOM     30  H7  non d ame      -9.311   3.542  67.024  0.00  0.00     0.030 H 
ATOM     31  H8  non d ame      -7.927   4.536  67.538  0.00  0.00     0.030 H 
ATOM     32  H9  non d ame      -9.520   4.766  68.299  0.00  0.00     0.030 H 
ENDBRANCH  13  29
ENDBRANCH  10  13
ENDBRANCH   7   9
BRANCH   7  33
ATOM     33  C11 non d ame      -9.566   9.308  69.565  0.00  0.00    -0.033 C 
ATOM     34  H12 non d ame     -10.132  10.140  69.982  0.00  0.00     0.042 H 
BRANCH  33  35
ATOM     35  C12 non d ame      -9.611   8.143  70.602  0.00  0.00    -0.071 C 
ATOM     36  H13 non d ame     -10.014   7.249  70.127  0.00  0.00     0.028 H 
ATOM     37  H14 non d ame      -8.604   7.939  70.964  0.00  0.00     0.028 H 
ATOM     38  H15 non d ame     -10.248   8.427  71.439  0.00  0.00     0.028 H 
ENDBRANCH  33  35
BRANCH  33  39
ATOM     39  C13 non d ame      -8.100   9.794  69.324  0.00  0.00    -0.071 C 
ATOM     40  H16 non d ame      -7.467   8.938  69.093  0.00  0.00     0.028 H 
ATOM     41  H17 non d ame      -8.082  10.495  68.489  0.00  0.00     0.028 H 
ATOM     42  H18 non d ame      -7.729  10.289  70.222  0.00  0.00     0.028 H 
ENDBRANCH  33  39
ENDBRANCH   7  33
ENDBRANCH   4   7
ENDBRANCH   1   3
BRANCH   1  43
ATOM     43  C15 non d ame     -11.469  13.734  67.655  0.00  0.00     0.240 C 
ATOM     44  O5  non d ame     -12.617  13.991  67.820  0.00  0.00    -0.271 OA
ATOM     45  N6  non d ame     -10.420  14.604  68.259  0.00  0.00    -0.355 N 
ATOM     46  H46 non d ame      -9.441  14.393  68.129  0.00  0.00     0.162 HD
BRANCH  45  47
ATOM     47  C20 non d ame     -10.817  15.787  69.053  0.00  0.00     0.013 C 
ATOM     48  H30 non d ame     -11.823  16.075  68.747  0.00  0.00     0.072 H 
BRANCH  47  49
ATOM     49  C21 non d ame      -9.852  16.919  68.783  0.00  0.00    -0.038 C 
ATOM     50  H31 non d ame      -9.982  17.619  69.607  0.00  0.00     0.036 H 
ATOM     51  H32 non d ame      -8.883  16.446  68.617  0.00  0.00     0.036 H 
BRANCH  49  52
ATOM     52  C22 non d ame     -10.187  17.696  67.492  0.00  0.00     0.018 C 
ATOM     53  H33 non d ame     -11.164  17.333  67.173  0.00  0.00     0.048 H 
ATOM     54  H34 non d ame     -10.050  18.749  67.737  0.00  0.00     0.048 H 
BRANCH  52  55
ATOM     55  C23 non d ame      -9.216  17.401  66.314  0.00  0.00     0.259 C 
ATOM     56  O7  non d ame      -9.216  16.337  65.785  0.00  0.00    -0.265 OA
BRANCH  55  57
ATOM     57  O8  non d ame      -8.316  18.414  65.882  0.00  0.00    -0.317 OA
BRANCH  57  58
ATOM     58  C29 non d ame      -8.592  19.708  66.427  0.00  0.00     0.052 C 
ATOM     59  H47 non d ame      -8.633  20.384  65.575  0.00  0.00     0.082 H 
ATOM     60  H48 non d ame      -9.468  19.579  67.063  0.00  0.00     0.082 H 
BRANCH  58  61
ATOM     61  C35 non d ame      -7.392  20.116  67.323  0.00  0.00    -0.034 A 
ATOM     62  C30 non d ame      -7.311  19.654  68.633  0.00  0.00    -0.075 A 
ATOM     63  C31 non d ame      -6.232  20.021  69.436  0.00  0.00    -0.082 A 
ATOM     64  H49 non d ame      -8.091  19.005  69.029  0.00  0.00     0.084 H 
ATOM     65  C32 non d ame      -5.234  20.856  68.927  0.00  0.00    -0.083 A 
ATOM     66  H50 non d ame      -6.170  19.655  70.461  0.00  0.00     0.083 H 
ATOM     67  C33 non d ame      -5.321  21.318  67.620  0.00  0.00    -0.082 A 
ATOM     68  H51 non d ame      -4.387  21.147  69.548  0.00  0.00     0.083 H 
ATOM     69  C34 non d ame      -6.396  20.951  66.813  0.00  0.00    -0.075 A 
ATOM     70  H52 non d ame      -4.542  21.970  67.226  0.00  0.00     0.083 H 
ATOM     71  H53 non d ame      -6.457  21.317  65.787  0.00  0.00     0.084 H 
ENDBRANCH  58  61
ENDBRANCH  57  58
ENDBRANCH  55  57
ENDBRANCH  52  55
ENDBRANCH  49  52
ENDBRANCH  47  49
BRANCH  47  72
ATOM     72  C24 non d ame     -10.795  15.441  70.541  0.00  0.00    -0.039 C 
ATOM     73  H35 non d ame     -10.527  14.385  70.588  0.00  0.00     0.036 H 
ATOM     74  H36 non d ame     -10.149  16.187  71.003  0.00  0.00     0.036 H 
BRANCH  72  75
ATOM     75  C25 non d ame     -12.244  15.591  71.207  0.00  0.00    -0.001 C 
ATOM     76  C26 non d ame     -12.108  16.293  72.688  0.00  0.00    -0.035 C 
ATOM     77  C27 non d ame     -12.769  15.532  73.593  0.00  0.00     0.085 C 
ATOM     78  H38 non d ame     -11.074  16.252  73.028  0.00  0.00     0.036 H 
ATOM     79  H39 non d ame     -12.650  17.238  72.706  0.00  0.00     0.036 H 
ATOM     80  N5  non d ame     -13.064  14.209  72.926  0.00  0.00    -0.049 N 
ATOM     81  H40 non d ame     -12.063  15.369  74.408  0.00  0.00     0.075 H 
ATOM     82  H41 non d ame     -13.708  16.052  73.780  0.00  0.00     0.075 H 
ATOM     83  C28 non d ame     -12.816  14.443  71.348  0.00  0.00     0.193 C 
ATOM     84  H42 non d ame     -12.374  13.557  73.268  0.00  0.00     0.280 HD
ATOM     85  H43 non d ame     -14.047  14.028  73.073  0.00  0.00     0.280 HD
ATOM     86  H44 non d ame     -13.658  14.555  70.665  0.00  0.00     0.129 H 
ATOM     87  H37 non d ame     -12.971  16.022  70.519  0.00  0.00     0.046 H 
BRANCH  83  88
ATOM     88  O6  non d ame     -12.028  13.379  70.810  0.00  0.00    -0.369 OA
ATOM     89  H45 non d ame     -11.398  13.083  71.471  0.00  0.00     0.212 HD
ENDBRANCH  83  88
ENDBRANCH  72  75
ENDBRANCH  47  72
ENDBRANCH  45  47
ENDBRANCH   1  43
BRANCH   1  90
ATOM     90  C16 non d ame     -12.100  12.247  65.728  0.00  0.00    -0.035 C 
ATOM     91  H21 non d ame     -12.186  11.163  65.645  0.00  0.00     0.037 H 
ATOM     92  H22 non d ame     -12.967  12.841  66.016  0.00  0.00     0.037 H 
BRANCH  90  93
ATOM     93  C17 non d ame     -11.658  12.764  64.322  0.00  0.00    -0.059 C 
ATOM     94  H23 non d ame     -12.013  13.789  64.220  0.00  0.00     0.038 H 
BRANCH  93  95
ATOM     95  C18 non d ame     -10.105  12.779  64.160  0.00  0.00    -0.073 C 
ATOM     96  H24 non d ame      -9.767  11.805  63.808  0.00  0.00     0.028 H 
ATOM     97  H25 non d ame      -9.823  13.544  63.437  0.00  0.00     0.028 H 
ATOM     98  H26 non d ame      -9.642  13.000  65.122  0.00  0.00     0.028 H 
ENDBRANCH  93  95
BRANCH  93  99
ATOM     99  C19 non d ame     -12.314  11.944  63.207  0.00  0.00    -0.073 C 
ATOM    100  H27 non d ame     -12.036  12.361  62.238  0.00  0.00     0.028 H 
ATOM    101  H28 non d ame     -11.973  10.910  63.270  0.00  0.00     0.028 H 
ATOM    102  H29 non d ame     -13.397  11.975  63.321  0.00  0.00     0.028 H 
ENDBRANCH  93  99
ENDBRANCH  90  93
ENDBRANCH   1  90
TORSDOF 26
ENDMDL
MODEL 5
REMARK VINA RESULT:      -6.8      2.578      8.693
REMARK  26 active torsions:
REMARK  status: ('A' for Active; 'I' for Inactive)
REMARK    1  A    between atoms: C2_2  and  C3_3 
REMARK    2  A    between atoms: C4_6  and  C5_7 
REMARK       I    between atoms: C5_7  and  N2_9 
REMARK    3  A    between atoms: N2_9  and  C6_10 
REMARK    4  A    between atoms: C6_10  and  C7_11 
REMARK    5  A    between atoms: C6_10  and  C8_13 
REMARK       I    between atoms: C7_11  and  N3_14 
REMARK    6  A    between atoms: N3_14  and  C9_15 
REMARK    7  A    between atoms: C9_15  and  C10_16 
REMARK    8  A    between atoms: C9_15  and  C11_18 
REMARK       I    between atoms: C10_16  and  N4_21 
REMARK    9  A    between atoms: C11_18  and  C12_19 
REMARK   10  A    between atoms: C11_18  and  C13_20 
REMARK   11  A    between atoms: N4_21  and  C14_22 
REMARK   12  A    between atoms: C14_22  and  C15_23 
REMARK   13  A    between atoms: C14_22  and  C16_25 
REMARK       I    between atoms: C15_23  and  N6_40 
REMARK   14  A    between atoms: C16_25  and  C17_26 
REMARK   15  A    between atoms: C17_26  and  C18_27 
REMARK   16  A    between atoms: C17_26  and  C19_28 
REMARK   17  A    between atoms: C20_29  and  C21_30 
REMARK   18  A    between atoms: C20_29  and  C24_33 
REMARK   19  A    between atoms: C20_29  and  N6_40 
REMARK   20  A    between atoms: C21_30  and  C22_31 
REMARK   21  A    between atoms: C22_31  and  C23_32 
REMARK   22  A    between atoms: C23_32  and  O8_43 
REMARK   23  A    between atoms: C24_33  and  C25_34 
REMARK   24  A    between atoms: C28_38  and  O6_39 
REMARK   25  A    between atoms: C29_42  and  O8_43 
REMARK   26  A    between atoms: C29_42  and  C35_49 
ROOT
ATOM      1  C14 non d ame      -6.851  14.500  67.963  0.00  0.00     0.089 C 
ATOM      2  H20 non d ame      -6.089  14.880  67.281  0.00  0.00     0.087 H 
ENDROOT
BRANCH   1   3
ATOM      3  N4  non d ame      -8.104  15.165  67.634  0.00  0.00    -0.346 N 
ATOM      4  C10 non d ame      -8.114  16.358  66.711  0.00  0.00     0.241 C 
ATOM      5  O4  non d ame      -7.100  16.765  66.246  0.00  0.00    -0.271 OA
ATOM      6  H19 non d ame      -8.955  14.804  68.042  0.00  0.00     0.163 HD
BRANCH   4   7
ATOM      7  C9  non d ame      -9.419  17.030  66.378  0.00  0.00     0.092 C 
ATOM      8  H11 non d ame      -9.485  17.173  65.299  0.00  0.00     0.088 H 
BRANCH   7   9
ATOM      9  N3  non d ame     -10.532  16.158  66.766  0.00  0.00    -0.346 N 
ATOM     10  C7  non d ame     -10.684  14.865  66.148  0.00  0.00     0.240 C 
ATOM     11  O3  non d ame      -9.921  14.508  65.336  0.00  0.00    -0.271 OA
ATOM     12  H10 non d ame     -11.200  16.452  67.466  0.00  0.00     0.163 HD
BRANCH  10  13
ATOM     13  C6  non d ame     -11.872  13.942  66.564  0.00  0.00     0.086 C 
ATOM     14  H6  non d ame     -11.563  12.913  66.748  0.00  0.00     0.086 H 
BRANCH  13  15
ATOM     15  N2  non d ame     -12.438  14.435  67.810  0.00  0.00    -0.343 N 
ATOM     16  C5  non d ame     -11.658  14.336  69.046  0.00  0.00     0.273 C 
ATOM     17  O2  non d ame     -10.579  13.855  69.028  0.00  0.00    -0.266 OA
ATOM     18  H5  non d ame     -13.362  14.842  67.816  0.00  0.00     0.163 HD
BRANCH  16  19
ATOM     19  C4  non d ame     -12.244  14.854  70.369  0.00  0.00     0.154 A 
ATOM     20  C1  non d ame     -11.604  14.873  71.649  0.00  0.00    -0.017 A 
ATOM     21  C2  non d ame     -12.557  15.443  72.522  0.00  0.00     0.077 A 
ATOM     22  H1  non d ame     -10.602  14.528  71.904  0.00  0.00     0.091 H 
ATOM     23  O1  non d ame     -13.615  15.717  71.817  0.00  0.00    -0.218 OA
ATOM     24  N1  non d ame     -13.456  15.382  70.557  0.00  0.00    -0.123 NA
BRANCH  21  25
ATOM     25  C3  non d ame     -12.377  15.691  74.014  0.00  0.00    -0.029 C 
ATOM     26  H2  non d ame     -13.248  16.217  74.403  0.00  0.00     0.036 H 
ATOM     27  H3  non d ame     -12.267  14.738  74.531  0.00  0.00     0.036 H 
ATOM     28  H4  non d ame     -11.484  16.297  74.176  0.00  0.00     0.036 H 
ENDBRANCH  21  25
ENDBRANCH  16  19
ENDBRANCH  13  15
BRANCH  13  29
ATOM     29  C8  non d ame     -12.921  13.950  65.482  0.00  0.00    -0.049 C 
ATOM     30  H7  non d ame     -13.645  14.741  65.684  0.00  0.00     0.030 H 
ATOM     31  H8  non d ame     -12.448  14.129  64.517  0.00  0.00     0.030 H 
ATOM     32  H9  non d ame     -13.432  12.988  65.465  0.00  0.00     0.030 H 
ENDBRANCH  13  29
ENDBRANCH  10  13
ENDBRANCH   7   9
BRANCH   7  33
ATOM     33  C11 non d ame      -9.522  18.376  67.154  0.00  0.00    -0.033 C 
ATOM     34  H12 non d ame      -8.530  18.823  67.169  0.00  0.00     0.042 H 
BRANCH  33  35
ATOM     35  C12 non d ame     -10.478  19.377  66.432  0.00  0.00    -0.071 C 
ATOM     36  H13 non d ame      -9.934  19.892  65.641  0.00  0.00     0.028 H 
ATOM     37  H14 non d ame     -11.316  18.831  66.000  0.00  0.00     0.028 H 
ATOM     38  H15 non d ame     -10.849  20.105  67.152  0.00  0.00     0.028 H 
ENDBRANCH  33  35
BRANCH  33  39
ATOM     39  C13 non d ame      -9.967  18.135  68.632  0.00  0.00    -0.071 C 
ATOM     40  H16 non d ame      -9.341  17.364  69.079  0.00  0.00     0.028 H 
ATOM     41  H17 non d ame      -9.862  19.062  69.198  0.00  0.00     0.028 H 
ATOM     42  H18 non d ame     -11.008  17.815  68.651  0.00  0.00     0.028 H 
ENDBRANCH  33  39
ENDBRANCH   7  33
ENDBRANCH   4   7
ENDBRANCH   1   3
BRANCH   1  43
ATOM     43  C15 non d ame      -7.054  12.965  67.820  0.00  0.00     0.240 C 
ATOM     44  O5  non d ame      -6.196  12.220  68.165  0.00  0.00    -0.271 OA
ATOM     45  N6  non d ame      -8.326  12.422  67.260  0.00  0.00    -0.355 N 
ATOM     46  H46 non d ame      -9.064  13.045  66.967  0.00  0.00     0.162 HD
BRANCH  45  47
ATOM     47  C20 non d ame      -8.504  10.960  67.131  0.00  0.00     0.013 C 
ATOM     48  H30 non d ame      -7.794  10.475  67.800  0.00  0.00     0.072 H 
BRANCH  47  49
ATOM     49  C21 non d ame      -8.232  10.546  65.703  0.00  0.00    -0.038 C 
ATOM     50  H31 non d ame      -7.363  11.124  65.389  0.00  0.00     0.036 H 
ATOM     51  H32 non d ame      -8.187   9.457  65.715  0.00  0.00     0.036 H 
BRANCH  49  52
ATOM     52  C22 non d ame      -9.378  10.926  64.740  0.00  0.00     0.018 C 
ATOM     53  H33 non d ame     -10.267  10.427  65.128  0.00  0.00     0.048 H 
ATOM     54  H34 non d ame      -9.353  12.012  64.665  0.00  0.00     0.048 H 
BRANCH  52  55
ATOM     55  C23 non d ame      -9.185  10.391  63.294  0.00  0.00     0.259 C 
ATOM     56  O7  non d ame      -9.253  11.128  62.365  0.00  0.00    -0.265 OA
BRANCH  55  57
ATOM     57  O8  non d ame      -8.941   9.004  63.091  0.00  0.00    -0.317 OA
BRANCH  57  58
ATOM     58  C29 non d ame      -7.900   8.729  62.148  0.00  0.00     0.052 C 
ATOM     59  H47 non d ame      -8.359   8.120  61.371  0.00  0.00     0.082 H 
ATOM     60  H48 non d ame      -7.466   9.697  61.898  0.00  0.00     0.082 H 
BRANCH  58  61
ATOM     61  C35 non d ame      -6.818   7.878  62.865  0.00  0.00    -0.034 A 
ATOM     62  C30 non d ame      -7.056   6.536  63.141  0.00  0.00    -0.075 A 
ATOM     63  C31 non d ame      -6.083   5.772  63.785  0.00  0.00    -0.082 A 
ATOM     64  H49 non d ame      -8.004   6.082  62.851  0.00  0.00     0.084 H 
ATOM     65  C32 non d ame      -4.871   6.357  64.157  0.00  0.00    -0.083 A 
ATOM     66  H50 non d ame      -6.272   4.719  63.996  0.00  0.00     0.083 H 
ATOM     67  C33 non d ame      -4.638   7.698  63.884  0.00  0.00    -0.082 A 
ATOM     68  H51 non d ame      -4.105   5.766  64.661  0.00  0.00     0.083 H 
ATOM     69  C34 non d ame      -5.607   8.464  63.238  0.00  0.00    -0.075 A 
ATOM     70  H52 non d ame      -3.691   8.152  64.178  0.00  0.00     0.083 H 
ATOM     71  H53 non d ame      -5.416   9.517  63.026  0.00  0.00     0.084 H 
ENDBRANCH  58  61
ENDBRANCH  57  58
ENDBRANCH  55  57
ENDBRANCH  52  55
ENDBRANCH  49  52
ENDBRANCH  47  49
BRANCH  47  72
ATOM     72  C24 non d ame      -9.934  10.580  67.509  0.00  0.00    -0.039 C 
ATOM     73  H35 non d ame     -10.547  11.435  67.221  0.00  0.00     0.036 H 
ATOM     74  H36 non d ame     -10.107   9.607  67.048  0.00  0.00     0.036 H 
BRANCH  72  75
ATOM     75  C25 non d ame     -10.100  10.389  69.091  0.00  0.00    -0.001 C 
ATOM     76  C26 non d ame      -9.523   8.917  69.541  0.00  0.00    -0.035 C 
ATOM     77  C27 non d ame     -10.467   8.287  70.281  0.00  0.00     0.085 C 
ATOM     78  H38 non d ame      -9.414   8.275  68.667  0.00  0.00     0.036 H 
ATOM     79  H39 non d ame      -8.693   9.037  70.236  0.00  0.00     0.036 H 
ATOM     80  N5  non d ame     -11.754   9.056  70.102  0.00  0.00    -0.049 N 
ATOM     81  H40 non d ame     -10.578   7.299  69.832  0.00  0.00     0.075 H 
ATOM     82  H41 non d ame     -10.138   8.382  71.314  0.00  0.00     0.075 H 
ATOM     83  C28 non d ame     -11.339  10.471  69.445  0.00  0.00     0.193 C 
ATOM     84  H42 non d ame     -12.305   8.539  69.432  0.00  0.00     0.280 HD
ATOM     85  H43 non d ame     -12.117   9.226  71.029  0.00  0.00     0.280 HD
ATOM     86  H44 non d ame     -11.313  11.377  70.050  0.00  0.00     0.129 H 
ATOM     87  H37 non d ame      -9.741  11.254  69.650  0.00  0.00     0.046 H 
BRANCH  83  88
ATOM     88  O6  non d ame     -12.195  10.773  68.342  0.00  0.00    -0.369 OA
ATOM     89  H45 non d ame     -12.957  11.266  68.655  0.00  0.00     0.212 HD
ENDBRANCH  83  88
ENDBRANCH  72  75
ENDBRANCH  47  72
ENDBRANCH  45  47
ENDBRANCH   1  43
BRANCH   1  90
ATOM     90  C16 non d ame      -6.473  14.835  69.396  0.00  0.00    -0.035 C 
ATOM     91  H21 non d ame      -7.377  15.251  69.844  0.00  0.00     0.037 H 
ATOM     92  H22 non d ame      -6.036  13.922  69.800  0.00  0.00     0.037 H 
BRANCH  90  93
ATOM     93  C17 non d ame      -5.375  15.939  69.513  0.00  0.00    -0.059 C 
ATOM     94  H23 non d ame      -4.795  15.928  68.591  0.00  0.00     0.038 H 
BRANCH  93  95
ATOM     95  C18 non d ame      -5.990  17.367  69.672  0.00  0.00    -0.073 C 
ATOM     96  H24 non d ame      -5.388  18.085  69.114  0.00  0.00     0.028 H 
ATOM     97  H25 non d ame      -7.008  17.369  69.285  0.00  0.00     0.028 H 
ATOM     98  H26 non d ame      -6.001  17.642  70.727  0.00  0.00     0.028 H 
ENDBRANCH  93  95
BRANCH  93  99
ATOM     99  C19 non d ame      -4.409  15.632  70.661  0.00  0.00    -0.073 C 
ATOM    100  H27 non d ame      -4.977  15.453  71.575  0.00  0.00     0.028 H 
ATOM    101  H28 non d ame      -3.826  14.744  70.415  0.00  0.00     0.028 H 
ATOM    102  H29 non d ame      -3.738  16.478  70.808  0.00  0.00     0.028 H 
ENDBRANCH  93  99
ENDBRANCH  90  93
ENDBRANCH   1  90
TORSDOF 26
ENDMDL
MODEL 6
REMARK VINA RESULT:      -6.7      2.414      9.158
REMARK  26 active torsions:
REMARK  status: ('A' for Active; 'I' for Inactive)
REMARK    1  A    between atoms: C2_2  and  C3_3 
REMARK    2  A    between atoms: C4_6  and  C5_7 
REMARK       I    between atoms: C5_7  and  N2_9 
REMARK    3  A    between atoms: N2_9  and  C6_10 
REMARK    4  A    between atoms: C6_10  and  C7_11 
REMARK    5  A    between atoms: C6_10  and  C8_13 
REMARK       I    between atoms: C7_11  and  N3_14 
REMARK    6  A    between atoms: N3_14  and  C9_15 
REMARK    7  A    between atoms: C9_15  and  C10_16 
REMARK    8  A    between atoms: C9_15  and  C11_18 
REMARK       I    between atoms: C10_16  and  N4_21 
REMARK    9  A    between atoms: C11_18  and  C12_19 
REMARK   10  A    between atoms: C11_18  and  C13_20 
REMARK   11  A    between atoms: N4_21  and  C14_22 
REMARK   12  A    between atoms: C14_22  and  C15_23 
REMARK   13  A    between atoms: C14_22  and  C16_25 
REMARK       I    between atoms: C15_23  and  N6_40 
REMARK   14  A    between atoms: C16_25  and  C17_26 
REMARK   15  A    between atoms: C17_26  and  C18_27 
REMARK   16  A    between atoms: C17_26  and  C19_28 
REMARK   17  A    between atoms: C20_29  and  C21_30 
REMARK   18  A    between atoms: C20_29  and  C24_33 
REMARK   19  A    between atoms: C20_29  and  N6_40 
REMARK   20  A    between atoms: C21_30  and  C22_31 
REMARK   21  A    between atoms: C22_31  and  C23_32 
REMARK   22  A    between atoms: C23_32  and  O8_43 
REMARK   23  A    between atoms: C24_33  and  C25_34 
REMARK   24  A    between atoms: C28_38  and  O6_39 
REMARK   25  A    between atoms: C29_42  and  O8_43 
REMARK   26  A    between atoms: C29_42  and  C35_49 
ROOT
ATOM      1  C14 non d ame     -10.459  11.611  68.933  0.00  0.00     0.089 C 
ATOM      2  H20 non d ame      -9.825  11.142  69.686  0.00  0.00     0.087 H 
ENDROOT
BRANCH   1   3
ATOM      3  N4  non d ame      -9.852  12.886  68.582  0.00  0.00    -0.346 N 
ATOM      4  C10 non d ame      -8.451  12.935  68.024  0.00  0.00     0.241 C 
ATOM      5  O4  non d ame      -7.831  11.934  67.869  0.00  0.00    -0.271 OA
ATOM      6  H19 non d ame     -10.394  13.727  68.724  0.00  0.00     0.163 HD
BRANCH   4   7
ATOM      7  C9  non d ame      -7.839  14.263  67.662  0.00  0.00     0.092 C 
ATOM      8  H11 non d ame      -7.730  14.324  66.579  0.00  0.00     0.088 H 
BRANCH   7   9
ATOM      9  N3  non d ame      -8.743  15.344  68.066  0.00  0.00    -0.346 N 
ATOM     10  C7  non d ame      -9.346  16.191  67.068  0.00  0.00     0.240 C 
ATOM     11  O3  non d ame      -9.116  16.018  65.933  0.00  0.00    -0.271 OA
ATOM     12  H10 non d ame      -8.952  15.506  69.042  0.00  0.00     0.163 HD
BRANCH  10  13
ATOM     13  C6  non d ame     -10.305  17.342  67.505  0.00  0.00     0.086 C 
ATOM     14  H6  non d ame     -11.167  17.448  66.846  0.00  0.00     0.086 H 
BRANCH  13  15
ATOM     15  N2  non d ame     -10.829  17.042  68.828  0.00  0.00    -0.343 N 
ATOM     16  C5  non d ame     -11.704  15.882  69.012  0.00  0.00     0.273 C 
ATOM     17  O2  non d ame     -11.983  15.199  68.089  0.00  0.00    -0.266 OA
ATOM     18  H5  non d ame     -10.587  17.633  69.611  0.00  0.00     0.163 HD
BRANCH  16  19
ATOM     19  C4  non d ame     -12.263  15.553  70.404  0.00  0.00     0.154 A 
ATOM     20  C1  non d ame     -11.670  15.861  71.670  0.00  0.00    -0.017 A 
ATOM     21  C2  non d ame     -12.573  15.350  72.628  0.00  0.00     0.077 A 
ATOM     22  H1  non d ame     -10.729  16.377  71.863  0.00  0.00     0.091 H 
ATOM     23  O1  non d ame     -13.566  14.816  71.980  0.00  0.00    -0.218 OA
ATOM     24  N1  non d ame     -13.408  14.922  70.680  0.00  0.00    -0.123 NA
BRANCH  21  25
ATOM     25  C3  non d ame     -12.413  15.416  74.142  0.00  0.00    -0.029 C 
ATOM     26  H2  non d ame     -11.767  16.254  74.403  0.00  0.00     0.036 H 
ATOM     27  H3  non d ame     -13.390  15.552  74.605  0.00  0.00     0.036 H 
ATOM     28  H4  non d ame     -11.967  14.487  74.501  0.00  0.00     0.036 H 
ENDBRANCH  21  25
ENDBRANCH  16  19
ENDBRANCH  13  15
BRANCH  13  29
ATOM     29  C8  non d ame      -9.550  18.646  67.533  0.00  0.00    -0.049 C 
ATOM     30  H7  non d ame     -10.200  19.450  67.185  0.00  0.00     0.030 H 
ATOM     31  H8  non d ame      -9.224  18.857  68.551  0.00  0.00     0.030 H 
ATOM     32  H9  non d ame      -8.680  18.576  66.880  0.00  0.00     0.030 H 
ENDBRANCH  13  29
ENDBRANCH  10  13
ENDBRANCH   7   9
BRANCH   7  33
ATOM     33  C11 non d ame      -6.478  14.425  68.398  0.00  0.00    -0.033 C 
ATOM     34  H12 non d ame      -5.909  13.509  68.243  0.00  0.00     0.042 H 
BRANCH  33  35
ATOM     35  C12 non d ame      -5.645  15.602  67.801  0.00  0.00    -0.071 C 
ATOM     36  H13 non d ame      -4.882  15.205  67.132  0.00  0.00     0.028 H 
ATOM     37  H14 non d ame      -6.304  16.268  67.245  0.00  0.00     0.028 H 
ATOM     38  H15 non d ame      -5.168  16.154  68.610  0.00  0.00     0.028 H 
ENDBRANCH  33  35
BRANCH  33  39
ATOM     39  C13 non d ame      -6.692  14.607  69.935  0.00  0.00    -0.071 C 
ATOM     40  H16 non d ame      -7.638  14.152  70.227  0.00  0.00     0.028 H 
ATOM     41  H17 non d ame      -5.876  14.124  70.476  0.00  0.00     0.028 H 
ATOM     42  H18 non d ame      -6.709  15.669  70.177  0.00  0.00     0.028 H 
ENDBRANCH  33  39
ENDBRANCH   7  33
ENDBRANCH   4   7
ENDBRANCH   1   3
BRANCH   1  43
ATOM     43  C15 non d ame     -10.576  10.749  67.644  0.00  0.00     0.240 C 
ATOM     44  O5  non d ame     -11.342  11.061  66.791  0.00  0.00    -0.271 OA
ATOM     45  N6  non d ame      -9.725   9.536  67.469  0.00  0.00    -0.355 N 
ATOM     46  H46 non d ame      -9.068   9.264  68.184  0.00  0.00     0.162 HD
BRANCH  45  47
ATOM     47  C20 non d ame      -9.848   8.727  66.237  0.00  0.00     0.013 C 
ATOM     48  H30 non d ame     -10.779   9.006  65.743  0.00  0.00     0.072 H 
BRANCH  47  49
ATOM     49  C21 non d ame      -9.877   7.261  66.603  0.00  0.00    -0.038 C 
ATOM     50  H31 non d ame     -10.335   6.755  65.754  0.00  0.00     0.036 H 
ATOM     51  H32 non d ame      -8.859   7.011  66.902  0.00  0.00     0.036 H 
BRANCH  49  52
ATOM     52  C22 non d ame     -10.776   6.966  67.824  0.00  0.00     0.018 C 
ATOM     53  H33 non d ame     -11.011   7.937  68.260  0.00  0.00     0.048 H 
ATOM     54  H34 non d ame     -11.577   6.327  67.453  0.00  0.00     0.048 H 
BRANCH  52  55
ATOM     55  C23 non d ame     -10.065   6.156  68.944  0.00  0.00     0.259 C 
ATOM     56  O7  non d ame      -8.879   6.095  68.984  0.00  0.00    -0.265 OA
BRANCH  55  57
ATOM     57  O8  non d ame     -10.849   5.473  69.915  0.00  0.00    -0.317 OA
BRANCH  57  58
ATOM     58  C29 non d ame     -11.475   6.337  70.868  0.00  0.00     0.052 C 
ATOM     59  H47 non d ame     -11.101   7.337  70.650  0.00  0.00     0.082 H 
ATOM     60  H48 non d ame     -12.542   6.128  70.800  0.00  0.00     0.082 H 
BRANCH  58  61
ATOM     61  C35 non d ame     -10.983   5.926  72.282  0.00  0.00    -0.034 A 
ATOM     62  C30 non d ame     -10.527   6.893  73.171  0.00  0.00    -0.075 A 
ATOM     63  C31 non d ame     -10.086   6.523  74.440  0.00  0.00    -0.082 A 
ATOM     64  H49 non d ame     -10.516   7.942  72.873  0.00  0.00     0.084 H 
ATOM     65  C32 non d ame     -10.099   5.178  74.818  0.00  0.00    -0.083 A 
ATOM     66  H50 non d ame      -9.732   7.285  75.135  0.00  0.00     0.083 H 
ATOM     67  C33 non d ame     -10.551   4.215  73.926  0.00  0.00    -0.082 A 
ATOM     68  H51 non d ame      -9.756   4.880  75.809  0.00  0.00     0.083 H 
ATOM     69  C34 non d ame     -10.996   4.581  72.657  0.00  0.00    -0.075 A 
ATOM     70  H52 non d ame     -10.558   3.166  74.224  0.00  0.00     0.083 H 
ATOM     71  H53 non d ame     -11.351   3.819  71.963  0.00  0.00     0.084 H 
ENDBRANCH  58  61
ENDBRANCH  57  58
ENDBRANCH  55  57
ENDBRANCH  52  55
ENDBRANCH  49  52
ENDBRANCH  47  49
BRANCH  47  72
ATOM     72  C24 non d ame      -8.658   9.001  65.320  0.00  0.00    -0.039 C 
ATOM     73  H35 non d ame      -8.144   9.856  65.759  0.00  0.00     0.036 H 
ATOM     74  H36 non d ame      -8.140   8.046  65.223  0.00  0.00     0.036 H 
BRANCH  72  75
ATOM     75  C25 non d ame      -9.128   9.435  63.851  0.00  0.00    -0.001 C 
ATOM     76  C26 non d ame      -8.112   8.795  62.727  0.00  0.00    -0.035 C 
ATOM     77  C27 non d ame      -7.697   9.786  61.901  0.00  0.00     0.085 C 
ATOM     78  H38 non d ame      -7.192   8.458  63.203  0.00  0.00     0.036 H 
ATOM     79  H39 non d ame      -8.661   8.126  62.065  0.00  0.00     0.036 H 
ATOM     80  N5  non d ame      -8.075  11.093  62.556  0.00  0.00    -0.049 N 
ATOM     81  H40 non d ame      -6.609   9.704  61.872  0.00  0.00     0.075 H 
ATOM     82  H41 non d ame      -8.277   9.665  60.987  0.00  0.00     0.075 H 
ATOM     83  C28 non d ame      -9.129  10.719  63.719  0.00  0.00     0.193 C 
ATOM     84  H42 non d ame      -7.234  11.451  62.985  0.00  0.00     0.280 HD
ATOM     85  H43 non d ame      -8.553  11.637  61.852  0.00  0.00     0.280 HD
ATOM     86  H44 non d ame     -10.194  10.904  63.584  0.00  0.00     0.129 H 
ATOM     87  H37 non d ame     -10.196   9.282  63.698  0.00  0.00     0.046 H 
BRANCH  83  88
ATOM     88  O6  non d ame      -8.779  11.385  64.935  0.00  0.00    -0.369 OA
ATOM     89  H45 non d ame      -9.494  11.290  65.568  0.00  0.00     0.212 HD
ENDBRANCH  83  88
ENDBRANCH  72  75
ENDBRANCH  47  72
ENDBRANCH  45  47
ENDBRANCH   1  43
BRANCH   1  90
ATOM     90  C16 non d ame     -11.843  11.862  69.508  0.00  0.00    -0.035 C 
ATOM     91  H21 non d ame     -11.745  12.766  70.111  0.00  0.00     0.037 H 
ATOM     92  H22 non d ame     -12.518  11.849  68.652  0.00  0.00     0.037 H 
BRANCH  90  93
ATOM     93  C17 non d ame     -12.334  10.738  70.475  0.00  0.00    -0.059 C 
ATOM     94  H23 non d ame     -13.042  10.117  69.927  0.00  0.00     0.038 H 
BRANCH  93  95
ATOM     95  C18 non d ame     -11.164   9.820  70.953  0.00  0.00    -0.073 C 
ATOM     96  H24 non d ame     -10.897   9.127  70.155  0.00  0.00     0.028 H 
ATOM     97  H25 non d ame     -10.300  10.434  71.206  0.00  0.00     0.028 H 
ATOM     98  H26 non d ame     -11.481   9.258  71.832  0.00  0.00     0.028 H 
ENDBRANCH  93  95
BRANCH  93  99
ATOM     99  C19 non d ame     -13.083  11.333  71.670  0.00  0.00    -0.073 C 
ATOM    100  H27 non d ame     -13.611  10.539  72.200  0.00  0.00     0.028 H 
ATOM    101  H28 non d ame     -12.370  11.809  72.344  0.00  0.00     0.028 H 
ATOM    102  H29 non d ame     -13.799  12.075  71.318  0.00  0.00     0.028 H 
ENDBRANCH  93  99
ENDBRANCH  90  93
ENDBRANCH   1  90
TORSDOF 26
ENDMDL
MODEL 7
REMARK VINA RESULT:      -6.6      2.413      6.439
REMARK  26 active torsions:
REMARK  status: ('A' for Active; 'I' for Inactive)
REMARK    1  A    between atoms: C2_2  and  C3_3 
REMARK    2  A    between atoms: C4_6  and  C5_7 
REMARK       I    between atoms: C5_7  and  N2_9 
REMARK    3  A    between atoms: N2_9  and  C6_10 
REMARK    4  A    between atoms: C6_10  and  C7_11 
REMARK    5  A    between atoms: C6_10  and  C8_13 
REMARK       I    between atoms: C7_11  and  N3_14 
REMARK    6  A    between atoms: N3_14  and  C9_15 
REMARK    7  A    between atoms: C9_15  and  C10_16 
REMARK    8  A    between atoms: C9_15  and  C11_18 
REMARK       I    between atoms: C10_16  and  N4_21 
REMARK    9  A    between atoms: C11_18  and  C12_19 
REMARK   10  A    between atoms: C11_18  and  C13_20 
REMARK   11  A    between atoms: N4_21  and  C14_22 
REMARK   12  A    between atoms: C14_22  and  C15_23 
REMARK   13  A    between atoms: C14_22  and  C16_25 
REMARK       I    between atoms: C15_23  and  N6_40 
REMARK   14  A    between atoms: C16_25  and  C17_26 
REMARK   15  A    between atoms: C17_26  and  C18_27 
REMARK   16  A    between atoms: C17_26  and  C19_28 
REMARK   17  A    between atoms: C20_29  and  C21_30 
REMARK   18  A    between atoms: C20_29  and  C24_33 
REMARK   19  A    between atoms: C20_29  and  N6_40 
REMARK   20  A    between atoms: C21_30  and  C22_31 
REMARK   21  A    between atoms: C22_31  and  C23_32 
REMARK   22  A    between atoms: C23_32  and  O8_43 
REMARK   23  A    between atoms: C24_33  and  C25_34 
REMARK   24  A    between atoms: C28_38  and  O6_39 
REMARK   25  A    between atoms: C29_42  and  O8_43 
REMARK   26  A    between atoms: C29_42  and  C35_49 
ROOT
ATOM      1  C14 non d ame      -7.821  10.357  69.578  0.00  0.00     0.089 C 
ATOM      2  H20 non d ame      -7.922  10.905  70.516  0.00  0.00     0.087 H 
ENDROOT
BRANCH   1   3
ATOM      3  N4  non d ame      -8.705   9.204  69.646  0.00  0.00    -0.346 N 
ATOM      4  C10 non d ame      -8.967   8.521  70.966  0.00  0.00     0.241 C 
ATOM      5  O4  non d ame      -8.452   8.918  71.959  0.00  0.00    -0.271 OA
ATOM      6  H19 non d ame      -9.131   8.879  68.789  0.00  0.00     0.163 HD
BRANCH   4   7
ATOM      7  C9  non d ame      -9.889   7.332  71.019  0.00  0.00     0.092 C 
ATOM      8  H11 non d ame      -9.696   6.768  71.932  0.00  0.00     0.088 H 
BRANCH   7   9
ATOM      9  N3  non d ame     -11.280   7.793  71.081  0.00  0.00    -0.346 N 
ATOM     10  C7  non d ame     -11.906   8.022  72.359  0.00  0.00     0.240 C 
ATOM     11  O3  non d ame     -11.307   7.840  73.349  0.00  0.00    -0.271 OA
ATOM     12  H10 non d ame     -11.809   7.954  70.236  0.00  0.00     0.163 HD
BRANCH  10  13
ATOM     13  C6  non d ame     -13.387   8.510  72.419  0.00  0.00     0.086 C 
ATOM     14  H6  non d ame     -13.915   8.149  73.301  0.00  0.00     0.086 H 
BRANCH  13  15
ATOM     15  N2  non d ame     -13.402   9.962  72.491  0.00  0.00    -0.343 N 
ATOM     16  C5  non d ame     -12.927  10.747  71.349  0.00  0.00     0.273 C 
ATOM     17  O2  non d ame     -12.532  10.200  70.379  0.00  0.00    -0.266 OA
ATOM     18  H5  non d ame     -13.739  10.421  73.326  0.00  0.00     0.163 HD
BRANCH  16  19
ATOM     19  C4  non d ame     -12.938  12.282  71.412  0.00  0.00     0.154 A 
ATOM     20  C1  non d ame     -13.675  13.105  72.322  0.00  0.00    -0.017 A 
ATOM     21  C2  non d ame     -13.341  14.430  71.965  0.00  0.00     0.077 A 
ATOM     22  H1  non d ame     -14.347  12.789  73.120  0.00  0.00     0.091 H 
ATOM     23  O1  non d ame     -12.509  14.365  70.967  0.00  0.00    -0.218 OA
ATOM     24  N1  non d ame     -12.259  13.121  70.626  0.00  0.00    -0.123 NA
BRANCH  21  25
ATOM     25  C3  non d ame     -13.859  15.700  72.628  0.00  0.00    -0.029 C 
ATOM     26  H2  non d ame     -14.538  16.214  71.948  0.00  0.00     0.036 H 
ATOM     27  H3  non d ame     -14.389  15.441  73.544  0.00  0.00     0.036 H 
ATOM     28  H4  non d ame     -13.019  16.354  72.866  0.00  0.00     0.036 H 
ENDBRANCH  21  25
ENDBRANCH  16  19
ENDBRANCH  13  15
BRANCH  13  29
ATOM     29  C8  non d ame     -14.122   8.047  71.187  0.00  0.00    -0.049 C 
ATOM     30  H7  non d ame     -15.099   7.655  71.473  0.00  0.00     0.030 H 
ATOM     31  H8  non d ame     -14.252   8.885  70.504  0.00  0.00     0.030 H 
ATOM     32  H9  non d ame     -13.547   7.262  70.695  0.00  0.00     0.030 H 
ENDBRANCH  13  29
ENDBRANCH  10  13
ENDBRANCH   7   9
BRANCH   7  33
ATOM     33  C11 non d ame      -9.690   6.464  69.742  0.00  0.00    -0.033 C 
ATOM     34  H12 non d ame      -9.181   7.080  69.002  0.00  0.00     0.042 H 
BRANCH  33  35
ATOM     35  C12 non d ame      -8.780   5.229  70.031  0.00  0.00    -0.071 C 
ATOM     36  H13 non d ame      -8.039   5.129  69.237  0.00  0.00     0.028 H 
ATOM     37  H14 non d ame      -8.273   5.366  70.985  0.00  0.00     0.028 H 
ATOM     38  H15 non d ame      -9.393   4.329  70.070  0.00  0.00     0.028 H 
ENDBRANCH  33  35
BRANCH  33  39
ATOM     39  C13 non d ame     -11.065   6.025  69.144  0.00  0.00    -0.071 C 
ATOM     40  H16 non d ame     -10.986   5.009  68.759  0.00  0.00     0.028 H 
ATOM     41  H17 non d ame     -11.828   6.060  69.923  0.00  0.00     0.028 H 
ATOM     42  H18 non d ame     -11.341   6.700  68.335  0.00  0.00     0.028 H 
ENDBRANCH  33  39
ENDBRANCH   7  33
ENDBRANCH   4   7
ENDBRANCH   1   3
BRANCH   1  43
ATOM     43  C15 non d ame      -8.226  11.218  68.348  0.00  0.00     0.240 C 
ATOM     44  O5  non d ame      -7.630  11.107  67.326  0.00  0.00    -0.271 OA
ATOM     45  N6  non d ame      -9.364  12.177  68.442  0.00  0.00    -0.355 N 
ATOM     46  H46 non d ame      -9.880  12.277  69.303  0.00  0.00     0.162 HD
BRANCH  45  47
ATOM     47  C20 non d ame      -9.738  12.988  67.263  0.00  0.00     0.013 C 
ATOM     48  H30 non d ame      -9.252  12.555  66.389  0.00  0.00     0.072 H 
BRANCH  47  49
ATOM     49  C21 non d ame      -9.265  14.410  67.464  0.00  0.00    -0.038 C 
ATOM     50  H31 non d ame     -10.018  14.885  68.092  0.00  0.00     0.036 H 
ATOM     51  H32 non d ame      -8.235  14.331  67.812  0.00  0.00     0.036 H 
BRANCH  49  52
ATOM     52  C22 non d ame      -9.221  15.218  66.149  0.00  0.00     0.018 C 
ATOM     53  H33 non d ame      -8.225  15.660  66.106  0.00  0.00     0.048 H 
ATOM     54  H34 non d ame      -9.545  14.530  65.368  0.00  0.00     0.048 H 
BRANCH  52  55
ATOM     55  C23 non d ame     -10.219  16.409  66.111  0.00  0.00     0.259 C 
ATOM     56  O7  non d ame     -10.676  16.780  65.079  0.00  0.00    -0.265 OA
BRANCH  55  57
ATOM     57  O8  non d ame     -10.570  17.062  67.325  0.00  0.00    -0.317 OA
BRANCH  57  58
ATOM     58  C29 non d ame     -10.566  18.490  67.239  0.00  0.00     0.052 C 
ATOM     59  H47 non d ame     -10.765  18.723  66.194  0.00  0.00     0.082 H 
ATOM     60  H48 non d ame     -11.252  18.833  68.014  0.00  0.00     0.082 H 
BRANCH  58  61
ATOM     61  C35 non d ame      -9.139  18.987  67.592  0.00  0.00    -0.034 A 
ATOM     62  C30 non d ame      -8.383  18.315  68.547  0.00  0.00    -0.075 A 
ATOM     63  C31 non d ame      -7.101  18.761  68.863  0.00  0.00    -0.082 A 
ATOM     64  H49 non d ame      -8.795  17.437  69.046  0.00  0.00     0.084 H 
ATOM     65  C32 non d ame      -6.576  19.887  68.223  0.00  0.00    -0.083 A 
ATOM     66  H50 non d ame      -6.510  18.230  69.610  0.00  0.00     0.083 H 
ATOM     67  C33 non d ame      -7.336  20.557  67.273  0.00  0.00    -0.082 A 
ATOM     68  H51 non d ame      -5.574  20.242  68.464  0.00  0.00     0.083 H 
ATOM     69  C34 non d ame      -8.617  20.113  66.953  0.00  0.00    -0.075 A 
ATOM     70  H52 non d ame      -6.924  21.437  66.777  0.00  0.00     0.083 H 
ATOM     71  H53 non d ame      -9.207  20.644  66.204  0.00  0.00     0.084 H 
ENDBRANCH  58  61
ENDBRANCH  57  58
ENDBRANCH  55  57
ENDBRANCH  52  55
ENDBRANCH  49  52
ENDBRANCH  47  49
BRANCH  47  72
ATOM     72  C24 non d ame     -11.255  12.975  67.088  0.00  0.00    -0.039 C 
ATOM     73  H35 non d ame     -11.639  12.392  67.926  0.00  0.00     0.036 H 
ATOM     74  H36 non d ame     -11.544  14.020  66.975  0.00  0.00     0.036 H 
BRANCH  72  75
ATOM     75  C25 non d ame     -11.691  12.217  65.746  0.00  0.00    -0.001 C 
ATOM     76  C26 non d ame     -10.355  11.760  64.902  0.00  0.00    -0.035 C 
ATOM     77  C27 non d ame     -10.480  12.188  63.623  0.00  0.00     0.085 C 
ATOM     78  H38 non d ame      -9.481  12.298  65.266  0.00  0.00     0.036 H 
ATOM     79  H39 non d ame     -10.327  10.675  64.806  0.00  0.00     0.036 H 
ATOM     80  N5  non d ame     -11.623  13.175  63.597  0.00  0.00    -0.049 N 
ATOM     81  H40 non d ame      -9.551  12.714  63.399  0.00  0.00     0.075 H 
ATOM     82  H41 non d ame     -10.760  11.307  63.047  0.00  0.00     0.075 H 
ATOM     83  C28 non d ame     -12.413  12.977  64.991  0.00  0.00     0.193 C 
ATOM     84  H42 non d ame     -11.206  14.094  63.591  0.00  0.00     0.280 HD
ATOM     85  H43 non d ame     -12.230  12.891  62.842  0.00  0.00     0.280 HD
ATOM     86  H44 non d ame     -13.361  12.442  65.020  0.00  0.00     0.129 H 
ATOM     87  H37 non d ame     -12.446  11.452  65.930  0.00  0.00     0.046 H 
BRANCH  83  88
ATOM     88  O6  non d ame     -12.672  14.245  65.596  0.00  0.00    -0.369 OA
ATOM     89  H45 non d ame     -13.319  14.138  66.297  0.00  0.00     0.212 HD
ENDBRANCH  83  88
ENDBRANCH  72  75
ENDBRANCH  47  72
ENDBRANCH  45  47
ENDBRANCH   1  43
BRANCH   1  90
ATOM     90  C16 non d ame      -6.388   9.875  69.415  0.00  0.00    -0.035 C 
ATOM     91  H21 non d ame      -6.358   8.895  69.893  0.00  0.00     0.037 H 
ATOM     92  H22 non d ame      -6.170   9.970  68.352  0.00  0.00     0.037 H 
BRANCH  90  93
ATOM     93  C17 non d ame      -5.340  10.761  70.162  0.00  0.00    -0.059 C 
ATOM     94  H23 non d ame      -5.838  11.685  70.455  0.00  0.00     0.038 H 
BRANCH  93  95
ATOM     95  C18 non d ame      -4.806  10.075  71.459  0.00  0.00    -0.073 C 
ATOM     96  H24 non d ame      -3.755  10.328  71.597  0.00  0.00     0.028 H 
ATOM     97  H25 non d ame      -5.379  10.424  72.317  0.00  0.00     0.028 H 
ATOM     98  H26 non d ame      -4.910   8.994  71.368  0.00  0.00     0.028 H 
ENDBRANCH  93  95
BRANCH  93  99
ATOM     99  C19 non d ame      -4.185  11.143  69.232  0.00  0.00    -0.073 C 
ATOM    100  H27 non d ame      -4.082  12.228  69.209  0.00  0.00     0.028 H 
ATOM    101  H28 non d ame      -3.261  10.697  69.600  0.00  0.00     0.028 H 
ATOM    102  H29 non d ame      -4.390  10.775  68.227  0.00  0.00     0.028 H 
ENDBRANCH  93  99
ENDBRANCH  90  93
ENDBRANCH   1  90
TORSDOF 26
ENDMDL
MODEL 8
REMARK VINA RESULT:      -6.5      3.059      7.788
REMARK  26 active torsions:
REMARK  status: ('A' for Active; 'I' for Inactive)
REMARK    1  A    between atoms: C2_2  and  C3_3 
REMARK    2  A    between atoms: C4_6  and  C5_7 
REMARK       I    between atoms: C5_7  and  N2_9 
REMARK    3  A    between atoms: N2_9  and  C6_10 
REMARK    4  A    between atoms: C6_10  and  C7_11 
REMARK    5  A    between atoms: C6_10  and  C8_13 
REMARK       I    between atoms: C7_11  and  N3_14 
REMARK    6  A    between atoms: N3_14  and  C9_15 
REMARK    7  A    between atoms: C9_15  and  C10_16 
REMARK    8  A    between atoms: C9_15  and  C11_18 
REMARK       I    between atoms: C10_16  and  N4_21 
REMARK    9  A    between atoms: C11_18  and  C12_19 
REMARK   10  A    between atoms: C11_18  and  C13_20 
REMARK   11  A    between atoms: N4_21  and  C14_22 
REMARK   12  A    between atoms: C14_22  and  C15_23 
REMARK   13  A    between atoms: C14_22  and  C16_25 
REMARK       I    between atoms: C15_23  and  N6_40 
REMARK   14  A    between atoms: C16_25  and  C17_26 
REMARK   15  A    between atoms: C17_26  and  C18_27 
REMARK   16  A    between atoms: C17_26  and  C19_28 
REMARK   17  A    between atoms: C20_29  and  C21_30 
REMARK   18  A    between atoms: C20_29  and  C24_33 
REMARK   19  A    between atoms: C20_29  and  N6_40 
REMARK   20  A    between atoms: C21_30  and  C22_31 
REMARK   21  A    between atoms: C22_31  and  C23_32 
REMARK   22  A    between atoms: C23_32  and  O8_43 
REMARK   23  A    between atoms: C24_33  and  C25_34 
REMARK   24  A    between atoms: C28_38  and  O6_39 
REMARK   25  A    between atoms: C29_42  and  O8_43 
REMARK   26  A    between atoms: C29_42  and  C35_49 
ROOT
ATOM      1  C14 non d ame      -8.140   8.668  64.359  0.00  0.00     0.089 C 
ATOM      2  H20 non d ame      -7.058   8.534  64.372  0.00  0.00     0.087 H 
ENDROOT
BRANCH   1   3
ATOM      3  N4  non d ame      -8.737   7.475  64.939  0.00  0.00    -0.346 N 
ATOM      4  C10 non d ame      -7.900   6.242  65.175  0.00  0.00     0.241 C 
ATOM      5  O4  non d ame      -6.749   6.235  64.887  0.00  0.00    -0.271 OA
ATOM      6  H19 non d ame      -9.719   7.500  65.175  0.00  0.00     0.163 HD
BRANCH   4   7
ATOM      7  C9  non d ame      -8.533   5.017  65.782  0.00  0.00     0.092 C 
ATOM      8  H11 non d ame      -7.755   4.390  66.218  0.00  0.00     0.088 H 
BRANCH   7   9
ATOM      9  N3  non d ame      -9.428   5.418  66.872  0.00  0.00    -0.346 N 
ATOM     10  C7  non d ame      -9.026   5.223  68.243  0.00  0.00     0.240 C 
ATOM     11  O3  non d ame      -7.987   4.744  68.488  0.00  0.00    -0.271 OA
ATOM     12  H10 non d ame     -10.329   5.832  66.676  0.00  0.00     0.163 HD
BRANCH  10  13
ATOM     13  C6  non d ame      -9.985   5.649  69.398  0.00  0.00     0.086 C 
ATOM     14  H6  non d ame     -10.306   4.807  70.012  0.00  0.00     0.086 H 
BRANCH  13  15
ATOM     15  N2  non d ame      -9.280   6.563  70.282  0.00  0.00    -0.343 N 
ATOM     16  C5  non d ame      -9.257   6.300  71.723  0.00  0.00     0.273 C 
ATOM     17  O2  non d ame      -9.810   5.352  72.160  0.00  0.00    -0.266 OA
ATOM     18  H5  non d ame      -8.812   7.372  69.899  0.00  0.00     0.163 HD
BRANCH  16  19
ATOM     19  C4  non d ame      -8.515   7.257  72.668  0.00  0.00     0.154 A 
ATOM     20  C1  non d ame      -8.400   7.152  74.091  0.00  0.00    -0.017 A 
ATOM     21  C2  non d ame      -7.626   8.268  74.476  0.00  0.00     0.077 A 
ATOM     22  H1  non d ame      -8.815   6.382  74.743  0.00  0.00     0.091 H 
ATOM     23  O1  non d ame      -7.334   8.930  73.395  0.00  0.00    -0.218 OA
ATOM     24  N1  non d ame      -7.841   8.359  72.327  0.00  0.00    -0.123 NA
BRANCH  21  25
ATOM     25  C3  non d ame      -7.210   8.629  75.896  0.00  0.00    -0.029 C 
ATOM     26  H2  non d ame      -7.249   9.711  76.024  0.00  0.00     0.036 H 
ATOM     27  H3  non d ame      -7.887   8.155  76.606  0.00  0.00     0.036 H 
ATOM     28  H4  non d ame      -6.192   8.279  76.077  0.00  0.00     0.036 H 
ENDBRANCH  21  25
ENDBRANCH  16  19
ENDBRANCH  13  15
BRANCH  13  29
ATOM     29  C8  non d ame     -11.203   6.324  68.822  0.00  0.00    -0.049 C 
ATOM     30  H7  non d ame     -11.032   6.543  67.767  0.00  0.00     0.030 H 
ATOM     31  H8  non d ame     -12.066   5.666  68.921  0.00  0.00     0.030 H 
ATOM     32  H9  non d ame     -11.391   7.254  69.359  0.00  0.00     0.030 H 
ENDBRANCH  13  29
ENDBRANCH  10  13
ENDBRANCH   7   9
BRANCH   7  33
ATOM     33  C11 non d ame      -9.350   4.263  64.693  0.00  0.00    -0.033 C 
ATOM     34  H12 non d ame      -9.041   3.219  64.713  0.00  0.00     0.042 H 
BRANCH  33  35
ATOM     35  C12 non d ame     -10.880   4.305  65.000  0.00  0.00    -0.071 C 
ATOM     36  H13 non d ame     -11.266   5.302  64.787  0.00  0.00     0.028 H 
ATOM     37  H14 non d ame     -11.396   3.576  64.377  0.00  0.00     0.028 H 
ATOM     38  H15 non d ame     -11.045   4.069  66.050  0.00  0.00     0.028 H 
ENDBRANCH  33  35
BRANCH  33  39
ATOM     39  C13 non d ame      -9.044   4.831  63.270  0.00  0.00    -0.071 C 
ATOM     40  H16 non d ame      -9.877   5.450  62.938  0.00  0.00     0.028 H 
ATOM     41  H17 non d ame      -8.135   5.434  63.307  0.00  0.00     0.028 H 
ATOM     42  H18 non d ame      -8.903   4.006  62.571  0.00  0.00     0.028 H 
ENDBRANCH  33  39
ENDBRANCH   7  33
ENDBRANCH   4   7
ENDBRANCH   1   3
BRANCH   1  43
ATOM     43  C15 non d ame      -8.590   9.901  65.193  0.00  0.00     0.240 C 
ATOM     44  O5  non d ame      -7.796  10.729  65.500  0.00  0.00    -0.271 OA
ATOM     45  N6  non d ame     -10.016  10.055  65.600  0.00  0.00    -0.355 N 
ATOM     46  H46 non d ame     -10.701   9.361  65.341  0.00  0.00     0.162 HD
BRANCH  45  47
ATOM     47  C20 non d ame     -10.429  11.234  66.393  0.00  0.00     0.013 C 
ATOM     48  H30 non d ame      -9.527  11.718  66.769  0.00  0.00     0.072 H 
BRANCH  47  49
ATOM     49  C21 non d ame     -11.293  10.782  67.548  0.00  0.00    -0.038 C 
ATOM     50  H31 non d ame     -11.942  11.627  67.778  0.00  0.00     0.036 H 
ATOM     51  H32 non d ame     -11.725   9.830  67.239  0.00  0.00     0.036 H 
BRANCH  49  52
ATOM     52  C22 non d ame     -10.479  10.497  68.829  0.00  0.00     0.018 C 
ATOM     53  H33 non d ame      -9.846   9.641  68.593  0.00  0.00     0.048 H 
ATOM     54  H34 non d ame     -10.026  11.448  69.109  0.00  0.00     0.048 H 
BRANCH  52  55
ATOM     55  C23 non d ame     -11.349  10.064  70.042  0.00  0.00     0.259 C 
ATOM     56  O7  non d ame     -10.956   9.240  70.802  0.00  0.00    -0.265 OA
BRANCH  55  57
ATOM     57  O8  non d ame     -12.631  10.653  70.225  0.00  0.00    -0.317 OA
BRANCH  57  58
ATOM     58  C29 non d ame     -12.855  11.159  71.544  0.00  0.00     0.052 C 
ATOM     59  H47 non d ame     -13.821  10.762  71.853  0.00  0.00     0.082 H 
ATOM     60  H48 non d ame     -11.957  10.911  72.111  0.00  0.00     0.082 H 
BRANCH  58  61
ATOM     61  C35 non d ame     -12.965  12.704  71.451  0.00  0.00    -0.034 A 
ATOM     62  C30 non d ame     -13.784  13.400  72.334  0.00  0.00    -0.075 A 
ATOM     63  C31 non d ame     -13.883  14.788  72.250  0.00  0.00    -0.082 A 
ATOM     64  H49 non d ame     -14.348  12.857  73.093  0.00  0.00     0.084 H 
ATOM     65  C32 non d ame     -13.161  15.481  71.275  0.00  0.00    -0.083 A 
ATOM     66  H50 non d ame     -14.523  15.330  72.947  0.00  0.00     0.083 H 
ATOM     67  C33 non d ame     -12.347  14.782  70.393  0.00  0.00    -0.082 A 
ATOM     68  H51 non d ame     -13.231  16.566  71.203  0.00  0.00     0.083 H 
ATOM     69  C34 non d ame     -12.244  13.395  70.475  0.00  0.00    -0.075 A 
ATOM     70  H52 non d ame     -11.786  15.326  69.632  0.00  0.00     0.083 H 
ATOM     71  H53 non d ame     -11.601  12.854  69.779  0.00  0.00     0.084 H 
ENDBRANCH  58  61
ENDBRANCH  57  58
ENDBRANCH  55  57
ENDBRANCH  52  55
ENDBRANCH  49  52
ENDBRANCH  47  49
BRANCH  47  72
ATOM     72  C24 non d ame     -11.219  12.197  65.510  0.00  0.00    -0.039 C 
ATOM     73  H35 non d ame     -11.137  11.798  64.499  0.00  0.00     0.036 H 
ATOM     74  H36 non d ame     -12.198  12.286  65.982  0.00  0.00     0.036 H 
BRANCH  72  75
ATOM     75  C25 non d ame     -10.567  13.660  65.496  0.00  0.00    -0.001 C 
ATOM     76  C26 non d ame      -9.430  13.778  66.678  0.00  0.00    -0.035 C 
ATOM     77  C27 non d ame      -9.681  14.886  67.416  0.00  0.00     0.085 C 
ATOM     78  H38 non d ame      -9.548  12.964  67.393  0.00  0.00     0.036 H 
ATOM     79  H39 non d ame      -8.453  13.980  66.240  0.00  0.00     0.036 H 
ATOM     80  N5  non d ame     -11.070  15.354  67.050  0.00  0.00    -0.049 N 
ATOM     81  H40 non d ame      -9.681  14.552  68.454  0.00  0.00     0.075 H 
ATOM     82  H41 non d ame      -8.957  15.628  67.082  0.00  0.00     0.075 H 
ATOM     83  C28 non d ame     -11.459  14.573  65.692  0.00  0.00     0.193 C 
ATOM     84  H42 non d ame     -11.681  15.039  67.789  0.00  0.00     0.280 HD
ATOM     85  H43 non d ame     -10.994  16.340  66.843  0.00  0.00     0.280 HD
ATOM     86  H44 non d ame     -11.433  15.086  64.731  0.00  0.00     0.129 H 
ATOM     87  H37 non d ame     -10.273  13.971  64.493  0.00  0.00     0.046 H 
BRANCH  83  88
ATOM     88  O6  non d ame     -12.775  14.026  65.797  0.00  0.00    -0.369 OA
ATOM     89  H45 non d ame     -12.849  13.261  65.221  0.00  0.00     0.212 HD
ENDBRANCH  83  88
ENDBRANCH  72  75
ENDBRANCH  47  72
ENDBRANCH  45  47
ENDBRANCH   1  43
BRANCH   1  90
ATOM     90  C16 non d ame      -8.623   8.817  62.925  0.00  0.00    -0.035 C 
ATOM     91  H21 non d ame      -8.878   7.807  62.600  0.00  0.00     0.037 H 
ATOM     92  H22 non d ame      -9.391   9.589  62.957  0.00  0.00     0.037 H 
BRANCH  90  93
ATOM     93  C17 non d ame      -7.522   9.331  61.943  0.00  0.00    -0.059 C 
ATOM     94  H23 non d ame      -7.586   8.734  61.034  0.00  0.00     0.038 H 
BRANCH  93  95
ATOM     95  C18 non d ame      -7.737  10.827  61.547  0.00  0.00    -0.073 C 
ATOM     96  H24 non d ame      -8.739  10.953  61.137  0.00  0.00     0.028 H 
ATOM     97  H25 non d ame      -7.623  11.456  62.430  0.00  0.00     0.028 H 
ATOM     98  H26 non d ame      -6.998  11.114  60.798  0.00  0.00     0.028 H 
ENDBRANCH  93  95
BRANCH  93  99
ATOM     99  C19 non d ame      -6.123   9.118  62.528  0.00  0.00    -0.073 C 
ATOM    100  H27 non d ame      -5.797  10.030  63.030  0.00  0.00     0.028 H 
ATOM    101  H28 non d ame      -6.152   8.298  63.246  0.00  0.00     0.028 H 
ATOM    102  H29 non d ame      -5.427   8.874  61.727  0.00  0.00     0.028 H 
ENDBRANCH  93  99
ENDBRANCH  90  93
ENDBRANCH   1  90
TORSDOF 26
ENDMDL
MODEL 9
REMARK VINA RESULT:      -6.3      1.879      2.401
REMARK  26 active torsions:
REMARK  status: ('A' for Active; 'I' for Inactive)
REMARK    1  A    between atoms: C2_2  and  C3_3 
REMARK    2  A    between atoms: C4_6  and  C5_7 
REMARK       I    between atoms: C5_7  and  N2_9 
REMARK    3  A    between atoms: N2_9  and  C6_10 
REMARK    4  A    between atoms: C6_10  and  C7_11 
REMARK    5  A    between atoms: C6_10  and  C8_13 
REMARK       I    between atoms: C7_11  and  N3_14 
REMARK    6  A    between atoms: N3_14  and  C9_15 
REMARK    7  A    between atoms: C9_15  and  C10_16 
REMARK    8  A    between atoms: C9_15  and  C11_18 
REMARK       I    between atoms: C10_16  and  N4_21 
REMARK    9  A    between atoms: C11_18  and  C12_19 
REMARK   10  A    between atoms: C11_18  and  C13_20 
REMARK   11  A    between atoms: N4_21  and  C14_22 
REMARK   12  A    between atoms: C14_22  and  C15_23 
REMARK   13  A    between atoms: C14_22  and  C16_25 
REMARK       I    between atoms: C15_23  and  N6_40 
REMARK   14  A    between atoms: C16_25  and  C17_26 
REMARK   15  A    between atoms: C17_26  and  C18_27 
REMARK   16  A    between atoms: C17_26  and  C19_28 
REMARK   17  A    between atoms: C20_29  and  C21_30 
REMARK   18  A    between atoms: C20_29  and  C24_33 
REMARK   19  A    between atoms: C20_29  and  N6_40 
REMARK   20  A    between atoms: C21_30  and  C22_31 
REMARK   21  A    between atoms: C22_31  and  C23_32 
REMARK   22  A    between atoms: C23_32  and  O8_43 
REMARK   23  A    between atoms: C24_33  and  C25_34 
REMARK   24  A    between atoms: C28_38  and  O6_39 
REMARK   25  A    between atoms: C29_42  and  O8_43 
REMARK   26  A    between atoms: C29_42  and  C35_49 
ROOT
ATOM      1  C14 non d ame     -10.799   9.007  69.499  0.00  0.00     0.089 C 
ATOM      2  H20 non d ame     -11.668   8.353  69.578  0.00  0.00     0.087 H 
ENDROOT
BRANCH   1   3
ATOM      3  N4  non d ame      -9.734   8.247  68.861  0.00  0.00    -0.346 N 
ATOM      4  C10 non d ame      -9.798   6.740  68.812  0.00  0.00     0.241 C 
ATOM      5  O4  non d ame     -10.715   6.163  69.296  0.00  0.00    -0.271 OA
ATOM      6  H19 non d ame      -8.961   8.757  68.458  0.00  0.00     0.163 HD
BRANCH   4   7
ATOM      7  C9  non d ame      -8.690   5.969  68.144  0.00  0.00     0.092 C 
ATOM      8  H11 non d ame      -9.120   5.149  67.569  0.00  0.00     0.088 H 
BRANCH   7   9
ATOM      9  N3  non d ame      -7.989   6.842  67.196  0.00  0.00    -0.346 N 
ATOM     10  C7  non d ame      -7.693   6.371  65.867  0.00  0.00     0.240 C 
ATOM     11  O3  non d ame      -8.009   5.292  65.541  0.00  0.00    -0.271 OA
ATOM     12  H10 non d ame      -7.709   7.775  67.463  0.00  0.00     0.163 HD
BRANCH  10  13
ATOM     13  C6  non d ame      -6.944   7.303  64.864  0.00  0.00     0.086 C 
ATOM     14  H6  non d ame      -6.921   6.902  63.851  0.00  0.00     0.086 H 
BRANCH  13  15
ATOM     15  N2  non d ame      -7.645   8.575  64.791  0.00  0.00    -0.343 N 
ATOM     16  C5  non d ame      -8.506   8.860  63.641  0.00  0.00     0.273 C 
ATOM     17  O2  non d ame      -8.626   8.061  62.779  0.00  0.00    -0.266 OA
ATOM     18  H5  non d ame      -7.534   9.254  65.531  0.00  0.00     0.163 HD
BRANCH  16  19
ATOM     19  C4  non d ame      -9.253  10.200  63.551  0.00  0.00     0.154 A 
ATOM     20  C1  non d ame     -10.184  10.736  64.497  0.00  0.00    -0.017 A 
ATOM     21  C2  non d ame     -10.579  11.978  63.953  0.00  0.00     0.077 A 
ATOM     22  H1  non d ame     -10.521  10.291  65.433  0.00  0.00     0.091 H 
ATOM     23  O1  non d ame      -9.941  12.130  62.830  0.00  0.00    -0.218 OA
ATOM     24  N1  non d ame      -9.161  11.105  62.573  0.00  0.00    -0.123 NA
BRANCH  21  25
ATOM     25  C3  non d ame     -11.566  12.959  64.571  0.00  0.00    -0.029 C 
ATOM     26  H2  non d ame     -11.591  12.818  65.652  0.00  0.00     0.036 H 
ATOM     27  H3  non d ame     -11.255  13.979  64.346  0.00  0.00     0.036 H 
ATOM     28  H4  non d ame     -12.561  12.783  64.159  0.00  0.00     0.036 H 
ENDBRANCH  21  25
ENDBRANCH  16  19
ENDBRANCH  13  15
BRANCH  13  29
ATOM     29  C8  non d ame      -5.529   7.520  65.335  0.00  0.00    -0.049 C 
ATOM     30  H7  non d ame      -5.194   8.513  65.033  0.00  0.00     0.030 H 
ATOM     31  H8  non d ame      -5.490   7.438  66.421  0.00  0.00     0.030 H 
ATOM     32  H9  non d ame      -4.879   6.767  64.889  0.00  0.00     0.030 H 
ENDBRANCH  13  29
ENDBRANCH  10  13
ENDBRANCH   7   9
BRANCH   7  33
ATOM     33  C11 non d ame      -7.686   5.465  69.222  0.00  0.00    -0.033 C 
ATOM     34  H12 non d ame      -8.256   5.233  70.120  0.00  0.00     0.042 H 
BRANCH  33  35
ATOM     35  C12 non d ame      -6.973   4.154  68.765  0.00  0.00    -0.071 C 
ATOM     36  H13 non d ame      -5.970   4.391  68.410  0.00  0.00     0.028 H 
ATOM     37  H14 non d ame      -6.907   3.465  69.606  0.00  0.00     0.028 H 
ATOM     38  H15 non d ame      -7.544   3.693  67.960  0.00  0.00     0.028 H 
ENDBRANCH  33  35
BRANCH  33  39
ATOM     39  C13 non d ame      -6.649   6.577  69.582  0.00  0.00    -0.071 C 
ATOM     40  H16 non d ame      -7.168   7.432  70.014  0.00  0.00     0.028 H 
ATOM     41  H17 non d ame      -5.932   6.184  70.305  0.00  0.00     0.028 H 
ATOM     42  H18 non d ame      -6.121   6.888  68.681  0.00  0.00     0.028 H 
ENDBRANCH  33  39
ENDBRANCH   7  33
ENDBRANCH   4   7
ENDBRANCH   1   3
BRANCH   1  43
ATOM     43  C15 non d ame     -11.089  10.269  68.638  0.00  0.00     0.240 C 
ATOM     44  O5  non d ame     -11.567  10.150  67.556  0.00  0.00    -0.271 OA
ATOM     45  N6  non d ame     -10.779  11.629  69.165  0.00  0.00    -0.355 N 
ATOM     46  H46 non d ame     -10.377  11.743  70.084  0.00  0.00     0.162 HD
BRANCH  45  47
ATOM     47  C20 non d ame     -11.061  12.819  68.334  0.00  0.00     0.013 C 
ATOM     48  H30 non d ame     -11.278  12.478  67.322  0.00  0.00     0.072 H 
BRANCH  47  49
ATOM     49  C21 non d ame      -9.850  13.723  68.326  0.00  0.00    -0.038 C 
ATOM     50  H31 non d ame      -9.956  14.351  67.442  0.00  0.00     0.036 H 
ATOM     51  H32 non d ame      -9.815  14.177  69.317  0.00  0.00     0.036 H 
BRANCH  49  52
ATOM     52  C22 non d ame      -8.525  12.948  68.155  0.00  0.00     0.018 C 
ATOM     53  H33 non d ame      -8.475  12.257  68.996  0.00  0.00     0.048 H 
ATOM     54  H34 non d ame      -8.538  12.564  67.135  0.00  0.00     0.048 H 
BRANCH  52  55
ATOM     55  C23 non d ame      -7.258  13.842  68.260  0.00  0.00     0.259 C 
ATOM     56  O7  non d ame      -6.293  13.454  68.836  0.00  0.00    -0.265 OA
BRANCH  55  57
ATOM     57  O8  non d ame      -7.268  15.137  67.672  0.00  0.00    -0.317 OA
BRANCH  57  58
ATOM     58  C29 non d ame      -6.817  16.176  68.546  0.00  0.00     0.052 C 
ATOM     59  H47 non d ame      -6.871  15.760  69.551  0.00  0.00     0.082 H 
ATOM     60  H48 non d ame      -5.859  16.504  68.144  0.00  0.00     0.082 H 
BRANCH  58  61
ATOM     61  C35 non d ame      -7.821  17.355  68.446  0.00  0.00    -0.034 A 
ATOM     62  C30 non d ame      -7.356  18.664  68.379  0.00  0.00    -0.075 A 
ATOM     63  C31 non d ame      -8.259  19.722  68.289  0.00  0.00    -0.082 A 
ATOM     64  H49 non d ame      -6.284  18.860  68.396  0.00  0.00     0.084 H 
ATOM     65  C32 non d ame      -9.632  19.468  68.271  0.00  0.00    -0.083 A 
ATOM     66  H50 non d ame      -7.890  20.747  68.234  0.00  0.00     0.083 H 
ATOM     67  C33 non d ame     -10.093  18.160  68.342  0.00  0.00    -0.082 A 
ATOM     68  H51 non d ame     -10.345  20.290  68.200  0.00  0.00     0.083 H 
ATOM     69  C34 non d ame      -9.194  17.099  68.429  0.00  0.00    -0.075 A 
ATOM     70  H52 non d ame     -11.166  17.965  68.329  0.00  0.00     0.083 H 
ATOM     71  H53 non d ame      -9.564  16.074  68.484  0.00  0.00     0.084 H 
ENDBRANCH  58  61
ENDBRANCH  57  58
ENDBRANCH  55  57
ENDBRANCH  52  55
ENDBRANCH  49  52
ENDBRANCH  47  49
BRANCH  47  72
ATOM     72  C24 non d ame     -12.259  13.575  68.907  0.00  0.00    -0.039 C 
ATOM     73  H35 non d ame     -12.369  14.460  68.279  0.00  0.00     0.036 H 
ATOM     74  H36 non d ame     -13.065  12.843  68.962  0.00  0.00     0.036 H 
BRANCH  72  75
ATOM     75  C25 non d ame     -11.980  14.086  70.399  0.00  0.00    -0.001 C 
ATOM     76  C26 non d ame     -12.914  13.246  71.461  0.00  0.00    -0.035 C 
ATOM     77  C27 non d ame     -13.573  14.126  72.252  0.00  0.00     0.085 C 
ATOM     78  H38 non d ame     -13.714  12.732  70.930  0.00  0.00     0.036 H 
ATOM     79  H39 non d ame     -12.284  12.697  72.161  0.00  0.00     0.036 H 
ATOM     80  N5  non d ame     -13.428  15.487  71.615  0.00  0.00    -0.049 N 
ATOM     81  H40 non d ame     -14.621  13.825  72.213  0.00  0.00     0.075 H 
ATOM     82  H41 non d ame     -13.040  14.120  73.202  0.00  0.00     0.075 H 
ATOM     83  C28 non d ame     -12.248  15.343  70.522  0.00  0.00     0.193 C 
ATOM     84  H42 non d ame     -14.294  15.670  71.131  0.00  0.00     0.280 HD
ATOM     85  H43 non d ame     -13.115  16.112  72.344  0.00  0.00     0.280 HD
ATOM     86  H44 non d ame     -11.254  15.739  70.724  0.00  0.00     0.129 H 
ATOM     87  H37 non d ame     -10.915  14.151  70.620  0.00  0.00     0.046 H 
BRANCH  83  88
ATOM     88  O6  non d ame     -12.649  15.931  69.283  0.00  0.00    -0.369 OA
ATOM     89  H45 non d ame     -12.168  15.517  68.563  0.00  0.00     0.212 HD
ENDBRANCH  83  88
ENDBRANCH  72  75
ENDBRANCH  47  72
ENDBRANCH  45  47
ENDBRANCH   1  43
BRANCH   1  90
ATOM     90  C16 non d ame     -10.344   9.429  70.887  0.00  0.00    -0.035 C 
ATOM     91  H21 non d ame      -9.331   9.036  70.991  0.00  0.00     0.037 H 
ATOM     92  H22 non d ame     -10.519  10.503  70.934  0.00  0.00     0.037 H 
BRANCH  90  93
ATOM     93  C17 non d ame     -11.183   8.794  72.041  0.00  0.00    -0.059 C 
ATOM     94  H23 non d ame     -11.164   9.486  72.882  0.00  0.00     0.038 H 
BRANCH  93  95
ATOM     95  C18 non d ame     -12.676   8.577  71.635  0.00  0.00    -0.073 C 
ATOM     96  H24 non d ame     -13.242   9.487  71.835  0.00  0.00     0.028 H 
ATOM     97  H25 non d ame     -12.732   8.340  70.573  0.00  0.00     0.028 H 
ATOM     98  H26 non d ame     -13.094   7.754  72.214  0.00  0.00     0.028 H 
ENDBRANCH  93  95
BRANCH  93  99
ATOM     99  C19 non d ame     -10.553   7.482  72.518  0.00  0.00    -0.073 C 
ATOM    100  H27 non d ame     -10.613   7.425  73.606  0.00  0.00     0.028 H 
ATOM    101  H28 non d ame     -11.090   6.641  72.079  0.00  0.00     0.028 H 
ATOM    102  H29 non d ame      -9.508   7.447  72.209  0.00  0.00     0.028 H 
ENDBRANCH  93  99
ENDBRANCH  90  93
ENDBRANCH   1  90
TORSDOF 26
ENDMDL
MODEL 10
REMARK VINA RESULT:      -6.3      3.738      8.895
REMARK  26 active torsions:
REMARK  status: ('A' for Active; 'I' for Inactive)
REMARK    1  A    between atoms: C2_2  and  C3_3 
REMARK    2  A    between atoms: C4_6  and  C5_7 
REMARK       I    between atoms: C5_7  and  N2_9 
REMARK    3  A    between atoms: N2_9  and  C6_10 
REMARK    4  A    between atoms: C6_10  and  C7_11 
REMARK    5  A    between atoms: C6_10  and  C8_13 
REMARK       I    between atoms: C7_11  and  N3_14 
REMARK    6  A    between atoms: N3_14  and  C9_15 
REMARK    7  A    between atoms: C9_15  and  C10_16 
REMARK    8  A    between atoms: C9_15  and  C11_18 
REMARK       I    between atoms: C10_16  and  N4_21 
REMARK    9  A    between atoms: C11_18  and  C12_19 
REMARK   10  A    between atoms: C11_18  and  C13_20 
REMARK   11  A    between atoms: N4_21  and  C14_22 
REMARK   12  A    between atoms: C14_22  and  C15_23 
REMARK   13  A    between atoms: C14_22  and  C16_25 
REMARK       I    between atoms: C15_23  and  N6_40 
REMARK   14  A    between atoms: C16_25  and  C17_26 
REMARK   15  A    between atoms: C17_26  and  C18_27 
REMARK   16  A    between atoms: C17_26  and  C19_28 
REMARK   17  A    between atoms: C20_29  and  C21_30 
REMARK   18  A    between atoms: C20_29  and  C24_33 
REMARK   19  A    between atoms: C20_29  and  N6_40 
REMARK   20  A    between atoms: C21_30  and  C22_31 
REMARK   21  A    between atoms: C22_31  and  C23_32 
REMARK   22  A    between atoms: C23_32  and  O8_43 
REMARK   23  A    between atoms: C24_33  and  C25_34 
REMARK   24  A    between atoms: C28_38  and  O6_39 
REMARK   25  A    between atoms: C29_42  and  O8_43 
REMARK   26  A    between atoms: C29_42  and  C35_49 
ROOT
ATOM      1  C14 non d ame      -6.178  10.007  65.396  0.00  0.00     0.089 C 
ATOM      2  H20 non d ame      -5.283  10.550  65.702  0.00  0.00     0.087 H 
ENDROOT
BRANCH   1   3
ATOM      3  N4  non d ame      -5.988   8.611  65.758  0.00  0.00    -0.346 N 
ATOM      4  C10 non d ame      -4.812   8.196  66.606  0.00  0.00     0.241 C 
ATOM      5  O4  non d ame      -4.029   9.005  66.983  0.00  0.00    -0.271 OA
ATOM      6  H19 non d ame      -6.663   7.937  65.425  0.00  0.00     0.163 HD
BRANCH   4   7
ATOM      7  C9  non d ame      -4.633   6.747  66.975  0.00  0.00     0.092 C 
ATOM      8  H11 non d ame      -3.584   6.474  66.864  0.00  0.00     0.088 H 
BRANCH   7   9
ATOM      9  N3  non d ame      -4.982   6.555  68.387  0.00  0.00    -0.346 N 
ATOM     10  C7  non d ame      -6.146   7.204  68.935  0.00  0.00     0.240 C 
ATOM     11  O3  non d ame      -6.814   7.885  68.257  0.00  0.00    -0.271 OA
ATOM     12  H10 non d ame      -4.415   5.971  68.985  0.00  0.00     0.163 HD
BRANCH  10  13
ATOM     13  C6  non d ame      -6.510   6.999  70.439  0.00  0.00     0.086 C 
ATOM     14  H6  non d ame      -5.987   7.691  71.099  0.00  0.00     0.086 H 
BRANCH  13  15
ATOM     15  N2  non d ame      -7.932   7.248  70.618  0.00  0.00    -0.343 N 
ATOM     16  C5  non d ame      -8.371   8.266  71.575  0.00  0.00     0.273 C 
ATOM     17  O2  non d ame      -7.574   8.876  72.198  0.00  0.00    -0.266 OA
ATOM     18  H5  non d ame      -8.606   6.720  70.083  0.00  0.00     0.163 HD
BRANCH  16  19
ATOM     19  C4  non d ame      -9.870   8.540  71.773  0.00  0.00     0.154 A 
ATOM     20  C1  non d ame     -10.672   9.501  71.080  0.00  0.00    -0.017 A 
ATOM     21  C2  non d ame     -11.967   9.355  71.626  0.00  0.00     0.077 A 
ATOM     22  H1  non d ame     -10.363  10.197  70.299  0.00  0.00     0.091 H 
ATOM     23  O1  non d ame     -11.905   8.417  72.524  0.00  0.00    -0.218 OA
ATOM     24  N1  non d ame     -10.691   7.926  72.629  0.00  0.00    -0.123 NA
BRANCH  21  25
ATOM     25  C3  non d ame     -13.206  10.149  71.232  0.00  0.00    -0.029 C 
ATOM     26  H2  non d ame     -14.063   9.479  71.171  0.00  0.00     0.036 H 
ATOM     27  H3  non d ame     -13.398  10.918  71.980  0.00  0.00     0.036 H 
ATOM     28  H4  non d ame     -13.043  10.619  70.261  0.00  0.00     0.036 H 
ENDBRANCH  21  25
ENDBRANCH  16  19
ENDBRANCH  13  15
BRANCH  13  29
ATOM     29  C8  non d ame      -6.178   5.588  70.851  0.00  0.00    -0.049 C 
ATOM     30  H7  non d ame      -5.098   5.442  70.809  0.00  0.00     0.030 H 
ATOM     31  H8  non d ame      -6.529   5.413  71.868  0.00  0.00     0.030 H 
ATOM     32  H9  non d ame      -6.665   4.887  70.173  0.00  0.00     0.030 H 
ENDBRANCH  13  29
ENDBRANCH  10  13
ENDBRANCH   7   9
BRANCH   7  33
ATOM     33  C11 non d ame      -5.563   5.868  66.089  0.00  0.00    -0.033 C 
ATOM     34  H12 non d ame      -6.488   6.421  65.933  0.00  0.00     0.042 H 
BRANCH  33  35
ATOM     35  C12 non d ame      -4.931   5.605  64.687  0.00  0.00    -0.071 C 
ATOM     36  H13 non d ame      -5.426   4.755  64.218  0.00  0.00     0.028 H 
ATOM     37  H14 non d ame      -5.056   6.488  64.061  0.00  0.00     0.028 H 
ATOM     38  H15 non d ame      -3.870   5.389  64.803  0.00  0.00     0.028 H 
ENDBRANCH  33  35
BRANCH  33  39
ATOM     39  C13 non d ame      -5.918   4.527  66.809  0.00  0.00    -0.071 C 
ATOM     40  H16 non d ame      -5.250   3.740  66.461  0.00  0.00     0.028 H 
ATOM     41  H17 non d ame      -5.802   4.651  67.887  0.00  0.00     0.028 H 
ATOM     42  H18 non d ame      -6.949   4.255  66.585  0.00  0.00     0.028 H 
ENDBRANCH  33  39
ENDBRANCH   7  33
ENDBRANCH   4   7
ENDBRANCH   1   3
BRANCH   1  43
ATOM     43  C15 non d ame      -7.456  10.533  66.108  0.00  0.00     0.240 C 
ATOM     44  O5  non d ame      -7.370  11.402  66.914  0.00  0.00    -0.271 OA
ATOM     45  N6  non d ame      -8.793   9.958  65.779  0.00  0.00    -0.355 N 
ATOM     46  H46 non d ame      -8.879   9.223  65.093  0.00  0.00     0.162 HD
BRANCH  45  47
ATOM     47  C20 non d ame      -9.999  10.469  66.464  0.00  0.00     0.013 C 
ATOM     48  H30 non d ame      -9.690  11.274  67.132  0.00  0.00     0.072 H 
BRANCH  47  49
ATOM     49  C21 non d ame     -10.633   9.352  67.261  0.00  0.00    -0.038 C 
ATOM     50  H31 non d ame     -10.083   9.312  68.201  0.00  0.00     0.036 H 
ATOM     51  H32 non d ame     -11.703   9.562  67.263  0.00  0.00     0.036 H 
BRANCH  49  52
ATOM     52  C22 non d ame     -10.461   7.969  66.595  0.00  0.00     0.018 C 
ATOM     53  H33 non d ame     -11.461   7.663  66.288  0.00  0.00     0.048 H 
ATOM     54  H34 non d ame      -9.678   8.096  65.848  0.00  0.00     0.048 H 
BRANCH  52  55
ATOM     55  C23 non d ame      -9.955   6.865  67.564  0.00  0.00     0.259 C 
ATOM     56  O7  non d ame     -10.269   6.879  68.710  0.00  0.00    -0.265 OA
BRANCH  55  57
ATOM     57  O8  non d ame      -9.098   5.843  67.070  0.00  0.00    -0.317 OA
BRANCH  57  58
ATOM     58  C29 non d ame      -9.781   4.646  66.686  0.00  0.00     0.052 C 
ATOM     59  H47 non d ame      -9.225   3.830  67.144  0.00  0.00     0.082 H 
ATOM     60  H48 non d ame     -10.827   4.808  66.948  0.00  0.00     0.082 H 
BRANCH  58  61
ATOM     61  C35 non d ame      -9.677   4.510  65.144  0.00  0.00    -0.034 A 
ATOM     62  C30 non d ame     -10.579   3.708  64.452  0.00  0.00    -0.075 A 
ATOM     63  C31 non d ame     -10.485   3.586  63.066  0.00  0.00    -0.082 A 
ATOM     64  H49 non d ame     -11.361   3.177  64.995  0.00  0.00     0.084 H 
ATOM     65  C32 non d ame      -9.480   4.266  62.373  0.00  0.00    -0.083 A 
ATOM     66  H50 non d ame     -11.196   2.959  62.527  0.00  0.00     0.083 H 
ATOM     67  C33 non d ame      -8.579   5.062  63.067  0.00  0.00    -0.082 A 
ATOM     68  H51 non d ame      -9.400   4.176  61.289  0.00  0.00     0.083 H 
ATOM     69  C34 non d ame      -8.672   5.189  64.452  0.00  0.00    -0.075 A 
ATOM     70  H52 non d ame      -7.796   5.590  62.523  0.00  0.00     0.083 H 
ATOM     71  H53 non d ame      -7.961   5.817  64.990  0.00  0.00     0.084 H 
ENDBRANCH  58  61
ENDBRANCH  57  58
ENDBRANCH  55  57
ENDBRANCH  52  55
ENDBRANCH  49  52
ENDBRANCH  47  49
BRANCH  47  72
ATOM     72  C24 non d ame     -10.997  10.991  65.432  0.00  0.00    -0.039 C 
ATOM     73  H35 non d ame     -10.969  10.271  64.613  0.00  0.00     0.036 H 
ATOM     74  H36 non d ame     -11.924  11.154  65.982  0.00  0.00     0.036 H 
BRANCH  72  75
ATOM     75  C25 non d ame     -10.547  12.406  64.833  0.00  0.00    -0.001 C 
ATOM     76  C26 non d ame     -11.157  13.623  65.755  0.00  0.00    -0.035 C 
ATOM     77  C27 non d ame     -11.792  14.506  64.947  0.00  0.00     0.085 C 
ATOM     78  H38 non d ame     -11.953  13.245  66.396  0.00  0.00     0.036 H 
ATOM     79  H39 non d ame     -10.345  14.211  66.184  0.00  0.00     0.036 H 
ATOM     80  N5  non d ame     -11.955  13.836  63.604  0.00  0.00    -0.049 N 
ATOM     81  H40 non d ame     -12.777  14.651  65.393  0.00  0.00     0.075 H 
ATOM     82  H41 non d ame     -11.111  15.349  64.844  0.00  0.00     0.075 H 
ATOM     83  C28 non d ame     -10.968  12.558  63.622  0.00  0.00     0.193 C 
ATOM     84  H42 non d ame     -12.908  13.506  63.562  0.00  0.00     0.280 HD
ATOM     85  H43 non d ame     -11.616  14.492  62.914  0.00  0.00     0.280 HD
ATOM     86  H44 non d ame     -10.022  12.581  63.084  0.00  0.00     0.129 H 
ATOM     87  H37 non d ame      -9.480  12.439  64.611  0.00  0.00     0.046 H 
BRANCH  83  88
ATOM     88  O6  non d ame     -11.653  11.400  63.142  0.00  0.00    -0.369 OA
ATOM     89  H45 non d ame     -12.589  11.477  63.340  0.00  0.00     0.212 HD
ENDBRANCH  83  88
ENDBRANCH  72  75
ENDBRANCH  47  72
ENDBRANCH  45  47
ENDBRANCH   1  43
BRANCH   1  90
ATOM     90  C16 non d ame      -6.353  10.110  63.890  0.00  0.00    -0.035 C 
ATOM     91  H21 non d ame      -7.351  10.526  63.743  0.00  0.00     0.037 H 
ATOM     92  H22 non d ame      -5.478  10.655  63.534  0.00  0.00     0.037 H 
BRANCH  90  93
ATOM     93  C17 non d ame      -6.339   8.729  63.161  0.00  0.00    -0.059 C 
ATOM     94  H23 non d ame      -6.446   7.954  63.920  0.00  0.00     0.038 H 
BRANCH  93  95
ATOM     95  C18 non d ame      -7.528   8.580  62.158  0.00  0.00    -0.073 C 
ATOM     96  H24 non d ame      -7.308   9.139  61.249  0.00  0.00     0.028 H 
ATOM     97  H25 non d ame      -7.666   7.527  61.913  0.00  0.00     0.028 H 
ATOM     98  H26 non d ame      -8.438   8.969  62.614  0.00  0.00     0.028 H 
ENDBRANCH  93  95
BRANCH  93  99
ATOM     99  C19 non d ame      -5.000   8.494  62.457  0.00  0.00    -0.073 C 
ATOM    100  H27 non d ame      -4.287   9.259  62.769  0.00  0.00     0.028 H 
ATOM    101  H28 non d ame      -4.618   7.509  62.725  0.00  0.00     0.028 H 
ATOM    102  H29 non d ame      -5.142   8.547  61.378  0.00  0.00     0.028 H 
ENDBRANCH  93  99
ENDBRANCH  90  93
ENDBRANCH   1  90
TORSDOF 26
ENDMDL
MODEL 11
REMARK VINA RESULT:      -6.3      2.877      5.581
REMARK  26 active torsions:
REMARK  status: ('A' for Active; 'I' for Inactive)
REMARK    1  A    between atoms: C2_2  and  C3_3 
REMARK    2  A    between atoms: C4_6  and  C5_7 
REMARK       I    between atoms: C5_7  and  N2_9 
REMARK    3  A    between atoms: N2_9  and  C6_10 
REMARK    4  A    between atoms: C6_10  and  C7_11 
REMARK    5  A    between atoms: C6_10  and  C8_13 
REMARK       I    between atoms: C7_11  and  N3_14 
REMARK    6  A    between atoms: N3_14  and  C9_15 
REMARK    7  A    between atoms: C9_15  and  C10_16 
REMARK    8  A    between atoms: C9_15  and  C11_18 
REMARK       I    between atoms: C10_16  and  N4_21 
REMARK    9  A    between atoms: C11_18  and  C12_19 
REMARK   10  A    between atoms: C11_18  and  C13_20 
REMARK   11  A    between atoms: N4_21  and  C14_22 
REMARK   12  A    between atoms: C14_22  and  C15_23 
REMARK   13  A    between atoms: C14_22  and  C16_25 
REMARK       I    between atoms: C15_23  and  N6_40 
REMARK   14  A    between atoms: C16_25  and  C17_26 
REMARK   15  A    between atoms: C17_26  and  C18_27 
REMARK   16  A    between atoms: C17_26  and  C19_28 
REMARK   17  A    between atoms: C20_29  and  C21_30 
REMARK   18  A    between atoms: C20_29  and  C24_33 
REMARK   19  A    between atoms: C20_29  and  N6_40 
REMARK   20  A    between atoms: C21_30  and  C22_31 
REMARK   21  A    between atoms: C22_31  and  C23_32 
REMARK   22  A    between atoms: C23_32  and  O8_43 
REMARK   23  A    between atoms: C24_33  and  C25_34 
REMARK   24  A    between atoms: C28_38  and  O6_39 
REMARK   25  A    between atoms: C29_42  and  O8_43 
REMARK   26  A    between atoms: C29_42  and  C35_49 
ROOT
ATOM      1  C14 non d ame     -11.223   7.951  70.098  0.00  0.00     0.089 C 
ATOM      2  H20 non d ame     -12.214   7.680  69.731  0.00  0.00     0.087 H 
ENDROOT
BRANCH   1   3
ATOM      3  N4  non d ame     -10.328   6.844  69.798  0.00  0.00    -0.346 N 
ATOM      4  C10 non d ame     -10.398   6.147  68.461  0.00  0.00     0.241 C 
ATOM      5  O4  non d ame     -11.187   6.495  67.645  0.00  0.00    -0.271 OA
ATOM      6  H19 non d ame      -9.666   6.562  70.507  0.00  0.00     0.163 HD
BRANCH   4   7
ATOM      7  C9  non d ame      -9.461   5.006  68.166  0.00  0.00     0.092 C 
ATOM      8  H11 non d ame      -9.953   4.301  67.496  0.00  0.00     0.088 H 
BRANCH   7   9
ATOM      9  N3  non d ame      -8.278   5.515  67.464  0.00  0.00    -0.346 N 
ATOM     10  C7  non d ame      -8.183   5.395  66.031  0.00  0.00     0.240 C 
ATOM     11  O3  non d ame      -9.048   4.891  65.424  0.00  0.00    -0.271 OA
ATOM     12  H10 non d ame      -7.522   5.952  67.974  0.00  0.00     0.163 HD
BRANCH  10  13
ATOM     13  C6  non d ame      -6.920   5.935  65.291  0.00  0.00     0.086 C 
ATOM     14  H6  non d ame      -7.097   6.116  64.230  0.00  0.00     0.086 H 
BRANCH  13  15
ATOM     15  N2  non d ame      -6.543   7.213  65.873  0.00  0.00    -0.343 N 
ATOM     16  C5  non d ame      -7.084   8.451  65.307  0.00  0.00     0.273 C 
ATOM     17  O2  non d ame      -7.818   8.408  64.382  0.00  0.00    -0.266 OA
ATOM     18  H5  non d ame      -5.913   7.240  66.662  0.00  0.00     0.163 HD
BRANCH  16  19
ATOM     19  C4  non d ame      -6.695   9.809  65.913  0.00  0.00     0.154 A 
ATOM     20  C1  non d ame      -7.205  10.398  67.114  0.00  0.00    -0.017 A 
ATOM     21  C2  non d ame      -6.531  11.634  67.226  0.00  0.00     0.077 A 
ATOM     22  H1  non d ame      -7.950   9.991  67.798  0.00  0.00     0.091 H 
ATOM     23  O1  non d ame      -5.729  11.733  66.207  0.00  0.00    -0.218 OA
ATOM     24  N1  non d ame      -5.806  10.679  65.427  0.00  0.00    -0.123 NA
BRANCH  21  25
ATOM     25  C3  non d ame      -6.711  12.660  68.338  0.00  0.00    -0.029 C 
ATOM     26  H2  non d ame      -7.221  13.539  67.943  0.00  0.00     0.036 H 
ATOM     27  H3  non d ame      -7.304  12.226  69.141  0.00  0.00     0.036 H 
ATOM     28  H4  non d ame      -5.733  12.951  68.725  0.00  0.00     0.036 H 
ENDBRANCH  21  25
ENDBRANCH  16  19
ENDBRANCH  13  15
BRANCH  13  29
ATOM     29  C8  non d ame      -5.789   4.949  65.435  0.00  0.00    -0.049 C 
ATOM     30  H7  non d ame      -4.837   5.466  65.303  0.00  0.00     0.030 H 
ATOM     31  H8  non d ame      -5.823   4.498  66.426  0.00  0.00     0.030 H 
ATOM     32  H9  non d ame      -5.886   4.172  64.677  0.00  0.00     0.030 H 
ENDBRANCH  13  29
ENDBRANCH  10  13
ENDBRANCH   7   9
BRANCH   7  33
ATOM     33  C11 non d ame      -9.022   4.337  69.500  0.00  0.00    -0.033 C 
ATOM     34  H12 non d ame      -9.593   4.800  70.304  0.00  0.00     0.042 H 
BRANCH  33  35
ATOM     35  C12 non d ame      -9.353   2.812  69.507  0.00  0.00    -0.071 C 
ATOM     36  H13 non d ame      -9.784   2.537  70.470  0.00  0.00     0.028 H 
ATOM     37  H14 non d ame     -10.066   2.591  68.714  0.00  0.00     0.028 H 
ATOM     38  H15 non d ame      -8.439   2.242  69.343  0.00  0.00     0.028 H 
ENDBRANCH  33  35
BRANCH  33  39
ATOM     39  C13 non d ame      -7.505   4.587  69.779  0.00  0.00    -0.071 C 
ATOM     40  H16 non d ame      -6.991   3.631  69.876  0.00  0.00     0.028 H 
ATOM     41  H17 non d ame      -7.071   5.151  68.951  0.00  0.00     0.028 H 
ATOM     42  H18 non d ame      -7.393   5.155  70.702  0.00  0.00     0.028 H 
ENDBRANCH  33  39
ENDBRANCH   7  33
ENDBRANCH   4   7
ENDBRANCH   1   3
BRANCH   1  43
ATOM     43  C15 non d ame     -10.672   9.232  69.409  0.00  0.00     0.240 C 
ATOM     44  O5  non d ame      -9.784   9.839  69.913  0.00  0.00    -0.271 OA
ATOM     45  N6  non d ame     -11.247   9.699  68.115  0.00  0.00    -0.355 N 
ATOM     46  H46 non d ame     -12.000   9.189  67.675  0.00  0.00     0.162 HD
BRANCH  45  47
ATOM     47  C20 non d ame     -10.712  10.918  67.473  0.00  0.00     0.013 C 
ATOM     48  H30 non d ame      -9.697  11.072  67.837  0.00  0.00     0.072 H 
BRANCH  47  49
ATOM     49  C21 non d ame     -11.578  12.101  67.844  0.00  0.00    -0.038 C 
ATOM     50  H31 non d ame     -11.650  12.708  66.942  0.00  0.00     0.036 H 
ATOM     51  H32 non d ame     -12.479  11.678  68.290  0.00  0.00     0.036 H 
BRANCH  49  52
ATOM     52  C22 non d ame     -10.936  12.998  68.924  0.00  0.00     0.018 C 
ATOM     53  H33 non d ame     -11.726  13.204  69.646  0.00  0.00     0.048 H 
ATOM     54  H34 non d ame     -10.032  12.478  69.240  0.00  0.00     0.048 H 
BRANCH  52  55
ATOM     55  C23 non d ame     -10.471  14.383  68.393  0.00  0.00     0.259 C 
ATOM     56  O7  non d ame      -9.615  14.457  67.572  0.00  0.00    -0.265 OA
BRANCH  55  57
ATOM     57  O8  non d ame     -11.070  15.564  68.910  0.00  0.00    -0.317 OA
BRANCH  57  58
ATOM     58  C29 non d ame     -12.475  15.444  69.156  0.00  0.00     0.052 C 
ATOM     59  H47 non d ame     -12.931  16.317  68.691  0.00  0.00     0.082 H 
ATOM     60  H48 non d ame     -12.747  14.443  68.823  0.00  0.00     0.082 H 
BRANCH  58  61
ATOM     61  C35 non d ame     -12.701  15.529  70.689  0.00  0.00    -0.034 A 
ATOM     62  C30 non d ame     -11.618  15.704  71.546  0.00  0.00    -0.075 A 
ATOM     63  C31 non d ame     -11.822  15.780  72.923  0.00  0.00    -0.082 A 
ATOM     64  H49 non d ame     -10.610  15.782  71.137  0.00  0.00     0.084 H 
ATOM     65  C32 non d ame     -13.115  15.677  73.443  0.00  0.00    -0.083 A 
ATOM     66  H50 non d ame     -10.972  15.920  73.590  0.00  0.00     0.083 H 
ATOM     67  C33 non d ame     -14.192  15.499  72.586  0.00  0.00    -0.082 A 
ATOM     68  H51 non d ame     -13.283  15.736  74.519  0.00  0.00     0.083 H 
ATOM     69  C34 non d ame     -13.993  15.425  71.208  0.00  0.00    -0.075 A 
ATOM     70  H52 non d ame     -15.199  15.417  72.996  0.00  0.00     0.083 H 
ATOM     71  H53 non d ame     -14.844  15.286  70.541  0.00  0.00     0.084 H 
ENDBRANCH  58  61
ENDBRANCH  57  58
ENDBRANCH  55  57
ENDBRANCH  52  55
ENDBRANCH  49  52
ENDBRANCH  47  49
BRANCH  47  72
ATOM     72  C24 non d ame     -10.710  10.744  65.955  0.00  0.00    -0.039 C 
ATOM     73  H35 non d ame      -9.743  10.300  65.716  0.00  0.00     0.036 H 
ATOM     74  H36 non d ame     -11.629  10.204  65.724  0.00  0.00     0.036 H 
BRANCH  72  75
ATOM     75  C25 non d ame     -10.785  12.152  65.195  0.00  0.00    -0.001 C 
ATOM     76  C26 non d ame     -12.336  12.465  64.748  0.00  0.00    -0.035 C 
ATOM     77  C27 non d ame     -12.355  12.781  63.431  0.00  0.00     0.085 C 
ATOM     78  H38 non d ame     -12.931  11.554  64.801  0.00  0.00     0.036 H 
ATOM     79  H39 non d ame     -12.688  13.375  65.233  0.00  0.00     0.036 H 
ATOM     80  N5  non d ame     -11.009  12.393  62.865  0.00  0.00    -0.049 N 
ATOM     81  H40 non d ame     -13.122  12.144  62.990  0.00  0.00     0.075 H 
ATOM     82  H41 non d ame     -12.457  13.864  63.393  0.00  0.00     0.075 H 
ATOM     83  C28 non d ame     -10.045  12.153  64.137  0.00  0.00     0.193 C 
ATOM     84  H42 non d ame     -11.141  11.512  62.391  0.00  0.00     0.280 HD
ATOM     85  H43 non d ame     -10.672  13.196  62.354  0.00  0.00     0.280 HD
ATOM     86  H44 non d ame      -9.300  12.898  64.417  0.00  0.00     0.129 H 
ATOM     87  H37 non d ame     -10.255  12.939  65.733  0.00  0.00     0.046 H 
BRANCH  83  88
ATOM     88  O6  non d ame      -9.322  10.930  63.985  0.00  0.00    -0.369 OA
ATOM     89  H45 non d ame      -9.761  10.235  64.482  0.00  0.00     0.212 HD
ENDBRANCH  83  88
ENDBRANCH  72  75
ENDBRANCH  47  72
ENDBRANCH  45  47
ENDBRANCH   1  43
BRANCH   1  90
ATOM     90  C16 non d ame     -11.269   8.158  71.602  0.00  0.00    -0.035 C 
ATOM     91  H21 non d ame     -11.005   7.192  72.035  0.00  0.00     0.037 H 
ATOM     92  H22 non d ame     -10.642   9.029  71.793  0.00  0.00     0.037 H 
BRANCH  90  93
ATOM     93  C17 non d ame     -12.691   8.510  72.144  0.00  0.00    -0.059 C 
ATOM     94  H23 non d ame     -12.677   8.369  73.224  0.00  0.00     0.038 H 
BRANCH  93  95
ATOM     95  C18 non d ame     -13.077   9.998  71.863  0.00  0.00    -0.073 C 
ATOM     96  H24 non d ame     -13.442  10.458  72.782  0.00  0.00     0.028 H 
ATOM     97  H25 non d ame     -12.201  10.540  71.509  0.00  0.00     0.028 H 
ATOM     98  H26 non d ame     -13.859  10.033  71.104  0.00  0.00     0.028 H 
ENDBRANCH  93  95
BRANCH  93  99
ATOM     99  C19 non d ame     -13.745   7.557  71.575  0.00  0.00    -0.073 C 
ATOM    100  H27 non d ame     -14.650   8.117  71.336  0.00  0.00     0.028 H 
ATOM    101  H28 non d ame     -13.358   7.088  70.670  0.00  0.00     0.028 H 
ATOM    102  H29 non d ame     -13.976   6.788  72.312  0.00  0.00     0.028 H 
ENDBRANCH  93  99
ENDBRANCH  90  93
ENDBRANCH   1  90
TORSDOF 26
ENDMDL
MODEL 12
REMARK VINA RESULT:      -6.3      2.618      8.321
REMARK  26 active torsions:
REMARK  status: ('A' for Active; 'I' for Inactive)
REMARK    1  A    between atoms: C2_2  and  C3_3 
REMARK    2  A    between atoms: C4_6  and  C5_7 
REMARK       I    between atoms: C5_7  and  N2_9 
REMARK    3  A    between atoms: N2_9  and  C6_10 
REMARK    4  A    between atoms: C6_10  and  C7_11 
REMARK    5  A    between atoms: C6_10  and  C8_13 
REMARK       I    between atoms: C7_11  and  N3_14 
REMARK    6  A    between atoms: N3_14  and  C9_15 
REMARK    7  A    between atoms: C9_15  and  C10_16 
REMARK    8  A    between atoms: C9_15  and  C11_18 
REMARK       I    between atoms: C10_16  and  N4_21 
REMARK    9  A    between atoms: C11_18  and  C12_19 
REMARK   10  A    between atoms: C11_18  and  C13_20 
REMARK   11  A    between atoms: N4_21  and  C14_22 
REMARK   12  A    between atoms: C14_22  and  C15_23 
REMARK   13  A    between atoms: C14_22  and  C16_25 
REMARK       I    between atoms: C15_23  and  N6_40 
REMARK   14  A    between atoms: C16_25  and  C17_26 
REMARK   15  A    between atoms: C17_26  and  C18_27 
REMARK   16  A    between atoms: C17_26  and  C19_28 
REMARK   17  A    between atoms: C20_29  and  C21_30 
REMARK   18  A    between atoms: C20_29  and  C24_33 
REMARK   19  A    between atoms: C20_29  and  N6_40 
REMARK   20  A    between atoms: C21_30  and  C22_31 
REMARK   21  A    between atoms: C22_31  and  C23_32 
REMARK   22  A    between atoms: C23_32  and  O8_43 
REMARK   23  A    between atoms: C24_33  and  C25_34 
REMARK   24  A    between atoms: C28_38  and  O6_39 
REMARK   25  A    between atoms: C29_42  and  O8_43 
REMARK   26  A    between atoms: C29_42  and  C35_49 
ROOT
ATOM      1  C14 non d ame      -9.050   9.899  68.934  0.00  0.00     0.089 C 
ATOM      2  H20 non d ame      -8.200   9.233  69.090  0.00  0.00     0.087 H 
ENDROOT
BRANCH   1   3
ATOM      3  N4  non d ame      -8.555  11.265  69.007  0.00  0.00    -0.346 N 
ATOM      4  C10 non d ame      -7.158  11.595  68.544  0.00  0.00     0.241 C 
ATOM      5  O4  non d ame      -6.449  10.742  68.119  0.00  0.00    -0.271 OA
ATOM      6  H19 non d ame      -9.172  11.976  69.374  0.00  0.00     0.163 HD
BRANCH   4   7
ATOM      7  C9  non d ame      -6.663  13.016  68.621  0.00  0.00     0.092 C 
ATOM      8  H11 non d ame      -6.191  13.284  67.676  0.00  0.00     0.088 H 
BRANCH   7   9
ATOM      9  N3  non d ame      -7.802  13.921  68.808  0.00  0.00    -0.346 N 
ATOM     10  C7  non d ame      -8.048  14.975  67.856  0.00  0.00     0.240 C 
ATOM     11  O3  non d ame      -7.340  15.112  66.934  0.00  0.00    -0.271 OA
ATOM     12  H10 non d ame      -8.422  13.816  69.599  0.00  0.00     0.163 HD
BRANCH  10  13
ATOM     13  C6  non d ame      -9.260  15.936  68.062  0.00  0.00     0.086 C 
ATOM     14  H6  non d ame     -10.055  15.776  67.333  0.00  0.00     0.086 H 
BRANCH  13  15
ATOM     15  N2  non d ame      -9.841  15.689  69.372  0.00  0.00    -0.343 N 
ATOM     16  C5  non d ame     -11.272  15.398  69.484  0.00  0.00     0.273 C 
ATOM     17  O2  non d ame     -11.947  15.368  68.515  0.00  0.00    -0.266 OA
ATOM     18  H5  non d ame      -9.256  15.719  70.195  0.00  0.00     0.163 HD
BRANCH  16  19
ATOM     19  C4  non d ame     -11.898  15.133  70.862  0.00  0.00     0.154 A 
ATOM     20  C1  non d ame     -11.673  15.867  72.069  0.00  0.00    -0.017 A 
ATOM     21  C2  non d ame     -12.477  15.228  73.038  0.00  0.00     0.077 A 
ATOM     22  H1  non d ame     -11.026  16.732  72.219  0.00  0.00     0.091 H 
ATOM     23  O1  non d ame     -13.090  14.246  72.446  0.00  0.00    -0.218 OA
ATOM     24  N1  non d ame     -12.768  14.170  71.175  0.00  0.00    -0.123 NA
BRANCH  21  25
ATOM     25  C3  non d ame     -12.605  15.620  74.505  0.00  0.00    -0.029 C 
ATOM     26  H2  non d ame     -11.815  15.138  75.080  0.00  0.00     0.036 H 
ATOM     27  H3  non d ame     -12.516  16.702  74.601  0.00  0.00     0.036 H 
ATOM     28  H4  non d ame     -13.577  15.301  74.883  0.00  0.00     0.036 H 
ENDBRANCH  21  25
ENDBRANCH  16  19
ENDBRANCH  13  15
BRANCH  13  29
ATOM     29  C8  non d ame      -8.793  17.366  67.966  0.00  0.00    -0.049 C 
ATOM     30  H7  non d ame      -9.590  17.981  67.547  0.00  0.00     0.030 H 
ATOM     31  H8  non d ame      -8.535  17.733  68.959  0.00  0.00     0.030 H 
ATOM     32  H9  non d ame      -7.917  17.420  67.320  0.00  0.00     0.030 H 
ENDBRANCH  13  29
ENDBRANCH  10  13
ENDBRANCH   7   9
BRANCH   7  33
ATOM     33  C11 non d ame      -5.687  13.160  69.825  0.00  0.00    -0.033 C 
ATOM     34  H12 non d ame      -4.687  13.313  69.421  0.00  0.00     0.042 H 
BRANCH  33  35
ATOM     35  C12 non d ame      -6.038  14.407  70.696  0.00  0.00    -0.071 C 
ATOM     36  H13 non d ame      -7.107  14.412  70.908  0.00  0.00     0.028 H 
ATOM     37  H14 non d ame      -5.482  14.365  71.631  0.00  0.00     0.028 H 
ATOM     38  H15 non d ame      -5.771  15.313  70.154  0.00  0.00     0.028 H 
ENDBRANCH  33  35
BRANCH  33  39
ATOM     39  C13 non d ame      -5.666  11.856  70.687  0.00  0.00    -0.071 C 
ATOM     40  H16 non d ame      -6.568  11.278  70.493  0.00  0.00     0.028 H 
ATOM     41  H17 non d ame      -4.790  11.262  70.425  0.00  0.00     0.028 H 
ATOM     42  H18 non d ame      -5.622  12.120  71.744  0.00  0.00     0.028 H 
ENDBRANCH  33  39
ENDBRANCH   7  33
ENDBRANCH   4   7
ENDBRANCH   1   3
BRANCH   1  43
ATOM     43  C15 non d ame      -9.715   9.687  67.544  0.00  0.00     0.240 C 
ATOM     44  O5  non d ame     -10.619   8.924  67.431  0.00  0.00    -0.271 OA
ATOM     45  N6  non d ame      -9.230  10.445  66.354  0.00  0.00    -0.355 N 
ATOM     46  H46 non d ame      -8.466  11.099  66.440  0.00  0.00     0.162 HD
BRANCH  45  47
ATOM     47  C20 non d ame      -9.874  10.233  65.040  0.00  0.00     0.013 C 
ATOM     48  H30 non d ame     -10.165   9.185  64.973  0.00  0.00     0.072 H 
BRANCH  47  49
ATOM     49  C21 non d ame      -8.889  10.566  63.942  0.00  0.00    -0.038 C 
ATOM     50  H31 non d ame      -9.444  10.467  63.009  0.00  0.00     0.036 H 
ATOM     51  H32 non d ame      -8.452  11.526  64.218  0.00  0.00     0.036 H 
BRANCH  49  52
ATOM     52  C22 non d ame      -7.719   9.561  63.862  0.00  0.00     0.018 C 
ATOM     53  H33 non d ame      -6.845  10.146  63.576  0.00  0.00     0.048 H 
ATOM     54  H34 non d ame      -7.727   9.022  64.809  0.00  0.00     0.048 H 
BRANCH  52  55
ATOM     55  C23 non d ame      -7.893   8.484  62.755  0.00  0.00     0.259 C 
ATOM     56  O7  non d ame      -8.224   8.795  61.657  0.00  0.00    -0.265 OA
BRANCH  55  57
ATOM     57  O8  non d ame      -7.665   7.116  63.072  0.00  0.00    -0.317 OA
BRANCH  57  58
ATOM     58  C29 non d ame      -7.921   6.785  64.440  0.00  0.00     0.052 C 
ATOM     59  H47 non d ame      -7.872   7.727  64.985  0.00  0.00     0.082 H 
ATOM     60  H48 non d ame      -8.844   6.206  64.436  0.00  0.00     0.082 H 
BRANCH  58  61
ATOM     61  C35 non d ame      -6.770   5.870  64.935  0.00  0.00    -0.034 A 
ATOM     62  C30 non d ame      -5.550   5.861  64.267  0.00  0.00    -0.075 A 
ATOM     63  C31 non d ame      -4.516   5.038  64.712  0.00  0.00    -0.082 A 
ATOM     64  H49 non d ame      -5.403   6.500  63.396  0.00  0.00     0.084 H 
ATOM     65  C32 non d ame      -4.707   4.219  65.827  0.00  0.00    -0.083 A 
ATOM     66  H50 non d ame      -3.560   5.037  64.188  0.00  0.00     0.083 H 
ATOM     67  C33 non d ame      -5.928   4.227  66.489  0.00  0.00    -0.082 A 
ATOM     68  H51 non d ame      -3.904   3.573  66.182  0.00  0.00     0.083 H 
ATOM     69  C34 non d ame      -6.963   5.050  66.049  0.00  0.00    -0.075 A 
ATOM     70  H52 non d ame      -6.074   3.585  67.358  0.00  0.00     0.083 H 
ATOM     71  H53 non d ame      -7.919   5.052  66.575  0.00  0.00     0.084 H 
ENDBRANCH  58  61
ENDBRANCH  57  58
ENDBRANCH  55  57
ENDBRANCH  52  55
ENDBRANCH  49  52
ENDBRANCH  47  49
BRANCH  47  72
ATOM     72  C24 non d ame     -11.101  11.134  64.915  0.00  0.00    -0.039 C 
ATOM     73  H35 non d ame     -11.813  10.572  64.311  0.00  0.00     0.036 H 
ATOM     74  H36 non d ame     -11.357  11.418  65.936  0.00  0.00     0.036 H 
BRANCH  72  75
ATOM     75  C25 non d ame     -10.768  12.484  64.119  0.00  0.00    -0.001 C 
ATOM     76  C26 non d ame     -10.690  13.748  65.168  0.00  0.00    -0.035 C 
ATOM     77  C27 non d ame     -11.484  14.745  64.709  0.00  0.00     0.085 C 
ATOM     78  H38 non d ame     -11.148  13.474  66.118  0.00  0.00     0.036 H 
ATOM     79  H39 non d ame      -9.693  14.188  65.151  0.00  0.00     0.036 H 
ATOM     80  N5  non d ame     -12.347  14.155  63.620  0.00  0.00    -0.049 N 
ATOM     81  H40 non d ame     -12.117  15.025  65.552  0.00  0.00     0.075 H 
ATOM     82  H41 non d ame     -10.807  15.476  64.269  0.00  0.00     0.075 H 
ATOM     83  C28 non d ame     -11.671  12.741  63.234  0.00  0.00     0.193 C 
ATOM     84  H42 non d ame     -13.250  13.978  64.035  0.00  0.00     0.280 HD
ATOM     85  H43 non d ame     -12.269  14.775  62.826  0.00  0.00     0.280 HD
ATOM     86  H44 non d ame     -11.089  12.636  62.319  0.00  0.00     0.129 H 
ATOM     87  H37 non d ame      -9.932  12.360  63.429  0.00  0.00     0.046 H 
BRANCH  83  88
ATOM     88  O6  non d ame     -12.668  11.719  63.170  0.00  0.00    -0.369 OA
ATOM     89  H45 non d ame     -13.397  12.017  62.620  0.00  0.00     0.212 HD
ENDBRANCH  83  88
ENDBRANCH  72  75
ENDBRANCH  47  72
ENDBRANCH  45  47
ENDBRANCH   1  43
BRANCH   1  90
ATOM     90  C16 non d ame     -10.080   9.685  70.032  0.00  0.00    -0.035 C 
ATOM     91  H21 non d ame     -10.036  10.584  70.648  0.00  0.00     0.037 H 
ATOM     92  H22 non d ame     -11.003   9.424  69.515  0.00  0.00     0.037 H 
BRANCH  90  93
ATOM     93  C17 non d ame      -9.749   8.487  70.977  0.00  0.00    -0.059 C 
ATOM     94  H23 non d ame      -9.880   7.569  70.405  0.00  0.00     0.038 H 
BRANCH  93  95
ATOM     95  C18 non d ame      -8.271   8.525  71.482  0.00  0.00    -0.073 C 
ATOM     96  H24 non d ame      -7.641   7.947  70.806  0.00  0.00     0.028 H 
ATOM     97  H25 non d ame      -7.923   9.558  71.509  0.00  0.00     0.028 H 
ATOM     98  H26 non d ame      -8.218   8.098  72.484  0.00  0.00     0.028 H 
ENDBRANCH  93  95
BRANCH  93  99
ATOM     99  C19 non d ame     -10.726   8.433  72.155  0.00  0.00    -0.073 C 
ATOM    100  H27 non d ame     -10.347   9.051  72.970  0.00  0.00     0.028 H 
ATOM    101  H28 non d ame     -11.698   8.807  71.836  0.00  0.00     0.028 H 
ATOM    102  H29 non d ame     -10.828   7.402  72.496  0.00  0.00     0.028 H 
ENDBRANCH  93  99
ENDBRANCH  90  93
ENDBRANCH   1  90
TORSDOF 26
ENDMDL
MODEL 13
REMARK VINA RESULT:      -6.2      2.477      8.726
REMARK  26 active torsions:
REMARK  status: ('A' for Active; 'I' for Inactive)
REMARK    1  A    between atoms: C2_2  and  C3_3 
REMARK    2  A    between atoms: C4_6  and  C5_7 
REMARK       I    between atoms: C5_7  and  N2_9 
REMARK    3  A    between atoms: N2_9  and  C6_10 
REMARK    4  A    between atoms: C6_10  and  C7_11 
REMARK    5  A    between atoms: C6_10  and  C8_13 
REMARK       I    between atoms: C7_11  and  N3_14 
REMARK    6  A    between atoms: N3_14  and  C9_15 
REMARK    7  A    between atoms: C9_15  and  C10_16 
REMARK    8  A    between atoms: C9_15  and  C11_18 
REMARK       I    between atoms: C10_16  and  N4_21 
REMARK    9  A    between atoms: C11_18  and  C12_19 
REMARK   10  A    between atoms: C11_18  and  C13_20 
REMARK   11  A    between atoms: N4_21  and  C14_22 
REMARK   12  A    between atoms: C14_22  and  C15_23 
REMARK   13  A    between atoms: C14_22  and  C16_25 
REMARK       I    between atoms: C15_23  and  N6_40 
REMARK   14  A    between atoms: C16_25  and  C17_26 
REMARK   15  A    between atoms: C17_26  and  C18_27 
REMARK   16  A    between atoms: C17_26  and  C19_28 
REMARK   17  A    between atoms: C20_29  and  C21_30 
REMARK   18  A    between atoms: C20_29  and  C24_33 
REMARK   19  A    between atoms: C20_29  and  N6_40 
REMARK   20  A    between atoms: C21_30  and  C22_31 
REMARK   21  A    between atoms: C22_31  and  C23_32 
REMARK   22  A    between atoms: C23_32  and  O8_43 
REMARK   23  A    between atoms: C24_33  and  C25_34 
REMARK   24  A    between atoms: C28_38  and  O6_39 
REMARK   25  A    between atoms: C29_42  and  O8_43 
REMARK   26  A    between atoms: C29_42  and  C35_49 
ROOT
ATOM      1  C14 non d ame      -7.951   9.998  64.683  0.00  0.00     0.089 C 
ATOM      2  H20 non d ame      -8.438   9.030  64.563  0.00  0.00     0.087 H 
ENDROOT
BRANCH   1   3
ATOM      3  N4  non d ame      -8.997  11.007  64.758  0.00  0.00    -0.346 N 
ATOM      4  C10 non d ame     -10.279  10.722  65.500  0.00  0.00     0.241 C 
ATOM      5  O4  non d ame     -10.447   9.671  66.026  0.00  0.00    -0.271 OA
ATOM      6  H19 non d ame      -8.836  11.894  64.302  0.00  0.00     0.163 HD
BRANCH   4   7
ATOM      7  C9  non d ame     -11.349  11.779  65.572  0.00  0.00     0.092 C 
ATOM      8  H11 non d ame     -12.298  11.313  65.835  0.00  0.00     0.088 H 
BRANCH   7   9
ATOM      9  N3  non d ame     -11.025  12.731  66.640  0.00  0.00    -0.346 N 
ATOM     10  C7  non d ame     -11.613  12.576  67.947  0.00  0.00     0.240 C 
ATOM     11  O3  non d ame     -12.350  11.692  68.158  0.00  0.00    -0.271 OA
ATOM     12  H10 non d ame     -10.391  13.500  66.472  0.00  0.00     0.163 HD
BRANCH  10  13
ATOM     13  C6  non d ame     -11.266  13.594  69.078  0.00  0.00     0.086 C 
ATOM     14  H6  non d ame     -10.288  13.413  69.523  0.00  0.00     0.086 H 
BRANCH  13  15
ATOM     15  N2  non d ame     -11.223  14.932  68.510  0.00  0.00    -0.343 N 
ATOM     16  C5  non d ame      -9.976  15.426  67.921  0.00  0.00     0.273 C 
ATOM     17  O2  non d ame      -9.014  14.741  67.911  0.00  0.00    -0.266 OA
ATOM     18  H5  non d ame     -12.050  15.512  68.525  0.00  0.00     0.163 HD
BRANCH  16  19
ATOM     19  C4  non d ame      -9.917  16.837  67.317  0.00  0.00     0.154 A 
ATOM     20  C1  non d ame      -9.962  18.082  68.021  0.00  0.00    -0.017 A 
ATOM     21  C2  non d ame      -9.874  19.071  67.017  0.00  0.00     0.077 A 
ATOM     22  H1  non d ame     -10.046  18.243  69.096  0.00  0.00     0.091 H 
ATOM     23  O1  non d ame      -9.786  18.457  65.874  0.00  0.00    -0.218 OA
ATOM     24  N1  non d ame      -9.809  17.152  66.023  0.00  0.00    -0.123 NA
BRANCH  21  25
ATOM     25  C3  non d ame      -9.878  20.579  67.233  0.00  0.00    -0.029 C 
ATOM     26  H2  non d ame     -10.904  20.947  67.210  0.00  0.00     0.036 H 
ATOM     27  H3  non d ame      -9.431  20.808  68.200  0.00  0.00     0.036 H 
ATOM     28  H4  non d ame      -9.301  21.062  66.443  0.00  0.00     0.036 H 
ENDBRANCH  21  25
ENDBRANCH  16  19
ENDBRANCH  13  15
BRANCH  13  29
ATOM     29  C8  non d ame     -12.315  13.526  70.158  0.00  0.00    -0.049 C 
ATOM     30  H7  non d ame     -13.240  13.125  69.742  0.00  0.00     0.030 H 
ATOM     31  H8  non d ame     -11.967  12.878  70.962  0.00  0.00     0.030 H 
ATOM     32  H9  non d ame     -12.498  14.527  70.550  0.00  0.00     0.030 H 
ENDBRANCH  13  29
ENDBRANCH  10  13
ENDBRANCH   7   9
BRANCH   7  33
ATOM     33  C11 non d ame     -11.425  12.534  64.213  0.00  0.00    -0.033 C 
ATOM     34  H12 non d ame     -10.427  12.526  63.776  0.00  0.00     0.042 H 
BRANCH  33  35
ATOM     35  C12 non d ame     -12.381  11.811  63.213  0.00  0.00    -0.071 C 
ATOM     36  H13 non d ame     -12.949  12.553  62.653  0.00  0.00     0.028 H 
ATOM     37  H14 non d ame     -11.794  11.205  62.524  0.00  0.00     0.028 H 
ATOM     38  H15 non d ame     -13.067  11.171  63.768  0.00  0.00     0.028 H 
ENDBRANCH  33  35
BRANCH  33  39
ATOM     39  C13 non d ame     -11.849  14.023  64.423  0.00  0.00    -0.071 C 
ATOM     40  H16 non d ame     -12.837  14.184  63.994  0.00  0.00     0.028 H 
ATOM     41  H17 non d ame     -11.875  14.247  65.490  0.00  0.00     0.028 H 
ATOM     42  H18 non d ame     -11.129  14.679  63.933  0.00  0.00     0.028 H 
ENDBRANCH  33  39
ENDBRANCH   7  33
ENDBRANCH   4   7
ENDBRANCH   1   3
BRANCH   1  43
ATOM     43  C15 non d ame      -7.100  10.071  65.983  0.00  0.00     0.240 C 
ATOM     44  O5  non d ame      -6.150  10.783  66.029  0.00  0.00    -0.271 OA
ATOM     45  N6  non d ame      -7.476   9.259  67.176  0.00  0.00    -0.355 N 
ATOM     46  H46 non d ame      -8.283   8.654  67.150  0.00  0.00     0.162 HD
BRANCH  45  47
ATOM     47  C20 non d ame      -6.657   9.340  68.404  0.00  0.00     0.013 C 
ATOM     48  H30 non d ame      -5.834  10.029  68.215  0.00  0.00     0.072 H 
BRANCH  47  49
ATOM     49  C21 non d ame      -6.115   7.968  68.736  0.00  0.00    -0.038 C 
ATOM     50  H31 non d ame      -5.253   8.140  69.379  0.00  0.00     0.036 H 
ATOM     51  H32 non d ame      -6.966   7.396  69.106  0.00  0.00     0.036 H 
BRANCH  49  52
ATOM     52  C22 non d ame      -5.590   7.216  67.494  0.00  0.00     0.018 C 
ATOM     53  H33 non d ame      -6.353   7.344  66.725  0.00  0.00     0.048 H 
ATOM     54  H34 non d ame      -4.580   7.590  67.326  0.00  0.00     0.048 H 
BRANCH  52  55
ATOM     55  C23 non d ame      -5.449   5.682  67.703  0.00  0.00     0.259 C 
ATOM     56  O7  non d ame      -4.377   5.188  67.840  0.00  0.00    -0.265 OA
BRANCH  55  57
ATOM     57  O8  non d ame      -6.617   4.870  67.716  0.00  0.00    -0.317 OA
BRANCH  57  58
ATOM     58  C29 non d ame      -7.630   5.294  66.797  0.00  0.00     0.052 C 
ATOM     59  H47 non d ame      -7.265   6.226  66.366  0.00  0.00     0.082 H 
ATOM     60  H48 non d ame      -7.823   4.435  66.155  0.00  0.00     0.082 H 
BRANCH  58  61
ATOM     61  C35 non d ame      -8.916   5.598  67.610  0.00  0.00    -0.034 A 
ATOM     62  C30 non d ame      -9.034   5.151  68.923  0.00  0.00    -0.075 A 
ATOM     63  C31 non d ame     -10.190   5.425  69.652  0.00  0.00    -0.082 A 
ATOM     64  H49 non d ame      -8.220   4.588  69.380  0.00  0.00     0.084 H 
ATOM     65  C32 non d ame     -11.233   6.144  69.064  0.00  0.00    -0.083 A 
ATOM     66  H50 non d ame     -10.277   5.076  70.682  0.00  0.00     0.083 H 
ATOM     67  C33 non d ame     -11.113   6.585  67.752  0.00  0.00    -0.082 A 
ATOM     68  H51 non d ame     -12.140   6.363  69.628  0.00  0.00     0.083 H 
ATOM     69  C34 non d ame      -9.958   6.316  67.020  0.00  0.00    -0.075 A 
ATOM     70  H52 non d ame     -11.930   7.145  67.296  0.00  0.00     0.083 H 
ATOM     71  H53 non d ame      -9.871   6.667  65.991  0.00  0.00     0.084 H 
ENDBRANCH  58  61
ENDBRANCH  57  58
ENDBRANCH  55  57
ENDBRANCH  52  55
ENDBRANCH  49  52
ENDBRANCH  47  49
BRANCH  47  72
ATOM     72  C24 non d ame      -7.515   9.843  69.564  0.00  0.00    -0.039 C 
ATOM     73  H35 non d ame      -6.864   9.817  70.438  0.00  0.00     0.036 H 
ATOM     74  H36 non d ame      -7.933  10.792  69.225  0.00  0.00     0.036 H 
BRANCH  72  75
ATOM     75  C25 non d ame      -8.746   8.863  69.860  0.00  0.00    -0.001 C 
ATOM     76  C26 non d ame     -10.165   9.640  69.562  0.00  0.00    -0.035 C 
ATOM     77  C27 non d ame     -10.971   9.504  70.642  0.00  0.00     0.085 C 
ATOM     78  H38 non d ame      -9.997  10.715  69.503  0.00  0.00     0.036 H 
ATOM     79  H39 non d ame     -10.712   9.129  68.770  0.00  0.00     0.036 H 
ATOM     80  N5  non d ame     -10.113   8.989  71.772  0.00  0.00    -0.049 N 
ATOM     81  H40 non d ame     -11.307  10.513  70.883  0.00  0.00     0.075 H 
ATOM     82  H41 non d ame     -11.696   8.739  70.369  0.00  0.00     0.075 H 
ATOM     83  C28 non d ame      -8.746   8.468  71.090  0.00  0.00     0.193 C 
ATOM     84  H42 non d ame      -9.899   9.784  72.355  0.00  0.00     0.280 HD
ATOM     85  H43 non d ame     -10.600   8.194  72.161  0.00  0.00     0.280 HD
ATOM     86  H44 non d ame      -8.563   7.402  70.956  0.00  0.00     0.129 H 
ATOM     87  H37 non d ame      -8.612   7.882  69.403  0.00  0.00     0.046 H 
BRANCH  83  88
ATOM     88  O6  non d ame      -7.615   8.961  71.812  0.00  0.00    -0.369 OA
ATOM     89  H45 non d ame      -6.809   8.636  71.404  0.00  0.00     0.212 HD
ENDBRANCH  83  88
ENDBRANCH  72  75
ENDBRANCH  47  72
ENDBRANCH  45  47
ENDBRANCH   1  43
BRANCH   1  90
ATOM     90  C16 non d ame      -7.070  10.285  63.478  0.00  0.00    -0.035 C 
ATOM     91  H21 non d ame      -7.572  11.090  62.939  0.00  0.00     0.037 H 
ATOM     92  H22 non d ame      -6.070  10.442  63.882  0.00  0.00     0.037 H 
BRANCH  90  93
ATOM     93  C17 non d ame      -6.962   9.088  62.481  0.00  0.00    -0.059 C 
ATOM     94  H23 non d ame      -7.174   9.470  61.483  0.00  0.00     0.038 H 
BRANCH  93  95
ATOM     95  C18 non d ame      -5.528   8.468  62.459  0.00  0.00    -0.073 C 
ATOM     96  H24 non d ame      -5.566   7.452  62.854  0.00  0.00     0.028 H 
ATOM     97  H25 non d ame      -5.159   8.445  61.434  0.00  0.00     0.028 H 
ATOM     98  H26 non d ame      -4.861   9.073  63.073  0.00  0.00     0.028 H 
ENDBRANCH  93  95
BRANCH  93  99
ATOM     99  C19 non d ame      -8.013   8.019  62.793  0.00  0.00    -0.073 C 
ATOM    100  H27 non d ame      -8.890   8.179  62.163  0.00  0.00     0.028 H 
ATOM    101  H28 non d ame      -7.596   7.032  62.593  0.00  0.00     0.028 H 
ATOM    102  H29 non d ame      -8.300   8.086  63.842  0.00  0.00     0.028 H 
ENDBRANCH  93  99
ENDBRANCH  90  93
ENDBRANCH   1  90
TORSDOF 26
ENDMDL
MODEL 14
REMARK VINA RESULT:      -6.2      2.841      7.012
REMARK  26 active torsions:
REMARK  status: ('A' for Active; 'I' for Inactive)
REMARK    1  A    between atoms: C2_2  and  C3_3 
REMARK    2  A    between atoms: C4_6  and  C5_7 
REMARK       I    between atoms: C5_7  and  N2_9 
REMARK    3  A    between atoms: N2_9  and  C6_10 
REMARK    4  A    between atoms: C6_10  and  C7_11 
REMARK    5  A    between atoms: C6_10  and  C8_13 
REMARK       I    between atoms: C7_11  and  N3_14 
REMARK    6  A    between atoms: N3_14  and  C9_15 
REMARK    7  A    between atoms: C9_15  and  C10_16 
REMARK    8  A    between atoms: C9_15  and  C11_18 
REMARK       I    between atoms: C10_16  and  N4_21 
REMARK    9  A    between atoms: C11_18  and  C12_19 
REMARK   10  A    between atoms: C11_18  and  C13_20 
REMARK   11  A    between atoms: N4_21  and  C14_22 
REMARK   12  A    between atoms: C14_22  and  C15_23 
REMARK   13  A    between atoms: C14_22  and  C16_25 
REMARK       I    between atoms: C15_23  and  N6_40 
REMARK   14  A    between atoms: C16_25  and  C17_26 
REMARK   15  A    between atoms: C17_26  and  C18_27 
REMARK   16  A    between atoms: C17_26  and  C19_28 
REMARK   17  A    between atoms: C20_29  and  C21_30 
REMARK   18  A    between atoms: C20_29  and  C24_33 
REMARK   19  A    between atoms: C20_29  and  N6_40 
REMARK   20  A    between atoms: C21_30  and  C22_31 
REMARK   21  A    between atoms: C22_31  and  C23_32 
REMARK   22  A    between atoms: C23_32  and  O8_43 
REMARK   23  A    between atoms: C24_33  and  C25_34 
REMARK   24  A    between atoms: C28_38  and  O6_39 
REMARK   25  A    between atoms: C29_42  and  O8_43 
REMARK   26  A    between atoms: C29_42  and  C35_49 
ROOT
ATOM      1  C14 non d ame      -8.036   8.590  64.399  0.00  0.00     0.089 C 
ATOM      2  H20 non d ame      -6.948   8.519  64.382  0.00  0.00     0.087 H 
ENDROOT
BRANCH   1   3
ATOM      3  N4  non d ame      -8.541   7.408  65.081  0.00  0.00    -0.346 N 
ATOM      4  C10 non d ame      -7.785   6.104  65.008  0.00  0.00     0.241 C 
ATOM      5  O4  non d ame      -6.773   6.032  64.391  0.00  0.00    -0.271 OA
ATOM      6  H19 non d ame      -9.405   7.489  65.598  0.00  0.00     0.163 HD
BRANCH   4   7
ATOM      7  C9  non d ame      -8.319   4.892  65.724  0.00  0.00     0.092 C 
ATOM      8  H11 non d ame      -7.504   4.189  65.896  0.00  0.00     0.088 H 
BRANCH   7   9
ATOM      9  N3  non d ame      -8.833   5.288  67.039  0.00  0.00    -0.346 N 
ATOM     10  C7  non d ame      -7.967   5.256  68.191  0.00  0.00     0.240 C 
ATOM     11  O3  non d ame      -6.853   4.915  68.080  0.00  0.00    -0.271 OA
ATOM     12  H10 non d ame      -9.793   5.584  67.152  0.00  0.00     0.163 HD
BRANCH  10  13
ATOM     13  C6  non d ame      -8.521   5.676  69.588  0.00  0.00     0.086 C 
ATOM     14  H6  non d ame      -8.298   4.947  70.367  0.00  0.00     0.086 H 
BRANCH  13  15
ATOM     15  N2  non d ame      -7.889   6.921  69.991  0.00  0.00    -0.343 N 
ATOM     16  C5  non d ame      -7.925   8.075  69.089  0.00  0.00     0.273 C 
ATOM     17  O2  non d ame      -8.463   7.989  68.041  0.00  0.00    -0.266 OA
ATOM     18  H5  non d ame      -7.429   6.985  70.889  0.00  0.00     0.163 HD
BRANCH  16  19
ATOM     19  C4  non d ame      -7.261   9.397  69.503  0.00  0.00     0.154 A 
ATOM     20  C1  non d ame      -6.914  10.494  68.653  0.00  0.00    -0.017 A 
ATOM     21  C2  non d ame      -6.338  11.454  69.514  0.00  0.00     0.077 A 
ATOM     22  H1  non d ame      -7.058  10.580  67.575  0.00  0.00     0.091 H 
ATOM     23  O1  non d ame      -6.359  10.958  70.716  0.00  0.00    -0.218 OA
ATOM     24  N1  non d ame      -6.893   9.758  70.736  0.00  0.00    -0.123 NA
BRANCH  21  25
ATOM     25  C3  non d ame      -5.795  12.818  69.109  0.00  0.00    -0.029 C 
ATOM     26  H2  non d ame      -5.159  13.207  69.904  0.00  0.00     0.036 H 
ATOM     27  H3  non d ame      -5.213  12.720  68.193  0.00  0.00     0.036 H 
ATOM     28  H4  non d ame      -6.625  13.504  68.940  0.00  0.00     0.036 H 
ENDBRANCH  21  25
ENDBRANCH  16  19
ENDBRANCH  13  15
BRANCH  13  29
ATOM     29  C8  non d ame     -10.015   5.859  69.505  0.00  0.00    -0.049 C 
ATOM     30  H7  non d ame     -10.431   5.915  70.512  0.00  0.00     0.030 H 
ATOM     31  H8  non d ame     -10.240   6.779  68.968  0.00  0.00     0.030 H 
ATOM     32  H9  non d ame     -10.456   5.012  68.979  0.00  0.00     0.030 H 
ENDBRANCH  13  29
ENDBRANCH  10  13
ENDBRANCH   7   9
BRANCH   7  33
ATOM     33  C11 non d ame      -9.471   4.261  64.888  0.00  0.00    -0.033 C 
ATOM     34  H12 non d ame      -9.377   3.179  64.963  0.00  0.00     0.042 H 
BRANCH  33  35
ATOM     35  C12 non d ame     -10.869   4.652  65.460  0.00  0.00    -0.071 C 
ATOM     36  H13 non d ame     -11.211   3.877  66.146  0.00  0.00     0.028 H 
ATOM     37  H14 non d ame     -10.792   5.600  65.993  0.00  0.00     0.028 H 
ATOM     38  H15 non d ame     -11.580   4.752  64.641  0.00  0.00     0.028 H 
ENDBRANCH  33  35
BRANCH  33  39
ATOM     39  C13 non d ame      -9.347   4.654  63.380  0.00  0.00    -0.071 C 
ATOM     40  H16 non d ame      -8.673   5.504  63.281  0.00  0.00     0.028 H 
ATOM     41  H17 non d ame      -8.952   3.809  62.816  0.00  0.00     0.028 H 
ATOM     42  H18 non d ame     -10.329   4.922  62.993  0.00  0.00     0.028 H 
ENDBRANCH  33  39
ENDBRANCH   7  33
ENDBRANCH   4   7
ENDBRANCH   1   3
BRANCH   1  43
ATOM     43  C15 non d ame      -8.532   9.850  65.162  0.00  0.00     0.240 C 
ATOM     44  O5  non d ame      -7.835  10.810  65.236  0.00  0.00    -0.271 OA
ATOM     45  N6  non d ame      -9.882   9.865  65.795  0.00  0.00    -0.355 N 
ATOM     46  H46 non d ame     -10.485   9.058  65.736  0.00  0.00     0.162 HD
BRANCH  45  47
ATOM     47  C20 non d ame     -10.340  11.072  66.517  0.00  0.00     0.013 C 
ATOM     48  H30 non d ame      -9.459  11.590  66.897  0.00  0.00     0.072 H 
BRANCH  47  49
ATOM     49  C21 non d ame     -11.232  10.660  67.666  0.00  0.00    -0.038 C 
ATOM     50  H31 non d ame     -11.991  11.437  67.743  0.00  0.00     0.036 H 
ATOM     51  H32 non d ame     -11.525   9.630  67.457  0.00  0.00     0.036 H 
BRANCH  49  52
ATOM     52  C22 non d ame     -10.491  10.637  69.021  0.00  0.00     0.018 C 
ATOM     53  H33 non d ame      -9.739   9.853  68.934  0.00  0.00     0.048 H 
ATOM     54  H34 non d ame     -10.186  11.666  69.208  0.00  0.00     0.048 H 
BRANCH  52  55
ATOM     55  C23 non d ame     -11.392  10.232  70.221  0.00  0.00     0.259 C 
ATOM     56  O7  non d ame     -10.979   9.509  71.069  0.00  0.00    -0.265 OA
BRANCH  55  57
ATOM     57  O8  non d ame     -12.725  10.724  70.288  0.00  0.00    -0.317 OA
BRANCH  57  58
ATOM     58  C29 non d ame     -13.102  11.208  71.581  0.00  0.00     0.052 C 
ATOM     59  H47 non d ame     -14.142  10.913  71.715  0.00  0.00     0.082 H 
ATOM     60  H48 non d ame     -12.339  10.840  72.267  0.00  0.00     0.082 H 
BRANCH  58  61
ATOM     61  C35 non d ame     -13.029  12.758  71.552  0.00  0.00    -0.034 A 
ATOM     62  C30 non d ame     -12.373  13.406  70.511  0.00  0.00    -0.075 A 
ATOM     63  C31 non d ame     -12.308  14.798  70.485  0.00  0.00    -0.082 A 
ATOM     64  H49 non d ame     -11.911  12.823  69.713  0.00  0.00     0.084 H 
ATOM     65  C32 non d ame     -12.898  15.543  71.509  0.00  0.00    -0.083 A 
ATOM     66  H50 non d ame     -11.796  15.303  69.665  0.00  0.00     0.083 H 
ATOM     67  C33 non d ame     -13.548  14.892  72.550  0.00  0.00    -0.082 A 
ATOM     68  H51 non d ame     -12.852  16.632  71.496  0.00  0.00     0.083 H 
ATOM     69  C34 non d ame     -13.618  13.501  72.577  0.00  0.00    -0.075 A 
ATOM     70  H52 non d ame     -14.006  15.477  73.348  0.00  0.00     0.083 H 
ATOM     71  H53 non d ame     -14.132  12.997  73.397  0.00  0.00     0.084 H 
ENDBRANCH  58  61
ENDBRANCH  57  58
ENDBRANCH  55  57
ENDBRANCH  52  55
ENDBRANCH  49  52
ENDBRANCH  47  49
BRANCH  47  72
ATOM     72  C24 non d ame     -11.119  11.978  65.566  0.00  0.00    -0.039 C 
ATOM     73  H35 non d ame     -10.973  11.550  64.574  0.00  0.00     0.036 H 
ATOM     74  H36 non d ame     -12.122  12.047  65.987  0.00  0.00     0.036 H 
BRANCH  72  75
ATOM     75  C25 non d ame     -10.517  13.462  65.533  0.00  0.00    -0.001 C 
ATOM     76  C26 non d ame      -9.390  13.635  66.718  0.00  0.00    -0.035 C 
ATOM     77  C27 non d ame      -9.682  14.744  67.439  0.00  0.00     0.085 C 
ATOM     78  H38 non d ame      -9.483  12.828  67.444  0.00  0.00     0.036 H 
ATOM     79  H39 non d ame      -8.419  13.865  66.280  0.00  0.00     0.036 H 
ATOM     80  N5  non d ame     -11.084  15.159  67.062  0.00  0.00    -0.049 N 
ATOM     81  H40 non d ame      -9.674  14.424  68.482  0.00  0.00     0.075 H 
ATOM     82  H41 non d ame      -8.983  15.506  67.097  0.00  0.00     0.075 H 
ATOM     83  C28 non d ame     -11.440  14.346  65.713  0.00  0.00     0.193 C 
ATOM     84  H42 non d ame     -11.688  14.833  67.803  0.00  0.00     0.280 HD
ATOM     85  H43 non d ame     -11.042  16.143  66.841  0.00  0.00     0.280 HD
ATOM     86  H44 non d ame     -11.428  14.846  64.745  0.00  0.00     0.129 H 
ATOM     87  H37 non d ame     -10.230  13.768  64.527  0.00  0.00     0.046 H 
BRANCH  83  88
ATOM     88  O6  non d ame     -12.737  13.756  65.821  0.00  0.00    -0.369 OA
ATOM     89  H45 non d ame     -13.387  14.334  65.414  0.00  0.00     0.212 HD
ENDBRANCH  83  88
ENDBRANCH  72  75
ENDBRANCH  47  72
ENDBRANCH  45  47
ENDBRANCH   1  43
BRANCH   1  90
ATOM     90  C16 non d ame      -8.573   8.609  62.977  0.00  0.00    -0.035 C 
ATOM     91  H21 non d ame      -8.757   7.564  62.724  0.00  0.00     0.037 H 
ATOM     92  H22 non d ame      -9.399   9.320  62.989  0.00  0.00     0.037 H 
BRANCH  90  93
ATOM     93  C17 non d ame      -7.547   9.142  61.927  0.00  0.00    -0.059 C 
ATOM     94  H23 non d ame      -7.621   8.510  61.042  0.00  0.00     0.038 H 
BRANCH  93  95
ATOM     95  C18 non d ame      -7.859  10.609  61.490  0.00  0.00    -0.073 C 
ATOM     96  H24 non d ame      -7.959  10.652  60.405  0.00  0.00     0.028 H 
ATOM     97  H25 non d ame      -8.790  10.936  61.953  0.00  0.00     0.028 H 
ATOM     98  H26 non d ame      -7.046  11.263  61.807  0.00  0.00     0.028 H 
ENDBRANCH  93  95
BRANCH  93  99
ATOM     99  C19 non d ame      -6.114   9.023  62.452  0.00  0.00    -0.073 C 
ATOM    100  H27 non d ame      -6.120   9.088  63.541  0.00  0.00     0.028 H 
ATOM    101  H28 non d ame      -5.695   8.064  62.147  0.00  0.00     0.028 H 
ATOM    102  H29 non d ame      -5.508   9.831  62.042  0.00  0.00     0.028 H 
ENDBRANCH  93  99
ENDBRANCH  90  93
ENDBRANCH   1  90
TORSDOF 26
ENDMDL
MODEL 15
REMARK VINA RESULT:      -6.2      2.721      4.939
REMARK  26 active torsions:
REMARK  status: ('A' for Active; 'I' for Inactive)
REMARK    1  A    between atoms: C2_2  and  C3_3 
REMARK    2  A    between atoms: C4_6  and  C5_7 
REMARK       I    between atoms: C5_7  and  N2_9 
REMARK    3  A    between atoms: N2_9  and  C6_10 
REMARK    4  A    between atoms: C6_10  and  C7_11 
REMARK    5  A    between atoms: C6_10  and  C8_13 
REMARK       I    between atoms: C7_11  and  N3_14 
REMARK    6  A    between atoms: N3_14  and  C9_15 
REMARK    7  A    between atoms: C9_15  and  C10_16 
REMARK    8  A    between atoms: C9_15  and  C11_18 
REMARK       I    between atoms: C10_16  and  N4_21 
REMARK    9  A    between atoms: C11_18  and  C12_19 
REMARK   10  A    between atoms: C11_18  and  C13_20 
REMARK   11  A    between atoms: N4_21  and  C14_22 
REMARK   12  A    between atoms: C14_22  and  C15_23 
REMARK   13  A    between atoms: C14_22  and  C16_25 
REMARK       I    between atoms: C15_23  and  N6_40 
REMARK   14  A    between atoms: C16_25  and  C17_26 
REMARK   15  A    between atoms: C17_26  and  C18_27 
REMARK   16  A    between atoms: C17_26  and  C19_28 
REMARK   17  A    between atoms: C20_29  and  C21_30 
REMARK   18  A    between atoms: C20_29  and  C24_33 
REMARK   19  A    between atoms: C20_29  and  N6_40 
REMARK   20  A    between atoms: C21_30  and  C22_31 
REMARK   21  A    between atoms: C22_31  and  C23_32 
REMARK   22  A    between atoms: C23_32  and  O8_43 
REMARK   23  A    between atoms: C24_33  and  C25_34 
REMARK   24  A    between atoms: C28_38  and  O6_39 
REMARK   25  A    between atoms: C29_42  and  O8_43 
REMARK   26  A    between atoms: C29_42  and  C35_49 
ROOT
ATOM      1  C14 non d ame     -10.748   7.775  69.610  0.00  0.00     0.089 C 
ATOM      2  H20 non d ame     -11.787   7.552  69.364  0.00  0.00     0.087 H 
ENDROOT
BRANCH   1   3
ATOM      3  N4  non d ame      -9.923   6.741  69.004  0.00  0.00    -0.346 N 
ATOM      4  C10 non d ame     -10.170   6.304  67.581  0.00  0.00     0.241 C 
ATOM      5  O4  non d ame     -11.042   6.799  66.945  0.00  0.00    -0.271 OA
ATOM      6  H19 non d ame      -9.188   6.330  69.563  0.00  0.00     0.163 HD
BRANCH   4   7
ATOM      7  C9  non d ame      -9.304   5.236  66.969  0.00  0.00     0.092 C 
ATOM      8  H11 non d ame      -9.859   4.734  66.176  0.00  0.00     0.088 H 
BRANCH   7   9
ATOM      9  N3  non d ame      -8.128   5.856  66.348  0.00  0.00    -0.346 N 
ATOM     10  C7  non d ame      -7.925   5.750  64.925  0.00  0.00     0.240 C 
ATOM     11  O3  non d ame      -8.696   5.170  64.262  0.00  0.00    -0.271 OA
ATOM     12  H10 non d ame      -7.454   6.359  66.907  0.00  0.00     0.163 HD
BRANCH  10  13
ATOM     13  C6  non d ame      -6.670   6.409  64.271  0.00  0.00     0.086 C 
ATOM     14  H6  non d ame      -6.867   6.789  63.269  0.00  0.00     0.086 H 
BRANCH  13  15
ATOM     15  N2  non d ame      -6.264   7.550  65.076  0.00  0.00    -0.343 N 
ATOM     16  C5  non d ame      -6.691   8.896  64.688  0.00  0.00     0.273 C 
ATOM     17  O2  non d ame      -7.359   9.050  63.725  0.00  0.00    -0.266 OA
ATOM     18  H5  non d ame      -5.691   7.409  65.896  0.00  0.00     0.163 HD
BRANCH  16  19
ATOM     19  C4  non d ame      -6.270  10.110  65.530  0.00  0.00     0.154 A 
ATOM     20  C1  non d ame      -6.867  10.567  66.748  0.00  0.00    -0.017 A 
ATOM     21  C2  non d ame      -6.117  11.705  67.116  0.00  0.00     0.077 A 
ATOM     22  H1  non d ame      -7.713  10.136  67.284  0.00  0.00     0.091 H 
ATOM     23  O1  non d ame      -5.198  11.874  66.210  0.00  0.00    -0.218 OA
ATOM     24  N1  non d ame      -5.268  10.955  65.274  0.00  0.00    -0.123 NA
BRANCH  21  25
ATOM     25  C3  non d ame      -6.341  12.574  68.347  0.00  0.00    -0.029 C 
ATOM     26  H2  non d ame      -6.734  13.544  68.041  0.00  0.00     0.036 H 
ATOM     27  H3  non d ame      -7.054  12.086  69.011  0.00  0.00     0.036 H 
ATOM     28  H4  non d ame      -5.394  12.714  68.870  0.00  0.00     0.036 H 
ENDBRANCH  21  25
ENDBRANCH  16  19
ENDBRANCH  13  15
BRANCH  13  29
ATOM     29  C8  non d ame      -5.550   5.403  64.200  0.00  0.00    -0.049 C 
ATOM     30  H7  non d ame      -5.292   5.220  63.156  0.00  0.00     0.030 H 
ATOM     31  H8  non d ame      -4.678   5.790  64.727  0.00  0.00     0.030 H 
ATOM     32  H9  non d ame      -5.870   4.470  64.663  0.00  0.00     0.030 H 
ENDBRANCH  13  29
ENDBRANCH  10  13
ENDBRANCH   7   9
BRANCH   7  33
ATOM     33  C11 non d ame      -8.841   4.245  68.076  0.00  0.00    -0.033 C 
ATOM     34  H12 non d ame      -9.280   4.575  69.017  0.00  0.00     0.042 H 
BRANCH  33  35
ATOM     35  C12 non d ame      -9.358   2.799  67.798  0.00  0.00    -0.071 C 
ATOM     36  H13 non d ame      -9.737   2.364  68.722  0.00  0.00     0.028 H 
ATOM     37  H14 non d ame     -10.157   2.835  67.058  0.00  0.00     0.028 H 
ATOM     38  H15 non d ame      -8.538   2.189  67.419  0.00  0.00     0.028 H 
ENDBRANCH  33  35
BRANCH  33  39
ATOM     39  C13 non d ame      -7.286   4.269  68.234  0.00  0.00    -0.071 C 
ATOM     40  H16 non d ame      -7.030   4.517  69.264  0.00  0.00     0.028 H 
ATOM     41  H17 non d ame      -6.880   3.288  67.985  0.00  0.00     0.028 H 
ATOM     42  H18 non d ame      -6.865   5.018  67.564  0.00  0.00     0.028 H 
ENDBRANCH  33  39
ENDBRANCH   7  33
ENDBRANCH   4   7
ENDBRANCH   1   3
BRANCH   1  43
ATOM     43  C15 non d ame     -10.296   9.156  69.054  0.00  0.00     0.240 C 
ATOM     44  O5  non d ame      -9.324   9.680  69.492  0.00  0.00    -0.271 OA
ATOM     45  N6  non d ame     -11.071   9.821  67.968  0.00  0.00    -0.355 N 
ATOM     46  H46 non d ame     -11.896   9.383  67.585  0.00  0.00     0.162 HD
BRANCH  45  47
ATOM     47  C20 non d ame     -10.628  11.133  67.450  0.00  0.00     0.013 C 
ATOM     48  H30 non d ame      -9.732  11.426  67.997  0.00  0.00     0.072 H 
BRANCH  47  49
ATOM     49  C21 non d ame     -11.722  12.153  67.668  0.00  0.00    -0.038 C 
ATOM     50  H31 non d ame     -11.753  12.751  66.758  0.00  0.00     0.036 H 
ATOM     51  H32 non d ame     -12.599  11.583  67.976  0.00  0.00     0.036 H 
BRANCH  49  52
ATOM     52  C22 non d ame     -11.409  13.130  68.823  0.00  0.00     0.018 C 
ATOM     53  H33 non d ame     -12.369  13.551  69.123  0.00  0.00     0.048 H 
ATOM     54  H34 non d ame     -10.816  12.561  69.538  0.00  0.00     0.048 H 
BRANCH  52  55
ATOM     55  C23 non d ame     -10.526  14.337  68.399  0.00  0.00     0.259 C 
ATOM     56  O7  non d ame      -9.463  14.161  67.900  0.00  0.00    -0.265 OA
BRANCH  55  57
ATOM     57  O8  non d ame     -10.998  15.659  68.629  0.00  0.00    -0.317 OA
BRANCH  57  58
ATOM     58  C29 non d ame      -9.979  16.579  69.031  0.00  0.00     0.052 C 
ATOM     59  H47 non d ame     -10.249  16.898  70.036  0.00  0.00     0.082 H 
ATOM     60  H48 non d ame      -9.034  16.065  68.857  0.00  0.00     0.082 H 
BRANCH  58  61
ATOM     61  C35 non d ame     -10.047  17.811  68.089  0.00  0.00    -0.034 A 
ATOM     62  C30 non d ame     -10.425  17.652  66.759  0.00  0.00    -0.075 A 
ATOM     63  C31 non d ame     -10.487  18.759  65.914  0.00  0.00    -0.082 A 
ATOM     64  H49 non d ame     -10.674  16.660  66.380  0.00  0.00     0.084 H 
ATOM     65  C32 non d ame     -10.165  20.028  66.402  0.00  0.00    -0.083 A 
ATOM     66  H50 non d ame     -10.786  18.631  64.873  0.00  0.00     0.083 H 
ATOM     67  C33 non d ame      -9.785  20.182  67.728  0.00  0.00    -0.082 A 
ATOM     68  H51 non d ame     -10.211  20.899  65.747  0.00  0.00     0.083 H 
ATOM     69  C34 non d ame      -9.725  19.078  68.577  0.00  0.00    -0.075 A 
ATOM     70  H52 non d ame      -9.533  21.173  68.105  0.00  0.00     0.083 H 
ATOM     71  H53 non d ame      -9.426  19.207  69.618  0.00  0.00     0.084 H 
ENDBRANCH  58  61
ENDBRANCH  57  58
ENDBRANCH  55  57
ENDBRANCH  52  55
ENDBRANCH  49  52
ENDBRANCH  47  49
BRANCH  47  72
ATOM     72  C24 non d ame     -10.324  11.022  65.957  0.00  0.00    -0.039 C 
ATOM     73  H35 non d ame      -9.238  10.968  65.885  0.00  0.00     0.036 H 
ATOM     74  H36 non d ame     -10.935  10.194  65.597  0.00  0.00     0.036 H 
BRANCH  72  75
ATOM     75  C25 non d ame     -10.786  12.332  65.158  0.00  0.00    -0.001 C 
ATOM     76  C26 non d ame     -12.378  12.214  64.763  0.00  0.00    -0.035 C 
ATOM     77  C27 non d ame     -12.518  12.462  63.439  0.00  0.00     0.085 C 
ATOM     78  H38 non d ame     -12.714  11.183  64.866  0.00  0.00     0.036 H 
ATOM     79  H39 non d ame     -12.940  13.020  65.234  0.00  0.00     0.036 H 
ATOM     80  N5  non d ame     -11.135  12.415  62.832  0.00  0.00    -0.049 N 
ATOM     81  H40 non d ame     -13.106  11.632  63.047  0.00  0.00     0.075 H 
ATOM     82  H41 non d ame     -12.900  13.480  63.372  0.00  0.00     0.075 H 
ATOM     83  C28 non d ame     -10.104  12.483  64.072  0.00  0.00     0.193 C 
ATOM     84  H42 non d ame     -11.048  11.512  62.391  0.00  0.00     0.280 HD
ATOM     85  H43 non d ame     -11.034  13.257  62.284  0.00  0.00     0.280 HD
ATOM     86  H44 non d ame      -9.571  13.406  64.300  0.00  0.00     0.129 H 
ATOM     87  H37 non d ame     -10.463  13.250  65.650  0.00  0.00     0.046 H 
BRANCH  83  88
ATOM     88  O6  non d ame      -9.092  11.484  63.928  0.00  0.00    -0.369 OA
ATOM     89  H45 non d ame      -9.320  10.720  64.463  0.00  0.00     0.212 HD
ENDBRANCH  83  88
ENDBRANCH  72  75
ENDBRANCH  47  72
ENDBRANCH  45  47
ENDBRANCH   1  43
BRANCH   1  90
ATOM     90  C16 non d ame     -10.557   7.743  71.117  0.00  0.00    -0.035 C 
ATOM     91  H21 non d ame     -10.189   6.740  71.340  0.00  0.00     0.037 H 
ATOM     92  H22 non d ame      -9.943   8.612  71.349  0.00  0.00     0.037 H 
BRANCH  90  93
ATOM     93  C17 non d ame     -11.885   7.914  71.921  0.00  0.00    -0.059 C 
ATOM     94  H23 non d ame     -11.668   7.699  72.967  0.00  0.00     0.038 H 
BRANCH  93  95
ATOM     95  C18 non d ame     -12.441   9.372  71.839  0.00  0.00    -0.073 C 
ATOM     96  H24 non d ame     -11.959   9.898  71.015  0.00  0.00     0.028 H 
ATOM     97  H25 non d ame     -13.517   9.341  71.671  0.00  0.00     0.028 H 
ATOM     98  H26 non d ame     -12.233   9.892  72.775  0.00  0.00     0.028 H 
ENDBRANCH  93  95
BRANCH  93  99
ATOM     99  C19 non d ame     -12.939   6.903  71.460  0.00  0.00    -0.073 C 
ATOM    100  H27 non d ame     -13.916   7.386  71.428  0.00  0.00     0.028 H 
ATOM    101  H28 non d ame     -12.680   6.539  70.465  0.00  0.00     0.028 H 
ATOM    102  H29 non d ame     -12.969   6.065  72.156  0.00  0.00     0.028 H 
ENDBRANCH  93  99
ENDBRANCH  90  93
ENDBRANCH   1  90
TORSDOF 26
ENDMDL
MODEL 16
REMARK VINA RESULT:      -6.2      2.768      7.102
REMARK  26 active torsions:
REMARK  status: ('A' for Active; 'I' for Inactive)
REMARK    1  A    between atoms: C2_2  and  C3_3 
REMARK    2  A    between atoms: C4_6  and  C5_7 
REMARK       I    between atoms: C5_7  and  N2_9 
REMARK    3  A    between atoms: N2_9  and  C6_10 
REMARK    4  A    between atoms: C6_10  and  C7_11 
REMARK    5  A    between atoms: C6_10  and  C8_13 
REMARK       I    between atoms: C7_11  and  N3_14 
REMARK    6  A    between atoms: N3_14  and  C9_15 
REMARK    7  A    between atoms: C9_15  and  C10_16 
REMARK    8  A    between atoms: C9_15  and  C11_18 
REMARK       I    between atoms: C10_16  and  N4_21 
REMARK    9  A    between atoms: C11_18  and  C12_19 
REMARK   10  A    between atoms: C11_18  and  C13_20 
REMARK   11  A    between atoms: N4_21  and  C14_22 
REMARK   12  A    between atoms: C14_22  and  C15_23 
REMARK   13  A    between atoms: C14_22  and  C16_25 
REMARK       I    between atoms: C15_23  and  N6_40 
REMARK   14  A    between atoms: C16_25  and  C17_26 
REMARK   15  A    between atoms: C17_26  and  C18_27 
REMARK   16  A    between atoms: C17_26  and  C19_28 
REMARK   17  A    between atoms: C20_29  and  C21_30 
REMARK   18  A    between atoms: C20_29  and  C24_33 
REMARK   19  A    between atoms: C20_29  and  N6_40 
REMARK   20  A    between atoms: C21_30  and  C22_31 
REMARK   21  A    between atoms: C22_31  and  C23_32 
REMARK   22  A    between atoms: C23_32  and  O8_43 
REMARK   23  A    between atoms: C24_33  and  C25_34 
REMARK   24  A    between atoms: C28_38  and  O6_39 
REMARK   25  A    between atoms: C29_42  and  O8_43 
REMARK   26  A    between atoms: C29_42  and  C35_49 
ROOT
ATOM      1  C14 non d ame      -8.804   6.167  67.788  0.00  0.00     0.089 C 
ATOM      2  H20 non d ame      -8.092   5.383  68.048  0.00  0.00     0.087 H 
ENDROOT
BRANCH   1   3
ATOM      3  N4  non d ame      -9.208   6.821  69.024  0.00  0.00    -0.346 N 
ATOM      4  C10 non d ame      -9.208   6.057  70.325  0.00  0.00     0.241 C 
ATOM      5  O4  non d ame      -8.882   4.916  70.350  0.00  0.00    -0.271 OA
ATOM      6  H19 non d ame      -9.484   7.792  68.981  0.00  0.00     0.163 HD
BRANCH   4   7
ATOM      7  C9  non d ame      -9.623   6.750  71.595  0.00  0.00     0.092 C 
ATOM      8  H11 non d ame      -8.832   7.431  71.908  0.00  0.00     0.088 H 
BRANCH   7   9
ATOM      9  N3  non d ame     -10.817   7.563  71.341  0.00  0.00    -0.346 N 
ATOM     10  C7  non d ame     -10.743   9.000  71.429  0.00  0.00     0.240 C 
ATOM     11  O3  non d ame      -9.731   9.521  71.704  0.00  0.00    -0.271 OA
ATOM     12  H10 non d ame     -11.698   7.128  71.104  0.00  0.00     0.163 HD
BRANCH  10  13
ATOM     13  C6  non d ame     -12.018   9.859  71.161  0.00  0.00     0.086 C 
ATOM     14  H6  non d ame     -12.054  10.763  71.769  0.00  0.00     0.086 H 
BRANCH  13  15
ATOM     15  N2  non d ame     -12.010  10.292  69.773  0.00  0.00    -0.343 N 
ATOM     16  C5  non d ame     -11.984  11.723  69.463  0.00  0.00     0.273 C 
ATOM     17  O2  non d ame     -11.973  12.518  70.338  0.00  0.00    -0.266 OA
ATOM     18  H5  non d ame     -12.023   9.606  69.032  0.00  0.00     0.163 HD
BRANCH  16  19
ATOM     19  C4  non d ame     -11.975  12.195  68.001  0.00  0.00     0.154 A 
ATOM     20  C1  non d ame     -11.990  13.545  67.527  0.00  0.00    -0.017 A 
ATOM     21  C2  non d ame     -11.972  13.436  66.119  0.00  0.00     0.077 A 
ATOM     22  H1  non d ame     -12.010  14.463  68.115  0.00  0.00     0.091 H 
ATOM     23  O1  non d ame     -11.948  12.168  65.828  0.00  0.00    -0.218 OA
ATOM     24  N1  non d ame     -11.949  11.424  66.910  0.00  0.00    -0.123 NA
BRANCH  21  25
ATOM     25  C3  non d ame     -11.978  14.591  65.126  0.00  0.00    -0.029 C 
ATOM     26  H2  non d ame     -11.590  14.247  64.166  0.00  0.00     0.036 H 
ATOM     27  H3  non d ame     -12.996  14.954  64.997  0.00  0.00     0.036 H 
ATOM     28  H4  non d ame     -11.349  15.398  65.503  0.00  0.00     0.036 H 
ENDBRANCH  21  25
ENDBRANCH  16  19
ENDBRANCH  13  15
BRANCH  13  29
ATOM     29  C8  non d ame     -13.250   9.036  71.438  0.00  0.00    -0.049 C 
ATOM     30  H7  non d ame     -13.035   7.984  71.246  0.00  0.00     0.030 H 
ATOM     31  H8  non d ame     -13.546   9.162  72.479  0.00  0.00     0.030 H 
ATOM     32  H9  non d ame     -14.060   9.364  70.786  0.00  0.00     0.030 H 
ENDBRANCH  13  29
ENDBRANCH  10  13
ENDBRANCH   7   9
BRANCH   7  33
ATOM     33  C11 non d ame      -9.945   5.686  72.685  0.00  0.00    -0.033 C 
ATOM     34  H12 non d ame      -9.407   4.776  72.425  0.00  0.00     0.042 H 
BRANCH  33  35
ATOM     35  C12 non d ame      -9.445   6.143  74.091  0.00  0.00    -0.071 C 
ATOM     36  H13 non d ame     -10.141   5.796  74.855  0.00  0.00     0.028 H 
ATOM     37  H14 non d ame      -8.458   5.721  74.280  0.00  0.00     0.028 H 
ATOM     38  H15 non d ame      -9.388   7.230  74.119  0.00  0.00     0.028 H 
ENDBRANCH  33  35
BRANCH  33  39
ATOM     39  C13 non d ame     -11.472   5.355  72.709  0.00  0.00    -0.071 C 
ATOM     40  H16 non d ame     -11.710   4.804  73.618  0.00  0.00     0.028 H 
ATOM     41  H17 non d ame     -12.046   6.282  72.685  0.00  0.00     0.028 H 
ATOM     42  H18 non d ame     -11.726   4.749  71.839  0.00  0.00     0.028 H 
ENDBRANCH  33  39
ENDBRANCH   7  33
ENDBRANCH   4   7
ENDBRANCH   1   3
BRANCH   1  43
ATOM     43  C15 non d ame      -8.182   7.236  66.844  0.00  0.00     0.240 C 
ATOM     44  O5  non d ame      -7.013   7.444  66.876  0.00  0.00    -0.271 OA
ATOM     45  N6  non d ame      -9.044   7.994  65.893  0.00  0.00    -0.355 N 
ATOM     46  H46 non d ame     -10.038   7.823  65.854  0.00  0.00     0.162 HD
BRANCH  45  47
ATOM     47  C20 non d ame      -8.438   9.006  65.002  0.00  0.00     0.013 C 
ATOM     48  H30 non d ame      -7.358   8.860  65.014  0.00  0.00     0.072 H 
BRANCH  47  49
ATOM     49  C21 non d ame      -8.778  10.389  65.510  0.00  0.00    -0.038 C 
ATOM     50  H31 non d ame      -8.673  11.052  64.651  0.00  0.00     0.036 H 
ATOM     51  H32 non d ame      -9.743  10.290  66.008  0.00  0.00     0.036 H 
BRANCH  49  52
ATOM     52  C22 non d ame      -7.784  10.896  66.577  0.00  0.00     0.018 C 
ATOM     53  H33 non d ame      -7.643  10.065  67.268  0.00  0.00     0.048 H 
ATOM     54  H34 non d ame      -6.934  11.294  66.024  0.00  0.00     0.048 H 
BRANCH  52  55
ATOM     55  C23 non d ame      -8.329  12.074  67.431  0.00  0.00     0.259 C 
ATOM     56  O7  non d ame      -8.539  11.930  68.592  0.00  0.00    -0.265 OA
BRANCH  55  57
ATOM     57  O8  non d ame      -8.589  13.325  66.807  0.00  0.00    -0.317 OA
BRANCH  57  58
ATOM     58  C29 non d ame      -7.869  14.422  67.380  0.00  0.00     0.052 C 
ATOM     59  H47 non d ame      -7.672  14.137  68.413  0.00  0.00     0.082 H 
ATOM     60  H48 non d ame      -7.039  14.616  66.701  0.00  0.00     0.082 H 
BRANCH  58  61
ATOM     61  C35 non d ame      -8.804  15.660  67.379  0.00  0.00    -0.034 A 
ATOM     62  C30 non d ame      -8.996  16.389  66.210  0.00  0.00    -0.075 A 
ATOM     63  C31 non d ame      -9.836  17.501  66.210  0.00  0.00    -0.082 A 
ATOM     64  H49 non d ame      -8.489  16.087  65.293  0.00  0.00     0.084 H 
ATOM     65  C32 non d ame     -10.482  17.887  67.387  0.00  0.00    -0.083 A 
ATOM     66  H50 non d ame      -9.987  18.068  65.291  0.00  0.00     0.083 H 
ATOM     67  C33 non d ame     -10.284  17.160  68.554  0.00  0.00    -0.082 A 
ATOM     68  H51 non d ame     -11.141  18.756  67.396  0.00  0.00     0.083 H 
ATOM     69  C34 non d ame      -9.448  16.046  68.557  0.00  0.00    -0.075 A 
ATOM     70  H52 non d ame     -10.789  17.465  69.471  0.00  0.00     0.083 H 
ATOM     71  H53 non d ame      -9.299  15.479  69.477  0.00  0.00     0.084 H 
ENDBRANCH  58  61
ENDBRANCH  57  58
ENDBRANCH  55  57
ENDBRANCH  52  55
ENDBRANCH  49  52
ENDBRANCH  47  49
BRANCH  47  72
ATOM     72  C24 non d ame      -8.980   8.835  63.584  0.00  0.00    -0.039 C 
ATOM     73  H35 non d ame      -9.720   8.038  63.651  0.00  0.00     0.036 H 
ATOM     74  H36 non d ame      -9.282   9.834  63.266  0.00  0.00     0.036 H 
BRANCH  72  75
ATOM     75  C25 non d ame      -7.843   8.341  62.569  0.00  0.00    -0.001 C 
ATOM     76  C26 non d ame      -6.517   7.851  63.410  0.00  0.00    -0.035 C 
ATOM     77  C27 non d ame      -5.426   8.474  62.903  0.00  0.00     0.085 C 
ATOM     78  H38 non d ame      -6.567   8.219  64.434  0.00  0.00     0.036 H 
ATOM     79  H39 non d ame      -6.321   6.797  63.218  0.00  0.00     0.036 H 
ATOM     80  N5  non d ame      -5.926   9.587  62.013  0.00  0.00    -0.049 N 
ATOM     81  H40 non d ame      -4.913   8.909  63.762  0.00  0.00     0.075 H 
ATOM     82  H41 non d ame      -4.924   7.727  62.289  0.00  0.00     0.075 H 
ATOM     83  C28 non d ame      -7.491   9.285  61.762  0.00  0.00     0.193 C 
ATOM     84  H42 non d ame      -5.843  10.439  62.548  0.00  0.00     0.280 HD
ATOM     85  H43 non d ame      -5.436   9.492  61.135  0.00  0.00     0.280 HD
ATOM     86  H44 non d ame      -7.832   8.873  60.813  0.00  0.00     0.129 H 
ATOM     87  H37 non d ame      -8.233   7.656  61.815  0.00  0.00     0.046 H 
BRANCH  83  88
ATOM     88  O6  non d ame      -8.260  10.474  61.958  0.00  0.00    -0.369 OA
ATOM     89  H45 non d ame      -7.870  11.193  61.456  0.00  0.00     0.212 HD
ENDBRANCH  83  88
ENDBRANCH  72  75
ENDBRANCH  47  72
ENDBRANCH  45  47
ENDBRANCH   1  43
BRANCH   1  90
ATOM     90  C16 non d ame     -10.029   5.554  67.129  0.00  0.00    -0.035 C 
ATOM     91  H21 non d ame     -10.578   5.067  67.937  0.00  0.00     0.037 H 
ATOM     92  H22 non d ame     -10.491   6.365  66.567  0.00  0.00     0.037 H 
BRANCH  90  93
ATOM     93  C17 non d ame      -9.689   4.436  66.092  0.00  0.00    -0.059 C 
ATOM     94  H23 non d ame      -8.801   4.752  65.545  0.00  0.00     0.038 H 
BRANCH  93  95
ATOM     95  C18 non d ame      -9.364   3.072  66.781  0.00  0.00    -0.073 C 
ATOM     96  H24 non d ame     -10.004   2.944  67.653  0.00  0.00     0.028 H 
ATOM     97  H25 non d ame      -9.541   2.259  66.077  0.00  0.00     0.028 H 
ATOM     98  H26 non d ame      -8.319   3.062  67.091  0.00  0.00     0.028 H 
ENDBRANCH  93  95
BRANCH  93  99
ATOM     99  C19 non d ame     -10.818   4.275  65.071  0.00  0.00    -0.073 C 
ATOM    100  H27 non d ame     -10.584   3.450  64.398  0.00  0.00     0.028 H 
ATOM    101  H28 non d ame     -11.752   4.065  65.594  0.00  0.00     0.028 H 
ATOM    102  H29 non d ame     -10.924   5.195  64.497  0.00  0.00     0.028 H 
ENDBRANCH  93  99
ENDBRANCH  90  93
ENDBRANCH   1  90
TORSDOF 26
ENDMDL
MODEL 17
REMARK VINA RESULT:      -6.2      3.342      9.822
REMARK  26 active torsions:
REMARK  status: ('A' for Active; 'I' for Inactive)
REMARK    1  A    between atoms: C2_2  and  C3_3 
REMARK    2  A    between atoms: C4_6  and  C5_7 
REMARK       I    between atoms: C5_7  and  N2_9 
REMARK    3  A    between atoms: N2_9  and  C6_10 
REMARK    4  A    between atoms: C6_10  and  C7_11 
REMARK    5  A    between atoms: C6_10  and  C8_13 
REMARK       I    between atoms: C7_11  and  N3_14 
REMARK    6  A    between atoms: N3_14  and  C9_15 
REMARK    7  A    between atoms: C9_15  and  C10_16 
REMARK    8  A    between atoms: C9_15  and  C11_18 
REMARK       I    between atoms: C10_16  and  N4_21 
REMARK    9  A    between atoms: C11_18  and  C12_19 
REMARK   10  A    between atoms: C11_18  and  C13_20 
REMARK   11  A    between atoms: N4_21  and  C14_22 
REMARK   12  A    between atoms: C14_22  and  C15_23 
REMARK   13  A    between atoms: C14_22  and  C16_25 
REMARK       I    between atoms: C15_23  and  N6_40 
REMARK   14  A    between atoms: C16_25  and  C17_26 
REMARK   15  A    between atoms: C17_26  and  C18_27 
REMARK   16  A    between atoms: C17_26  and  C19_28 
REMARK   17  A    between atoms: C20_29  and  C21_30 
REMARK   18  A    between atoms: C20_29  and  C24_33 
REMARK   19  A    between atoms: C20_29  and  N6_40 
REMARK   20  A    between atoms: C21_30  and  C22_31 
REMARK   21  A    between atoms: C22_31  and  C23_32 
REMARK   22  A    between atoms: C23_32  and  O8_43 
REMARK   23  A    between atoms: C24_33  and  C25_34 
REMARK   24  A    between atoms: C28_38  and  O6_39 
REMARK   25  A    between atoms: C29_42  and  O8_43 
REMARK   26  A    between atoms: C29_42  and  C35_49 
ROOT
ATOM      1  C14 non d ame      -8.348   8.866  63.098  0.00  0.00     0.089 C 
ATOM      2  H20 non d ame      -9.199   9.116  62.463  0.00  0.00     0.087 H 
ENDROOT
BRANCH   1   3
ATOM      3  N4  non d ame      -8.547   9.529  64.378  0.00  0.00    -0.346 N 
ATOM      4  C10 non d ame      -9.718  10.458  64.582  0.00  0.00     0.241 C 
ATOM      5  O4  non d ame     -10.486  10.657  63.698  0.00  0.00    -0.271 OA
ATOM      6  H19 non d ame      -7.881   9.349  65.116  0.00  0.00     0.163 HD
BRANCH   4   7
ATOM      7  C9  non d ame      -9.912  11.132  65.914  0.00  0.00     0.092 C 
ATOM      8  H11 non d ame      -8.940  11.288  66.383  0.00  0.00     0.088 H 
BRANCH   7   9
ATOM      9  N3  non d ame     -10.510  12.456  65.710  0.00  0.00    -0.346 N 
ATOM     10  C7  non d ame      -9.848  13.631  66.218  0.00  0.00     0.240 C 
ATOM     11  O3  non d ame      -8.834  13.533  66.794  0.00  0.00    -0.271 OA
ATOM     12  H10 non d ame     -11.385  12.557  65.215  0.00  0.00     0.163 HD
BRANCH  10  13
ATOM     13  C6  non d ame     -10.491  15.037  66.000  0.00  0.00     0.086 C 
ATOM     14  H6  non d ame     -11.088  15.364  66.852  0.00  0.00     0.086 H 
BRANCH  13  15
ATOM     15  N2  non d ame      -9.432  16.019  65.833  0.00  0.00    -0.343 N 
ATOM     16  C5  non d ame      -9.419  17.217  66.675  0.00  0.00     0.273 C 
ATOM     17  O2  non d ame     -10.266  17.383  67.482  0.00  0.00    -0.266 OA
ATOM     18  H5  non d ame      -8.714  15.870  65.139  0.00  0.00     0.163 HD
BRANCH  16  19
ATOM     19  C4  non d ame      -8.305  18.262  66.509  0.00  0.00     0.154 A 
ATOM     20  C1  non d ame      -7.931  19.283  67.440  0.00  0.00    -0.017 A 
ATOM     21  C2  non d ame      -6.864  19.968  66.818  0.00  0.00     0.077 A 
ATOM     22  H1  non d ame      -8.366  19.493  68.417  0.00  0.00     0.091 H 
ATOM     23  O1  non d ame      -6.656  19.399  65.667  0.00  0.00    -0.218 OA
ATOM     24  N1  non d ame      -7.485  18.400  65.464  0.00  0.00    -0.123 NA
BRANCH  21  25
ATOM     25  C3  non d ame      -6.098  21.153  67.391  0.00  0.00    -0.029 C 
ATOM     26  H2  non d ame      -5.256  21.391  66.741  0.00  0.00     0.036 H 
ATOM     27  H3  non d ame      -6.760  22.015  67.459  0.00  0.00     0.036 H 
ATOM     28  H4  non d ame      -5.728  20.900  68.386  0.00  0.00     0.036 H 
ENDBRANCH  21  25
ENDBRANCH  16  19
ENDBRANCH  13  15
BRANCH  13  29
ATOM     29  C8  non d ame     -11.367  15.008  64.774  0.00  0.00    -0.049 C 
ATOM     30  H7  non d ame     -11.750  16.009  64.577  0.00  0.00     0.030 H 
ATOM     31  H8  non d ame     -10.784  14.667  63.918  0.00  0.00     0.030 H 
ATOM     32  H9  non d ame     -12.202  14.327  64.940  0.00  0.00     0.030 H 
ENDBRANCH  13  29
ENDBRANCH  10  13
ENDBRANCH   7   9
BRANCH   7  33
ATOM     33  C11 non d ame     -10.858  10.269  66.799  0.00  0.00    -0.033 C 
ATOM     34  H12 non d ame     -11.746  10.046  66.211  0.00  0.00     0.042 H 
BRANCH  33  35
ATOM     35  C12 non d ame     -10.194   8.909  67.182  0.00  0.00    -0.071 C 
ATOM     36  H13 non d ame     -10.310   8.204  66.360  0.00  0.00     0.028 H 
ATOM     37  H14 non d ame      -9.134   9.066  67.380  0.00  0.00     0.028 H 
ATOM     38  H15 non d ame     -10.676   8.510  68.074  0.00  0.00     0.028 H 
ENDBRANCH  33  35
BRANCH  33  39
ATOM     39  C13 non d ame     -11.306  11.058  68.072  0.00  0.00    -0.071 C 
ATOM     40  H16 non d ame     -12.317  10.758  68.347  0.00  0.00     0.028 H 
ATOM     41  H17 non d ame     -10.625  10.837  68.895  0.00  0.00     0.028 H 
ATOM     42  H18 non d ame     -11.288  12.127  67.862  0.00  0.00     0.028 H 
ENDBRANCH  33  39
ENDBRANCH   7  33
ENDBRANCH   4   7
ENDBRANCH   1   3
BRANCH   1  43
ATOM     43  C15 non d ame      -8.231   7.335  63.348  0.00  0.00     0.240 C 
ATOM     44  O5  non d ame      -7.926   6.612  62.456  0.00  0.00    -0.271 OA
ATOM     45  N6  non d ame      -8.490   6.771  64.704  0.00  0.00    -0.355 N 
ATOM     46  H46 non d ame      -8.746   7.376  65.470  0.00  0.00     0.162 HD
BRANCH  45  47
ATOM     47  C20 non d ame      -8.374   5.314  64.925  0.00  0.00     0.013 C 
ATOM     48  H30 non d ame      -8.255   4.835  63.954  0.00  0.00     0.072 H 
BRANCH  47  49
ATOM     49  C21 non d ame      -9.629   4.808  65.600  0.00  0.00    -0.038 C 
ATOM     50  H31 non d ame     -10.455   5.146  64.975  0.00  0.00     0.036 H 
ATOM     51  H32 non d ame      -9.468   3.742  65.761  0.00  0.00     0.036 H 
BRANCH  49  52
ATOM     52  C22 non d ame      -9.853   5.433  66.994  0.00  0.00     0.018 C 
ATOM     53  H33 non d ame      -9.041   6.148  67.132  0.00  0.00     0.048 H 
ATOM     54  H34 non d ame     -10.887   5.775  67.002  0.00  0.00     0.048 H 
BRANCH  52  55
ATOM     55  C23 non d ame      -9.729   4.416  68.163  0.00  0.00     0.259 C 
ATOM     56  O7  non d ame      -9.440   3.283  67.949  0.00  0.00    -0.265 OA
BRANCH  55  57
ATOM     57  O8  non d ame      -9.979   4.850  69.494  0.00  0.00    -0.317 OA
BRANCH  57  58
ATOM     58  C29 non d ame      -9.335   6.082  69.835  0.00  0.00     0.052 C 
ATOM     59  H47 non d ame      -8.591   5.827  70.587  0.00  0.00     0.082 H 
ATOM     60  H48 non d ame      -9.025   6.523  68.888  0.00  0.00     0.082 H 
BRANCH  58  61
ATOM     61  C35 non d ame     -10.394   7.011  70.485  0.00  0.00    -0.034 A 
ATOM     62  C30 non d ame     -10.064   8.322  70.815  0.00  0.00    -0.075 A 
ATOM     63  C31 non d ame     -11.016   9.156  71.399  0.00  0.00    -0.082 A 
ATOM     64  H49 non d ame      -9.059   8.695  70.614  0.00  0.00     0.084 H 
ATOM     65  C32 non d ame     -12.301   8.674  71.657  0.00  0.00    -0.083 A 
ATOM     66  H50 non d ame     -10.754  10.184  71.653  0.00  0.00     0.083 H 
ATOM     67  C33 non d ame     -12.626   7.365  71.330  0.00  0.00    -0.082 A 
ATOM     68  H51 non d ame     -13.052   9.321  72.113  0.00  0.00     0.083 H 
ATOM     69  C34 non d ame     -11.678   6.528  70.744  0.00  0.00    -0.075 A 
ATOM     70  H52 non d ame     -13.630   6.992  71.535  0.00  0.00     0.083 H 
ATOM     71  H53 non d ame     -11.942   5.501  70.489  0.00  0.00     0.084 H 
ENDBRANCH  58  61
ENDBRANCH  57  58
ENDBRANCH  55  57
ENDBRANCH  52  55
ENDBRANCH  49  52
ENDBRANCH  47  49
BRANCH  47  72
ATOM     72  C24 non d ame      -7.165   5.022  65.812  0.00  0.00    -0.039 C 
ATOM     73  H35 non d ame      -7.475   5.293  66.822  0.00  0.00     0.036 H 
ATOM     74  H36 non d ame      -6.882   3.993  65.588  0.00  0.00     0.036 H 
BRANCH  72  75
ATOM     75  C25 non d ame      -5.915   5.950  65.436  0.00  0.00    -0.001 C 
ATOM     76  C26 non d ame      -4.709   5.031  64.799  0.00  0.00    -0.035 C 
ATOM     77  C27 non d ame      -3.557   5.306  65.458  0.00  0.00     0.085 C 
ATOM     78  H38 non d ame      -4.883   3.979  65.020  0.00  0.00     0.036 H 
ATOM     79  H39 non d ame      -4.498   5.346  63.777  0.00  0.00     0.036 H 
ATOM     80  N5  non d ame      -3.933   6.083  66.698  0.00  0.00    -0.049 N 
ATOM     81  H40 non d ame      -3.152   4.338  65.754  0.00  0.00     0.075 H 
ATOM     82  H41 non d ame      -2.988   5.954  64.792  0.00  0.00     0.075 H 
ATOM     83  C28 non d ame      -5.457   6.564  66.475  0.00  0.00     0.193 C 
ATOM     84  H42 non d ame      -3.911   5.426  67.464  0.00  0.00     0.280 HD
ATOM     85  H43 non d ame      -3.338   6.899  66.715  0.00  0.00     0.280 HD
ATOM     86  H44 non d ame      -5.679   7.597  66.209  0.00  0.00     0.129 H 
ATOM     87  H37 non d ame      -6.213   6.835  64.874  0.00  0.00     0.046 H 
BRANCH  83  88
ATOM     88  O6  non d ame      -6.234   6.296  67.644  0.00  0.00    -0.369 OA
ATOM     89  H45 non d ame      -7.042   6.815  67.616  0.00  0.00     0.212 HD
ENDBRANCH  83  88
ENDBRANCH  72  75
ENDBRANCH  47  72
ENDBRANCH  45  47
ENDBRANCH   1  43
BRANCH   1  90
ATOM     90  C16 non d ame      -7.065   9.381  62.467  0.00  0.00    -0.035 C 
ATOM     91  H21 non d ame      -6.875   8.720  61.620  0.00  0.00     0.037 H 
ATOM     92  H22 non d ame      -7.233  10.445  62.300  0.00  0.00     0.037 H 
BRANCH  90  93
ATOM     93  C17 non d ame      -5.818   9.271  63.401  0.00  0.00    -0.059 C 
ATOM     94  H23 non d ame      -6.156   8.871  64.356  0.00  0.00     0.038 H 
BRANCH  93  95
ATOM     95  C18 non d ame      -4.739   8.296  62.830  0.00  0.00    -0.073 C 
ATOM     96  H24 non d ame      -5.210   7.595  62.142  0.00  0.00     0.028 H 
ATOM     97  H25 non d ame      -3.977   8.868  62.302  0.00  0.00     0.028 H 
ATOM     98  H26 non d ame      -4.277   7.746  63.651  0.00  0.00     0.028 H 
ENDBRANCH  93  95
BRANCH  93  99
ATOM     99  C19 non d ame      -5.216  10.652  63.674  0.00  0.00    -0.073 C 
ATOM    100  H27 non d ame      -5.832  11.179  64.403  0.00  0.00     0.028 H 
ATOM    101  H28 non d ame      -4.205  10.534  64.067  0.00  0.00     0.028 H 
ATOM    102  H29 non d ame      -5.180  11.223  62.746  0.00  0.00     0.028 H 
ENDBRANCH  93  99
ENDBRANCH  90  93
ENDBRANCH   1  90
TORSDOF 26
ENDMDL
MODEL 18
REMARK VINA RESULT:      -6.1      2.652      9.134
REMARK  26 active torsions:
REMARK  status: ('A' for Active; 'I' for Inactive)
REMARK    1  A    between atoms: C2_2  and  C3_3 
REMARK    2  A    between atoms: C4_6  and  C5_7 
REMARK       I    between atoms: C5_7  and  N2_9 
REMARK    3  A    between atoms: N2_9  and  C6_10 
REMARK    4  A    between atoms: C6_10  and  C7_11 
REMARK    5  A    between atoms: C6_10  and  C8_13 
REMARK       I    between atoms: C7_11  and  N3_14 
REMARK    6  A    between atoms: N3_14  and  C9_15 
REMARK    7  A    between atoms: C9_15  and  C10_16 
REMARK    8  A    between atoms: C9_15  and  C11_18 
REMARK       I    between atoms: C10_16  and  N4_21 
REMARK    9  A    between atoms: C11_18  and  C12_19 
REMARK   10  A    between atoms: C11_18  and  C13_20 
REMARK   11  A    between atoms: N4_21  and  C14_22 
REMARK   12  A    between atoms: C14_22  and  C15_23 
REMARK   13  A    between atoms: C14_22  and  C16_25 
REMARK       I    between atoms: C15_23  and  N6_40 
REMARK   14  A    between atoms: C16_25  and  C17_26 
REMARK   15  A    between atoms: C17_26  and  C18_27 
REMARK   16  A    between atoms: C17_26  and  C19_28 
REMARK   17  A    between atoms: C20_29  and  C21_30 
REMARK   18  A    between atoms: C20_29  and  C24_33 
REMARK   19  A    between atoms: C20_29  and  N6_40 
REMARK   20  A    between atoms: C21_30  and  C22_31 
REMARK   21  A    between atoms: C22_31  and  C23_32 
REMARK   22  A    between atoms: C23_32  and  O8_43 
REMARK   23  A    between atoms: C24_33  and  C25_34 
REMARK   24  A    between atoms: C28_38  and  O6_39 
REMARK   25  A    between atoms: C29_42  and  O8_43 
REMARK   26  A    between atoms: C29_42  and  C35_49 
ROOT
ATOM      1  C14 non d ame      -6.830  15.420  67.678  0.00  0.00     0.089 C 
ATOM      2  H20 non d ame      -6.263  15.731  66.799  0.00  0.00     0.087 H 
ENDROOT
BRANCH   1   3
ATOM      3  N4  non d ame      -8.199  15.882  67.501  0.00  0.00    -0.346 N 
ATOM      4  C10 non d ame      -8.516  16.957  66.491  0.00  0.00     0.241 C 
ATOM      5  O4  non d ame      -7.651  17.437  65.835  0.00  0.00    -0.271 OA
ATOM      6  H19 non d ame      -8.920  15.463  68.071  0.00  0.00     0.163 HD
BRANCH   4   7
ATOM      7  C9  non d ame      -9.938  17.420  66.318  0.00  0.00     0.092 C 
ATOM      8  H11 non d ame     -10.145  17.553  65.256  0.00  0.00     0.088 H 
BRANCH   7   9
ATOM      9  N3  non d ame     -10.853  16.384  66.809  0.00  0.00    -0.346 N 
ATOM     10  C7  non d ame     -10.806  15.057  66.249  0.00  0.00     0.240 C 
ATOM     11  O3  non d ame     -10.040  14.803  65.401  0.00  0.00    -0.271 OA
ATOM     12  H10 non d ame     -11.520  16.588  67.540  0.00  0.00     0.163 HD
BRANCH  10  13
ATOM     13  C6  non d ame     -11.784  13.960  66.774  0.00  0.00     0.086 C 
ATOM     14  H6  non d ame     -11.286  13.012  66.977  0.00  0.00     0.086 H 
BRANCH  13  15
ATOM     15  N2  non d ame     -12.359  14.405  68.033  0.00  0.00    -0.343 N 
ATOM     16  C5  non d ame     -11.732  14.006  69.295  0.00  0.00     0.273 C 
ATOM     17  O2  non d ame     -10.767  13.324  69.286  0.00  0.00    -0.266 OA
ATOM     18  H5  non d ame     -13.186  14.985  68.031  0.00  0.00     0.163 HD
BRANCH  16  19
ATOM     19  C4  non d ame     -12.329  14.470  70.632  0.00  0.00     0.154 A 
ATOM     20  C1  non d ame     -11.625  15.031  71.745  0.00  0.00    -0.017 A 
ATOM     21  C2  non d ame     -12.622  15.286  72.713  0.00  0.00     0.077 A 
ATOM     22  H1  non d ame     -10.556  15.224  71.835  0.00  0.00     0.091 H 
ATOM     23  O1  non d ame     -13.760  14.914  72.205  0.00  0.00    -0.218 OA
ATOM     24  N1  non d ame     -13.615  14.434  70.992  0.00  0.00    -0.123 NA
BRANCH  21  25
ATOM     25  C3  non d ame     -12.402  15.888  74.095  0.00  0.00    -0.029 C 
ATOM     26  H2  non d ame     -12.016  16.903  73.993  0.00  0.00     0.036 H 
ATOM     27  H3  non d ame     -13.348  15.912  74.635  0.00  0.00     0.036 H 
ATOM     28  H4  non d ame     -11.684  15.280  74.646  0.00  0.00     0.036 H 
ENDBRANCH  21  25
ENDBRANCH  16  19
ENDBRANCH  13  15
BRANCH  13  29
ATOM     29  C8  non d ame     -12.876  13.729  65.761  0.00  0.00    -0.049 C 
ATOM     30  H7  non d ame     -12.872  14.539  65.031  0.00  0.00     0.030 H 
ATOM     31  H8  non d ame     -12.706  12.780  65.252  0.00  0.00     0.030 H 
ATOM     32  H9  non d ame     -13.841  13.702  66.267  0.00  0.00     0.030 H 
ENDBRANCH  13  29
ENDBRANCH  10  13
ENDBRANCH   7   9
BRANCH   7  33
ATOM     33  C11 non d ame     -10.160  18.730  67.127  0.00  0.00    -0.033 C 
ATOM     34  H12 non d ame     -11.174  18.705  67.523  0.00  0.00     0.042 H 
BRANCH  33  35
ATOM     35  C12 non d ame      -9.184  18.820  68.342  0.00  0.00    -0.071 C 
ATOM     36  H13 non d ame      -8.274  18.263  68.118  0.00  0.00     0.028 H 
ATOM     37  H14 non d ame      -8.934  19.864  68.530  0.00  0.00     0.028 H 
ATOM     38  H15 non d ame      -9.662  18.395  69.223  0.00  0.00     0.028 H 
ENDBRANCH  33  35
BRANCH  33  39
ATOM     39  C13 non d ame     -10.032  19.986  66.205  0.00  0.00    -0.071 C 
ATOM     40  H16 non d ame     -10.643  20.794  66.605  0.00  0.00     0.028 H 
ATOM     41  H17 non d ame      -8.989  20.303  66.166  0.00  0.00     0.028 H 
ATOM     42  H18 non d ame     -10.372  19.735  65.201  0.00  0.00     0.028 H 
ENDBRANCH  33  39
ENDBRANCH   7  33
ENDBRANCH   4   7
ENDBRANCH   1   3
BRANCH   1  43
ATOM     43  C15 non d ame      -6.848  13.875  67.849  0.00  0.00     0.240 C 
ATOM     44  O5  non d ame      -6.147  13.361  68.660  0.00  0.00    -0.271 OA
ATOM     45  N6  non d ame      -7.748  13.034  67.008  0.00  0.00    -0.355 N 
ATOM     46  H46 non d ame      -8.351  13.460  66.320  0.00  0.00     0.162 HD
BRANCH  45  47
ATOM     47  C20 non d ame      -7.754  11.566  67.184  0.00  0.00     0.013 C 
ATOM     48  H30 non d ame      -7.244  11.337  68.120  0.00  0.00     0.072 H 
BRANCH  47  49
ATOM     49  C21 non d ame      -7.025  10.920  66.028  0.00  0.00    -0.038 C 
ATOM     50  H31 non d ame      -7.440   9.917  65.941  0.00  0.00     0.036 H 
ATOM     51  H32 non d ame      -7.112  11.621  65.196  0.00  0.00     0.036 H 
BRANCH  49  52
ATOM     52  C22 non d ame      -5.514  10.746  66.295  0.00  0.00     0.018 C 
ATOM     53  H33 non d ame      -5.157  11.723  66.621  0.00  0.00     0.048 H 
ATOM     54  H34 non d ame      -5.428   9.886  66.958  0.00  0.00     0.048 H 
BRANCH  52  55
ATOM     55  C23 non d ame      -4.690  10.392  65.026  0.00  0.00     0.259 C 
ATOM     56  O7  non d ame      -3.542  10.096  65.115  0.00  0.00    -0.265 OA
BRANCH  55  57
ATOM     57  O8  non d ame      -5.319  10.438  63.751  0.00  0.00    -0.317 OA
BRANCH  57  58
ATOM     58  C29 non d ame      -4.834   9.459  62.827  0.00  0.00     0.052 C 
ATOM     59  H47 non d ame      -4.964   9.897  61.838  0.00  0.00     0.082 H 
ATOM     60  H48 non d ame      -3.838   9.191  63.178  0.00  0.00     0.082 H 
BRANCH  58  61
ATOM     61  C35 non d ame      -5.745   8.207  62.934  0.00  0.00    -0.034 A 
ATOM     62  C30 non d ame      -7.120   8.328  62.767  0.00  0.00    -0.075 A 
ATOM     63  C31 non d ame      -7.938   7.203  62.863  0.00  0.00    -0.082 A 
ATOM     64  H49 non d ame      -7.558   9.305  62.559  0.00  0.00     0.084 H 
ATOM     65  C32 non d ame      -7.375   5.953  63.132  0.00  0.00    -0.083 A 
ATOM     66  H50 non d ame      -9.015   7.302  62.728  0.00  0.00     0.083 H 
ATOM     67  C33 non d ame      -6.002   5.836  63.302  0.00  0.00    -0.082 A 
ATOM     68  H51 non d ame      -8.007   5.068  63.208  0.00  0.00     0.083 H 
ATOM     69  C34 non d ame      -5.181   6.958  63.204  0.00  0.00    -0.075 A 
ATOM     70  H52 non d ame      -5.566   4.859  63.513  0.00  0.00     0.083 H 
ATOM     71  H53 non d ame      -4.103   6.858  63.337  0.00  0.00     0.084 H 
ENDBRANCH  58  61
ENDBRANCH  57  58
ENDBRANCH  55  57
ENDBRANCH  52  55
ENDBRANCH  49  52
ENDBRANCH  47  49
BRANCH  47  72
ATOM     72  C24 non d ame      -9.194  11.058  67.227  0.00  0.00    -0.039 C 
ATOM     73  H35 non d ame      -9.811  11.947  67.358  0.00  0.00     0.036 H 
ATOM     74  H36 non d ame      -9.311  10.441  66.336  0.00  0.00     0.036 H 
BRANCH  72  75
ATOM     75  C25 non d ame      -9.452  10.112  68.494  0.00  0.00    -0.001 C 
ATOM     76  C26 non d ame      -8.689   8.671  68.281  0.00  0.00    -0.035 C 
ATOM     77  C27 non d ame      -9.578   7.671  68.495  0.00  0.00     0.085 C 
ATOM     78  H38 non d ame      -8.412   8.546  67.235  0.00  0.00     0.036 H 
ATOM     79  H39 non d ame      -7.945   8.522  69.063  0.00  0.00     0.036 H 
ATOM     80  N5  non d ame     -10.952   8.298  68.513  0.00  0.00    -0.049 N 
ATOM     81  H40 non d ame      -9.497   7.018  67.626  0.00  0.00     0.075 H 
ATOM     82  H41 non d ame      -9.350   7.288  69.489  0.00  0.00     0.075 H 
ATOM     83  C28 non d ame     -10.713   9.888  68.662  0.00  0.00     0.193 C 
ATOM     84  H42 non d ame     -11.360   8.118  67.607  0.00  0.00     0.280 HD
ATOM     85  H43 non d ame     -11.408   7.963  69.349  0.00  0.00     0.280 HD
ATOM     86  H44 non d ame     -10.877  10.386  69.617  0.00  0.00     0.129 H 
ATOM     87  H37 non d ame      -9.279  10.630  69.437  0.00  0.00     0.046 H 
BRANCH  83  88
ATOM     88  O6  non d ame     -11.516  10.598  67.718  0.00  0.00    -0.369 OA
ATOM     89  H45 non d ame     -11.155  11.478  67.589  0.00  0.00     0.212 HD
ENDBRANCH  83  88
ENDBRANCH  72  75
ENDBRANCH  47  72
ENDBRANCH  45  47
ENDBRANCH   1  43
BRANCH   1  90
ATOM     90  C16 non d ame      -6.245  16.067  68.923  0.00  0.00    -0.035 C 
ATOM     91  H21 non d ame      -7.097  16.502  69.449  0.00  0.00     0.037 H 
ATOM     92  H22 non d ame      -5.651  15.288  69.400  0.00  0.00     0.037 H 
BRANCH  90  93
ATOM     93  C17 non d ame      -5.267  17.245  68.618  0.00  0.00    -0.059 C 
ATOM     94  H23 non d ame      -5.864  18.150  68.507  0.00  0.00     0.038 H 
BRANCH  93  95
ATOM     95  C18 non d ame      -4.250  17.484  69.780  0.00  0.00    -0.073 C 
ATOM     96  H24 non d ame      -3.851  16.526  70.115  0.00  0.00     0.028 H 
ATOM     97  H25 non d ame      -3.434  18.113  69.424  0.00  0.00     0.028 H 
ATOM     98  H26 non d ame      -4.756  17.978  70.609  0.00  0.00     0.028 H 
ENDBRANCH  93  95
BRANCH  93  99
ATOM     99  C19 non d ame      -4.535  17.019  67.292  0.00  0.00    -0.073 C 
ATOM    100  H27 non d ame      -3.668  16.380  67.460  0.00  0.00     0.028 H 
ATOM    101  H28 non d ame      -5.210  16.539  66.583  0.00  0.00     0.028 H 
ATOM    102  H29 non d ame      -4.209  17.978  66.888  0.00  0.00     0.028 H 
ENDBRANCH  93  99
ENDBRANCH  90  93
ENDBRANCH   1  90
TORSDOF 26
ENDMDL
MODEL 19
REMARK VINA RESULT:      -6.1      2.223      5.690
REMARK  26 active torsions:
REMARK  status: ('A' for Active; 'I' for Inactive)
REMARK    1  A    between atoms: C2_2  and  C3_3 
REMARK    2  A    between atoms: C4_6  and  C5_7 
REMARK       I    between atoms: C5_7  and  N2_9 
REMARK    3  A    between atoms: N2_9  and  C6_10 
REMARK    4  A    between atoms: C6_10  and  C7_11 
REMARK    5  A    between atoms: C6_10  and  C8_13 
REMARK       I    between atoms: C7_11  and  N3_14 
REMARK    6  A    between atoms: N3_14  and  C9_15 
REMARK    7  A    between atoms: C9_15  and  C10_16 
REMARK    8  A    between atoms: C9_15  and  C11_18 
REMARK       I    between atoms: C10_16  and  N4_21 
REMARK    9  A    between atoms: C11_18  and  C12_19 
REMARK   10  A    between atoms: C11_18  and  C13_20 
REMARK   11  A    between atoms: N4_21  and  C14_22 
REMARK   12  A    between atoms: C14_22  and  C15_23 
REMARK   13  A    between atoms: C14_22  and  C16_25 
REMARK       I    between atoms: C15_23  and  N6_40 
REMARK   14  A    between atoms: C16_25  and  C17_26 
REMARK   15  A    between atoms: C17_26  and  C18_27 
REMARK   16  A    between atoms: C17_26  and  C19_28 
REMARK   17  A    between atoms: C20_29  and  C21_30 
REMARK   18  A    between atoms: C20_29  and  C24_33 
REMARK   19  A    between atoms: C20_29  and  N6_40 
REMARK   20  A    between atoms: C21_30  and  C22_31 
REMARK   21  A    between atoms: C22_31  and  C23_32 
REMARK   22  A    between atoms: C23_32  and  O8_43 
REMARK   23  A    between atoms: C24_33  and  C25_34 
REMARK   24  A    between atoms: C28_38  and  O6_39 
REMARK   25  A    between atoms: C29_42  and  O8_43 
REMARK   26  A    between atoms: C29_42  and  C35_49 
ROOT
ATOM      1  C14 non d ame      -9.700  13.165  66.114  0.00  0.00     0.089 C 
ATOM      2  H20 non d ame      -8.668  13.517  66.102  0.00  0.00     0.087 H 
ENDROOT
BRANCH   1   3
ATOM      3  N4  non d ame      -9.684  11.775  66.545  0.00  0.00    -0.346 N 
ATOM      4  C10 non d ame      -8.374  11.049  66.729  0.00  0.00     0.241 C 
ATOM      5  O4  non d ame      -7.346  11.606  66.521  0.00  0.00    -0.271 OA
ATOM      6  H19 non d ame     -10.569  11.319  66.714  0.00  0.00     0.163 HD
BRANCH   4   7
ATOM      7  C9  non d ame      -8.375   9.613  67.181  0.00  0.00     0.092 C 
ATOM      8  H11 non d ame      -7.395   9.176  66.990  0.00  0.00     0.088 H 
BRANCH   7   9
ATOM      9  N3  non d ame      -8.600   9.556  68.629  0.00  0.00    -0.346 N 
ATOM     10  C7  non d ame      -7.616   8.943  69.487  0.00  0.00     0.240 C 
ATOM     11  O3  non d ame      -6.639   8.490  69.031  0.00  0.00    -0.271 OA
ATOM     12  H10 non d ame      -9.439   9.942  69.038  0.00  0.00     0.163 HD
BRANCH  10  13
ATOM     13  C6  non d ame      -7.863   8.883  71.027  0.00  0.00     0.086 C 
ATOM     14  H6  non d ame      -7.293   9.634  71.575  0.00  0.00     0.086 H 
BRANCH  13  15
ATOM     15  N2  non d ame      -9.267   9.153  71.290  0.00  0.00    -0.343 N 
ATOM     16  C5  non d ame     -10.271   8.140  70.958  0.00  0.00     0.273 C 
ATOM     17  O2  non d ame      -9.939   7.113  70.477  0.00  0.00    -0.266 OA
ATOM     18  H5  non d ame      -9.542  10.035  71.700  0.00  0.00     0.163 HD
BRANCH  16  19
ATOM     19  C4  non d ame     -11.758   8.411  71.233  0.00  0.00     0.154 A 
ATOM     20  C1  non d ame     -12.789   7.442  71.449  0.00  0.00    -0.017 A 
ATOM     21  C2  non d ame     -13.963   8.200  71.654  0.00  0.00     0.077 A 
ATOM     22  H1  non d ame     -12.699   6.356  71.457  0.00  0.00     0.091 H 
ATOM     23  O1  non d ame     -13.634   9.456  71.566  0.00  0.00    -0.218 OA
ATOM     24  N1  non d ame     -12.353   9.604  71.320  0.00  0.00    -0.123 NA
BRANCH  21  25
ATOM     25  C3  non d ame     -15.356   7.648  71.929  0.00  0.00    -0.029 C 
ATOM     26  H2  non d ame     -15.734   8.064  72.863  0.00  0.00     0.036 H 
ATOM     27  H3  non d ame     -16.023   7.922  71.113  0.00  0.00     0.036 H 
ATOM     28  H4  non d ame     -15.307   6.561  72.009  0.00  0.00     0.036 H 
ENDBRANCH  21  25
ENDBRANCH  16  19
ENDBRANCH  13  15
BRANCH  13  29
ATOM     29  C8  non d ame      -7.494   7.517  71.545  0.00  0.00    -0.049 C 
ATOM     30  H7  non d ame      -7.111   6.909  70.725  0.00  0.00     0.030 H 
ATOM     31  H8  non d ame      -6.728   7.613  72.314  0.00  0.00     0.030 H 
ATOM     32  H9  non d ame      -8.377   7.038  71.969  0.00  0.00     0.030 H 
ENDBRANCH  13  29
ENDBRANCH  10  13
ENDBRANCH   7   9
BRANCH   7  33
ATOM     33  C11 non d ame      -9.513   8.841  66.451  0.00  0.00    -0.033 C 
ATOM     34  H12 non d ame      -9.863   9.467  65.632  0.00  0.00     0.042 H 
BRANCH  33  35
ATOM     35  C12 non d ame      -8.989   7.507  65.832  0.00  0.00    -0.071 C 
ATOM     36  H13 non d ame      -8.001   7.284  66.235  0.00  0.00     0.028 H 
ATOM     37  H14 non d ame      -9.674   6.698  66.081  0.00  0.00     0.028 H 
ATOM     38  H15 non d ame      -8.925   7.612  64.750  0.00  0.00     0.028 H 
ENDBRANCH  33  35
BRANCH  33  39
ATOM     39  C13 non d ame     -10.719   8.583  67.411  0.00  0.00    -0.071 C 
ATOM     40  H16 non d ame     -11.406   9.428  67.367  0.00  0.00     0.028 H 
ATOM     41  H17 non d ame     -11.239   7.675  67.105  0.00  0.00     0.028 H 
ATOM     42  H18 non d ame     -10.353   8.465  68.431  0.00  0.00     0.028 H 
ENDBRANCH  33  39
ENDBRANCH   7  33
ENDBRANCH   4   7
ENDBRANCH   1   3
BRANCH   1  43
ATOM     43  C15 non d ame     -10.588  13.978  67.098  0.00  0.00     0.240 C 
ATOM     44  O5  non d ame     -11.710  13.642  67.298  0.00  0.00    -0.271 OA
ATOM     45  N6  non d ame     -10.034  15.171  67.802  0.00  0.00    -0.355 N 
ATOM     46  H46 non d ame      -9.081  15.462  67.644  0.00  0.00     0.162 HD
BRANCH  45  47
ATOM     47  C20 non d ame     -10.891  15.932  68.736  0.00  0.00     0.013 C 
ATOM     48  H30 non d ame     -11.909  15.915  68.348  0.00  0.00     0.072 H 
BRANCH  47  49
ATOM     49  C21 non d ame     -10.396  17.359  68.819  0.00  0.00    -0.038 C 
ATOM     50  H31 non d ame     -10.867  17.783  69.705  0.00  0.00     0.036 H 
ATOM     51  H32 non d ame      -9.309  17.297  68.756  0.00  0.00     0.036 H 
BRANCH  49  52
ATOM     52  C22 non d ame     -10.854  18.222  67.624  0.00  0.00     0.018 C 
ATOM     53  H33 non d ame     -11.759  17.746  67.245  0.00  0.00     0.048 H 
ATOM     54  H34 non d ame     -10.892  19.245  67.996  0.00  0.00     0.048 H 
BRANCH  52  55
ATOM     55  C23 non d ame      -9.849  18.235  66.438  0.00  0.00     0.259 C 
ATOM     56  O7  non d ame      -9.632  17.242  65.821  0.00  0.00    -0.265 OA
BRANCH  55  57
ATOM     57  O8  non d ame      -9.179  19.444  66.105  0.00  0.00    -0.317 OA
BRANCH  57  58
ATOM     58  C29 non d ame      -9.143  20.401  67.169  0.00  0.00     0.052 C 
ATOM     59  H47 non d ame      -9.316  21.369  66.701  0.00  0.00     0.082 H 
ATOM     60  H48 non d ame      -9.836  20.028  67.923  0.00  0.00     0.082 H 
BRANCH  58  61
ATOM     61  C35 non d ame      -7.712  20.394  67.770  0.00  0.00    -0.034 A 
ATOM     62  C30 non d ame      -7.436  19.638  68.905  0.00  0.00    -0.075 A 
ATOM     63  C31 non d ame      -6.151  19.632  69.445  0.00  0.00    -0.082 A 
ATOM     64  H49 non d ame      -8.227  19.050  69.371  0.00  0.00     0.084 H 
ATOM     65  C32 non d ame      -5.140  20.390  68.847  0.00  0.00    -0.083 A 
ATOM     66  H50 non d ame      -5.937  19.036  70.332  0.00  0.00     0.083 H 
ATOM     67  C33 non d ame      -5.420  21.145  67.716  0.00  0.00    -0.082 A 
ATOM     68  H51 non d ame      -4.132  20.390  69.262  0.00  0.00     0.083 H 
ATOM     69  C34 non d ame      -6.704  21.152  67.173  0.00  0.00    -0.075 A 
ATOM     70  H52 non d ame      -4.629  21.736  67.254  0.00  0.00     0.083 H 
ATOM     71  H53 non d ame      -6.915  21.747  66.283  0.00  0.00     0.084 H 
ENDBRANCH  58  61
ENDBRANCH  57  58
ENDBRANCH  55  57
ENDBRANCH  52  55
ENDBRANCH  49  52
ENDBRANCH  47  49
BRANCH  47  72
ATOM     72  C24 non d ame     -10.839  15.293  70.122  0.00  0.00    -0.039 C 
ATOM     73  H35 non d ame     -10.647  14.234  69.945  0.00  0.00     0.036 H 
ATOM     74  H36 non d ame     -10.123  15.888  70.690  0.00  0.00     0.036 H 
BRANCH  72  75
ATOM     75  C25 non d ame     -12.247  15.398  70.878  0.00  0.00    -0.001 C 
ATOM     76  C26 non d ame     -12.031  16.040  72.376  0.00  0.00    -0.035 C 
ATOM     77  C27 non d ame     -12.631  15.235  73.286  0.00  0.00     0.085 C 
ATOM     78  H38 non d ame     -10.978  15.998  72.653  0.00  0.00     0.036 H 
ATOM     79  H39 non d ame     -12.581  16.977  72.464  0.00  0.00     0.036 H 
ATOM     80  N5  non d ame     -12.952  13.938  72.583  0.00  0.00    -0.049 N 
ATOM     81  H40 non d ame     -11.876  15.048  74.051  0.00  0.00     0.075 H 
ATOM     82  H41 non d ame     -13.561  15.736  73.549  0.00  0.00     0.075 H 
ATOM     83  C28 non d ame     -12.799  14.238  71.004  0.00  0.00     0.193 C 
ATOM     84  H42 non d ame     -12.236  13.280  72.856  0.00  0.00     0.280 HD
ATOM     85  H43 non d ame     -13.922  13.739  72.779  0.00  0.00     0.280 HD
ATOM     86  H44 non d ame     -13.681  14.368  70.377  0.00  0.00     0.129 H 
ATOM     87  H37 non d ame     -13.018  15.848  70.252  0.00  0.00     0.046 H 
BRANCH  83  88
ATOM     88  O6  non d ame     -12.034  13.207  70.378  0.00  0.00    -0.369 OA
ATOM     89  H45 non d ame     -11.195  13.108  70.835  0.00  0.00     0.212 HD
ENDBRANCH  83  88
ENDBRANCH  72  75
ENDBRANCH  47  72
ENDBRANCH  45  47
ENDBRANCH   1  43
BRANCH   1  90
ATOM     90  C16 non d ame     -10.286  13.243  64.713  0.00  0.00    -0.035 C 
ATOM     91  H21 non d ame     -11.105  13.960  64.783  0.00  0.00     0.037 H 
ATOM     92  H22 non d ame      -9.440  13.445  64.057  0.00  0.00     0.037 H 
BRANCH  90  93
ATOM     93  C17 non d ame     -10.915  11.901  64.221  0.00  0.00    -0.059 C 
ATOM     94  H23 non d ame     -10.991  11.236  65.082  0.00  0.00     0.038 H 
BRANCH  93  95
ATOM     95  C18 non d ame     -12.354  12.100  63.645  0.00  0.00    -0.073 C 
ATOM     96  H24 non d ame     -12.837  12.932  64.157  0.00  0.00     0.028 H 
ATOM     97  H25 non d ame     -12.291  12.316  62.579  0.00  0.00     0.028 H 
ATOM     98  H26 non d ame     -12.935  11.191  63.798  0.00  0.00     0.028 H 
ENDBRANCH  93  95
BRANCH  93  99
ATOM     99  C19 non d ame     -10.008  11.214  63.196  0.00  0.00    -0.073 C 
ATOM    100  H27 non d ame      -9.882  10.165  63.468  0.00  0.00     0.028 H 
ATOM    101  H28 non d ame     -10.463  11.282  62.208  0.00  0.00     0.028 H 
ATOM    102  H29 non d ame      -9.036  11.707  63.183  0.00  0.00     0.028 H 
ENDBRANCH  93  99
ENDBRANCH  90  93
ENDBRANCH   1  90
TORSDOF 26
ENDMDL
MODEL 20
REMARK VINA RESULT:      -6.1      2.430      9.255
REMARK  26 active torsions:
REMARK  status: ('A' for Active; 'I' for Inactive)
REMARK    1  A    between atoms: C2_2  and  C3_3 
REMARK    2  A    between atoms: C4_6  and  C5_7 
REMARK       I    between atoms: C5_7  and  N2_9 
REMARK    3  A    between atoms: N2_9  and  C6_10 
REMARK    4  A    between atoms: C6_10  and  C7_11 
REMARK    5  A    between atoms: C6_10  and  C8_13 
REMARK       I    between atoms: C7_11  and  N3_14 
REMARK    6  A    between atoms: N3_14  and  C9_15 
REMARK    7  A    between atoms: C9_15  and  C10_16 
REMARK    8  A    between atoms: C9_15  and  C11_18 
REMARK       I    between atoms: C10_16  and  N4_21 
REMARK    9  A    between atoms: C11_18  and  C12_19 
REMARK   10  A    between atoms: C11_18  and  C13_20 
REMARK   11  A    between atoms: N4_21  and  C14_22 
REMARK   12  A    between atoms: C14_22  and  C15_23 
REMARK   13  A    between atoms: C14_22  and  C16_25 
REMARK       I    between atoms: C15_23  and  N6_40 
REMARK   14  A    between atoms: C16_25  and  C17_26 
REMARK   15  A    between atoms: C17_26  and  C18_27 
REMARK   16  A    between atoms: C17_26  and  C19_28 
REMARK   17  A    between atoms: C20_29  and  C21_30 
REMARK   18  A    between atoms: C20_29  and  C24_33 
REMARK   19  A    between atoms: C20_29  and  N6_40 
REMARK   20  A    between atoms: C21_30  and  C22_31 
REMARK   21  A    between atoms: C22_31  and  C23_32 
REMARK   22  A    between atoms: C23_32  and  O8_43 
REMARK   23  A    between atoms: C24_33  and  C25_34 
REMARK   24  A    between atoms: C28_38  and  O6_39 
REMARK   25  A    between atoms: C29_42  and  O8_43 
REMARK   26  A    between atoms: C29_42  and  C35_49 
ROOT
ATOM      1  C14 non d ame      -9.768  10.798  64.566  0.00  0.00     0.089 C 
ATOM      2  H20 non d ame     -10.638  10.586  65.189  0.00  0.00     0.087 H 
ENDROOT
BRANCH   1   3
ATOM      3  N4  non d ame      -8.700  11.249  65.445  0.00  0.00    -0.346 N 
ATOM      4  C10 non d ame      -8.866  11.182  66.943  0.00  0.00     0.241 C 
ATOM      5  O4  non d ame      -9.871  10.763  67.417  0.00  0.00    -0.271 OA
ATOM      6  H19 non d ame      -7.854  11.604  65.023  0.00  0.00     0.163 HD
BRANCH   4   7
ATOM      7  C9  non d ame      -7.749  11.647  67.839  0.00  0.00     0.092 C 
ATOM      8  H11 non d ame      -6.870  11.866  67.232  0.00  0.00     0.088 H 
BRANCH   7   9
ATOM      9  N3  non d ame      -8.140  12.897  68.499  0.00  0.00    -0.346 N 
ATOM     10  C7  non d ame      -7.489  14.134  68.144  0.00  0.00     0.240 C 
ATOM     11  O3  non d ame      -6.648  14.143  67.330  0.00  0.00    -0.271 OA
ATOM     12  H10 non d ame      -8.863  12.905  69.204  0.00  0.00     0.163 HD
BRANCH  10  13
ATOM     13  C6  non d ame      -7.908  15.460  68.853  0.00  0.00     0.086 C 
ATOM     14  H6  non d ame      -8.298  16.204  68.159  0.00  0.00     0.086 H 
BRANCH  13  15
ATOM     15  N2  non d ame      -8.975  15.172  69.798  0.00  0.00    -0.343 N 
ATOM     16  C5  non d ame     -10.287  15.798  69.618  0.00  0.00     0.273 C 
ATOM     17  O2  non d ame     -10.472  16.534  68.712  0.00  0.00    -0.266 OA
ATOM     18  H5  non d ame      -8.806  14.544  70.571  0.00  0.00     0.163 HD
BRANCH  16  19
ATOM     19  C4  non d ame     -11.423  15.502  70.608  0.00  0.00     0.154 A 
ATOM     20  C1  non d ame     -12.260  14.342  70.643  0.00  0.00    -0.017 A 
ATOM     21  C2  non d ame     -13.134  14.557  71.732  0.00  0.00     0.077 A 
ATOM     22  H1  non d ame     -12.236  13.477  69.980  0.00  0.00     0.091 H 
ATOM     23  O1  non d ame     -12.826  15.707  72.256  0.00  0.00    -0.218 OA
ATOM     24  N1  non d ame     -11.830  16.278  71.617  0.00  0.00    -0.123 NA
BRANCH  21  25
ATOM     25  C3  non d ame     -14.232  13.614  72.205  0.00  0.00    -0.029 C 
ATOM     26  H2  non d ame     -14.806  13.263  71.347  0.00  0.00     0.036 H 
ATOM     27  H3  non d ame     -13.785  12.762  72.716  0.00  0.00     0.036 H 
ATOM     28  H4  non d ame     -14.894  14.143  72.893  0.00  0.00     0.036 H 
ENDBRANCH  21  25
ENDBRANCH  16  19
ENDBRANCH  13  15
BRANCH  13  29
ATOM     29  C8  non d ame      -6.721  16.043  69.577  0.00  0.00    -0.049 C 
ATOM     30  H7  non d ame      -6.770  17.131  69.536  0.00  0.00     0.030 H 
ATOM     31  H8  non d ame      -6.732  15.717  70.616  0.00  0.00     0.030 H 
ATOM     32  H9  non d ame      -5.802  15.703  69.099  0.00  0.00     0.030 H 
ENDBRANCH  13  29
ENDBRANCH  10  13
ENDBRANCH   7   9
BRANCH   7  33
ATOM     33  C11 non d ame      -7.461  10.562  68.916  0.00  0.00    -0.033 C 
ATOM     34  H12 non d ame      -8.391  10.373  69.450  0.00  0.00     0.042 H 
BRANCH  33  35
ATOM     35  C12 non d ame      -7.013   9.217  68.263  0.00  0.00    -0.071 C 
ATOM     36  H13 non d ame      -6.079   9.369  67.722  0.00  0.00     0.028 H 
ATOM     37  H14 non d ame      -6.864   8.468  69.040  0.00  0.00     0.028 H 
ATOM     38  H15 non d ame      -7.782   8.877  67.571  0.00  0.00     0.028 H 
ENDBRANCH  33  35
BRANCH  33  39
ATOM     39  C13 non d ame      -6.404  11.067  69.951  0.00  0.00    -0.071 C 
ATOM     40  H16 non d ame      -5.407  10.984  69.522  0.00  0.00     0.028 H 
ATOM     41  H17 non d ame      -6.607  12.110  70.198  0.00  0.00     0.028 H 
ATOM     42  H18 non d ame      -6.463  10.462  70.856  0.00  0.00     0.028 H 
ENDBRANCH  33  39
ENDBRANCH   7  33
ENDBRANCH   4   7
ENDBRANCH   1   3
BRANCH   1  43
ATOM     43  C15 non d ame      -9.276   9.540  63.796  0.00  0.00     0.240 C 
ATOM     44  O5  non d ame      -9.357   9.503  62.611  0.00  0.00    -0.271 OA
ATOM     45  N6  non d ame      -8.696   8.383  64.536  0.00  0.00    -0.355 N 
ATOM     46  H46 non d ame      -8.619   8.405  65.542  0.00  0.00     0.162 HD
BRANCH  45  47
ATOM     47  C20 non d ame      -8.232   7.194  63.789  0.00  0.00     0.013 C 
ATOM     48  H30 non d ame      -8.948   6.998  62.990  0.00  0.00     0.072 H 
BRANCH  47  49
ATOM     49  C21 non d ame      -8.167   6.009  64.725  0.00  0.00    -0.038 C 
ATOM     50  H31 non d ame      -8.604   5.175  64.176  0.00  0.00     0.036 H 
ATOM     51  H32 non d ame      -7.131   5.956  65.062  0.00  0.00     0.036 H 
BRANCH  49  52
ATOM     52  C22 non d ame      -9.029   6.198  65.992  0.00  0.00     0.018 C 
ATOM     53  H33 non d ame      -9.284   7.258  66.020  0.00  0.00     0.048 H 
ATOM     54  H34 non d ame      -9.817   5.449  65.928  0.00  0.00     0.048 H 
BRANCH  52  55
ATOM     55  C23 non d ame      -8.269   5.907  67.316  0.00  0.00     0.259 C 
ATOM     56  O7  non d ame      -7.140   5.534  67.294  0.00  0.00    -0.265 OA
BRANCH  55  57
ATOM     57  O8  non d ame      -8.942   6.077  68.558  0.00  0.00    -0.317 OA
BRANCH  57  58
ATOM     58  C29 non d ame     -10.320   6.437  68.427  0.00  0.00     0.052 C 
ATOM     59  H47 non d ame     -10.359   7.166  67.618  0.00  0.00     0.082 H 
ATOM     60  H48 non d ame     -10.864   5.497  68.341  0.00  0.00     0.082 H 
BRANCH  58  61
ATOM     61  C35 non d ame     -10.758   7.138  69.741  0.00  0.00    -0.034 A 
ATOM     62  C30 non d ame     -11.686   6.529  70.580  0.00  0.00    -0.075 A 
ATOM     63  C31 non d ame     -12.079   7.159  71.760  0.00  0.00    -0.082 A 
ATOM     64  H49 non d ame     -12.105   5.559  70.313  0.00  0.00     0.084 H 
ATOM     65  C32 non d ame     -11.542   8.404  72.099  0.00  0.00    -0.083 A 
ATOM     66  H50 non d ame     -12.804   6.678  72.417  0.00  0.00     0.083 H 
ATOM     67  C33 non d ame     -10.619   9.009  71.257  0.00  0.00    -0.082 A 
ATOM     68  H51 non d ame     -11.844   8.902  73.020  0.00  0.00     0.083 H 
ATOM     69  C34 non d ame     -10.222   8.382  70.078  0.00  0.00    -0.075 A 
ATOM     70  H52 non d ame     -10.204   9.982  71.524  0.00  0.00     0.083 H 
ATOM     71  H53 non d ame      -9.495   8.864  69.422  0.00  0.00     0.084 H 
ENDBRANCH  58  61
ENDBRANCH  57  58
ENDBRANCH  55  57
ENDBRANCH  52  55
ENDBRANCH  49  52
ENDBRANCH  47  49
BRANCH  47  72
ATOM     72  C24 non d ame      -6.846   7.460  63.205  0.00  0.00    -0.039 C 
ATOM     73  H35 non d ame      -6.383   6.479  63.097  0.00  0.00     0.036 H 
ATOM     74  H36 non d ame      -7.016   8.081  62.325  0.00  0.00     0.036 H 
BRANCH  72  75
ATOM     75  C25 non d ame      -5.930   8.306  64.211  0.00  0.00    -0.001 C 
ATOM     76  C26 non d ame      -5.611   9.785  63.567  0.00  0.00    -0.035 C 
ATOM     77  C27 non d ame      -4.274   9.999  63.609  0.00  0.00     0.085 C 
ATOM     78  H38 non d ame      -5.836   9.786  62.502  0.00  0.00     0.036 H 
ATOM     79  H39 non d ame      -6.014  10.568  64.210  0.00  0.00     0.036 H 
ATOM     80  N5  non d ame      -3.624   8.672  63.919  0.00  0.00    -0.049 N 
ATOM     81  H40 non d ame      -3.996  10.304  62.599  0.00  0.00     0.075 H 
ATOM     82  H41 non d ame      -4.114  10.677  64.446  0.00  0.00     0.075 H 
ATOM     83  C28 non d ame      -4.809   7.708  64.441  0.00  0.00     0.193 C 
ATOM     84  H42 non d ame      -3.278   8.311  63.043  0.00  0.00     0.280 HD
ATOM     85  H43 non d ame      -2.986   8.838  64.684  0.00  0.00     0.280 HD
ATOM     86  H44 non d ame      -4.917   7.485  65.502  0.00  0.00     0.129 H 
ATOM     87  H37 non d ame      -6.309   8.282  65.233  0.00  0.00     0.046 H 
BRANCH  83  88
ATOM     88  O6  non d ame      -4.734   6.438  63.790  0.00  0.00    -0.369 OA
ATOM     89  H45 non d ame      -5.584   6.231  63.394  0.00  0.00     0.212 HD
ENDBRANCH  83  88
ENDBRANCH  72  75
ENDBRANCH  47  72
ENDBRANCH  45  47
ENDBRANCH   1  43
BRANCH   1  90
ATOM     90  C16 non d ame     -10.099  11.906  63.579  0.00  0.00    -0.035 C 
ATOM     91  H21 non d ame      -9.175  12.475  63.465  0.00  0.00     0.037 H 
ATOM     92  H22 non d ame     -10.539  11.403  62.718  0.00  0.00     0.037 H 
BRANCH  90  93
ATOM     93  C17 non d ame     -11.174  12.910  64.102  0.00  0.00    -0.059 C 
ATOM     94  H23 non d ame     -11.753  13.251  63.243  0.00  0.00     0.038 H 
BRANCH  93  95
ATOM     95  C18 non d ame     -12.165  12.243  65.109  0.00  0.00    -0.073 C 
ATOM     96  H24 non d ame     -11.723  11.327  65.500  0.00  0.00     0.028 H 
ATOM     97  H25 non d ame     -12.363  12.930  65.931  0.00  0.00     0.028 H 
ATOM     98  H26 non d ame     -13.099  12.008  64.598  0.00  0.00     0.028 H 
ENDBRANCH  93  95
BRANCH  93  99
ATOM     99  C19 non d ame     -10.515  14.145  64.723  0.00  0.00    -0.073 C 
ATOM    100  H27 non d ame     -10.527  14.964  64.003  0.00  0.00     0.028 H 
ATOM    101  H28 non d ame     -11.065  14.438  65.617  0.00  0.00     0.028 H 
ATOM    102  H29 non d ame      -9.485  13.910  64.991  0.00  0.00     0.028 H 
ENDBRANCH  93  99
ENDBRANCH  90  93
ENDBRANCH   1  90
TORSDOF 26
ENDMDL
