MODEL 1
REMARK VINA RESULT:      -6.7      0.000      0.000
REMARK  26 active torsions:
REMARK  status: ('A' for Active; 'I' for Inactive)
REMARK    1  A    between atoms: C2_2  and  C3_3 
REMARK    2  A    between atoms: C4_6  and  C5_7 
REMARK       I    between atoms: C5_7  and  N2_9 
REMARK    3  A    between atoms: N2_9  and  C6_10 
REMARK    4  A    between atoms: C6_10  and  C7_11 
REMARK    5  A    between atoms: C6_10  and  C8_13 
REMARK       I    between atoms: C7_11  and  N3_14 
REMARK    6  A    between atoms: N3_14  and  C9_15 
REMARK    7  A    between atoms: C9_15  and  C10_16 
REMARK    8  A    between atoms: C9_15  and  C11_18 
REMARK       I    between atoms: C10_16  and  N4_21 
REMARK    9  A    between atoms: C11_18  and  C12_19 
REMARK   10  A    between atoms: C11_18  and  C13_20 
REMARK   11  A    between atoms: N4_21  and  C14_22 
REMARK   12  A    between atoms: C14_22  and  C15_23 
REMARK   13  A    between atoms: C14_22  and  C16_25 
REMARK       I    between atoms: C15_23  and  N6_40 
REMARK   14  A    between atoms: C16_25  and  C17_26 
REMARK   15  A    between atoms: C17_26  and  C18_27 
REMARK   16  A    between atoms: C17_26  and  C19_28 
REMARK   17  A    between atoms: C20_29  and  C21_30 
REMARK   18  A    between atoms: C20_29  and  C24_33 
REMARK   19  A    between atoms: C20_29  and  N6_40 
REMARK   20  A    between atoms: C21_30  and  C22_31 
REMARK   21  A    between atoms: C22_31  and  C23_32 
REMARK   22  A    between atoms: C23_32  and  O8_43 
REMARK   23  A    between atoms: C24_33  and  C25_34 
REMARK   24  A    between atoms: C28_38  and  O6_39 
REMARK   25  A    between atoms: C29_42  and  O8_43 
REMARK   26  A    between atoms: C29_42  and  C35_49 
ROOT
ATOM      1  C14 non d ame     -10.659   8.865  69.358  0.00  0.00     0.089 C 
ATOM      2  H20 non d ame     -11.728   8.660  69.295  0.00  0.00     0.087 H 
ENDROOT
BRANCH   1   3
ATOM      3  N4  non d ame      -9.959   7.603  69.171  0.00  0.00    -0.346 N 
ATOM      4  C10 non d ame     -10.693   6.294  69.326  0.00  0.00     0.241 C 
ATOM      5  O4  non d ame     -11.847   6.283  69.605  0.00  0.00    -0.271 OA
ATOM      6  H19 non d ame      -8.977   7.634  68.937  0.00  0.00     0.163 HD
BRANCH   4   7
ATOM      7  C9  non d ame      -9.955   4.998  69.124  0.00  0.00     0.092 C 
ATOM      8  H11 non d ame     -10.626   4.269  68.670  0.00  0.00     0.088 H 
BRANCH   7   9
ATOM      9  N3  non d ame      -8.847   5.207  68.186  0.00  0.00    -0.346 N 
ATOM     10  C7  non d ame      -8.812   4.485  66.939  0.00  0.00     0.240 C 
ATOM     11  O3  non d ame      -9.667   3.730  66.673  0.00  0.00    -0.271 OA
ATOM     12  H10 non d ame      -8.102   5.854  68.402  0.00  0.00     0.163 HD
BRANCH  10  13
ATOM     13  C6  non d ame      -7.629   4.710  65.946  0.00  0.00     0.086 C 
ATOM     14  H6  non d ame      -7.727   4.123  65.033  0.00  0.00     0.086 H 
BRANCH  13  15
ATOM     15  N2  non d ame      -7.611   6.106  65.544  0.00  0.00    -0.343 N 
ATOM     16  C5  non d ame      -7.696   6.449  64.122  0.00  0.00     0.273 C 
ATOM     17  O2  non d ame      -7.775   5.594  63.311  0.00  0.00    -0.266 OA
ATOM     18  H5  non d ame      -7.540   6.831  66.244  0.00  0.00     0.163 HD
BRANCH  16  19
ATOM     19  C4  non d ame      -7.679   7.921  63.683  0.00  0.00     0.154 A 
ATOM     20  C1  non d ame      -7.795   8.427  62.349  0.00  0.00    -0.017 A 
ATOM     21  C2  non d ame      -7.723   9.831  62.486  0.00  0.00     0.077 A 
ATOM     22  H1  non d ame      -7.915   7.862  61.425  0.00  0.00     0.091 H 
ATOM     23  O1  non d ame      -7.583  10.091  63.753  0.00  0.00    -0.218 OA
ATOM     24  N1  non d ame      -7.555   8.992  64.472  0.00  0.00    -0.123 NA
BRANCH  21  25
ATOM     25  C3  non d ame      -7.796  10.852  61.357  0.00  0.00    -0.029 C 
ATOM     26  H2  non d ame      -7.504  10.379  60.420  0.00  0.00     0.036 H 
ATOM     27  H3  non d ame      -8.816  11.227  61.273  0.00  0.00     0.036 H 
ATOM     28  H4  non d ame      -7.121  11.681  61.572  0.00  0.00     0.036 H 
ENDBRANCH  21  25
ENDBRANCH  16  19
ENDBRANCH  13  15
BRANCH  13  29
ATOM     29  C8  non d ame      -6.329   4.350  66.620  0.00  0.00    -0.049 C 
ATOM     30  H7  non d ame      -6.472   4.336  67.701  0.00  0.00     0.030 H 
ATOM     31  H8  non d ame      -6.004   3.366  66.283  0.00  0.00     0.030 H 
ATOM     32  H9  non d ame      -5.571   5.090  66.364  0.00  0.00     0.030 H 
ENDBRANCH  13  29
ENDBRANCH  10  13
ENDBRANCH   7   9
BRANCH   7  33
ATOM     33  C11 non d ame      -9.390   4.504  70.488  0.00  0.00    -0.033 C 
ATOM     34  H12 non d ame     -10.025   4.912  71.274  0.00  0.00     0.042 H 
BRANCH  33  35
ATOM     35  C12 non d ame      -9.448   2.949  70.598  0.00  0.00    -0.071 C 
ATOM     36  H13 non d ame     -10.383   2.588  70.168  0.00  0.00     0.028 H 
ATOM     37  H14 non d ame      -8.608   2.515  70.057  0.00  0.00     0.028 H 
ATOM     38  H15 non d ame      -9.395   2.658  71.646  0.00  0.00     0.028 H 
ENDBRANCH  33  35
BRANCH  33  39
ATOM     39  C13 non d ame      -7.938   5.034  70.716  0.00  0.00    -0.071 C 
ATOM     40  H16 non d ame      -7.694   4.980  71.777  0.00  0.00     0.028 H 
ATOM     41  H17 non d ame      -7.234   4.421  70.150  0.00  0.00     0.028 H 
ATOM     42  H18 non d ame      -7.870   6.068  70.380  0.00  0.00     0.028 H 
ENDBRANCH  33  39
ENDBRANCH   7  33
ENDBRANCH   4   7
ENDBRANCH   1   3
BRANCH   1  43
ATOM     43  C15 non d ame     -10.185   9.861  68.261  0.00  0.00     0.240 C 
ATOM     44  O5  non d ame      -9.618   9.455  67.299  0.00  0.00    -0.271 OA
ATOM     45  N6  non d ame     -10.448  11.321  68.405  0.00  0.00    -0.355 N 
ATOM     46  H46 non d ame     -10.933  11.677  69.215  0.00  0.00     0.162 HD
BRANCH  45  47
ATOM     47  C20 non d ame      -9.992  12.255  67.353  0.00  0.00     0.013 C 
ATOM     48  H30 non d ame      -9.503  11.670  66.574  0.00  0.00     0.072 H 
BRANCH  47  49
ATOM     49  C21 non d ame      -9.014  13.241  67.949  0.00  0.00    -0.038 C 
ATOM     50  H31 non d ame      -9.371  13.437  68.959  0.00  0.00     0.036 H 
ATOM     51  H32 non d ame      -8.026  12.807  67.794  0.00  0.00     0.036 H 
BRANCH  49  52
ATOM     52  C22 non d ame      -9.013  14.601  67.216  0.00  0.00     0.018 C 
ATOM     53  H33 non d ame      -7.967  14.822  67.003  0.00  0.00     0.048 H 
ATOM     54  H34 non d ame      -9.724  14.495  66.397  0.00  0.00     0.048 H 
BRANCH  52  55
ATOM     55  C23 non d ame      -9.531  15.781  68.084  0.00  0.00     0.259 C 
ATOM     56  O7  non d ame      -9.654  16.866  67.615  0.00  0.00    -0.265 OA
BRANCH  55  57
ATOM     57  O8  non d ame      -9.845  15.554  69.452  0.00  0.00    -0.317 OA
BRANCH  57  58
ATOM     58  C29 non d ame     -11.002  16.261  69.909  0.00  0.00     0.052 C 
ATOM     59  H47 non d ame     -10.627  17.055  70.554  0.00  0.00     0.082 H 
ATOM     60  H48 non d ame     -11.568  16.510  69.012  0.00  0.00     0.082 H 
BRANCH  58  61
ATOM     61  C35 non d ame     -11.849  15.287  70.770  0.00  0.00    -0.034 A 
ATOM     62  C30 non d ame     -12.044  13.975  70.351  0.00  0.00    -0.075 A 
ATOM     63  C31 non d ame     -12.805  13.100  71.125  0.00  0.00    -0.082 A 
ATOM     64  H49 non d ame     -11.599  13.632  69.416  0.00  0.00     0.084 H 
ATOM     65  C32 non d ame     -13.376  13.543  72.320  0.00  0.00    -0.083 A 
ATOM     66  H50 non d ame     -12.952  12.071  70.794  0.00  0.00     0.083 H 
ATOM     67  C33 non d ame     -13.183  14.854  72.733  0.00  0.00    -0.082 A 
ATOM     68  H51 non d ame     -13.972  12.865  72.932  0.00  0.00     0.083 H 
ATOM     69  C34 non d ame     -12.420  15.731  71.964  0.00  0.00    -0.075 A 
ATOM     70  H52 non d ame     -13.631  15.197  73.666  0.00  0.00     0.083 H 
ATOM     71  H53 non d ame     -12.272  16.760  72.296  0.00  0.00     0.084 H 
ENDBRANCH  58  61
ENDBRANCH  57  58
ENDBRANCH  55  57
ENDBRANCH  52  55
ENDBRANCH  49  52
ENDBRANCH  47  49
BRANCH  47  72
ATOM     72  C24 non d ame     -11.190  13.008  66.777  0.00  0.00    -0.039 C 
ATOM     73  H35 non d ame     -11.932  13.026  67.576  0.00  0.00     0.036 H 
ATOM     74  H36 non d ame     -10.786  13.943  66.389  0.00  0.00     0.036 H 
BRANCH  72  75
ATOM     75  C25 non d ame     -11.845  12.227  65.542  0.00  0.00    -0.001 C 
ATOM     76  C26 non d ame     -10.681  11.409  64.716  0.00  0.00    -0.035 C 
ATOM     77  C27 non d ame     -10.780  11.720  63.401  0.00  0.00     0.085 C 
ATOM     78  H38 non d ame      -9.695  11.782  64.992  0.00  0.00     0.036 H 
ATOM     79  H39 non d ame     -10.886  10.339  64.741  0.00  0.00     0.036 H 
ATOM     80  N5  non d ame     -11.689  12.921  63.299  0.00  0.00    -0.049 N 
ATOM     81  H40 non d ame      -9.774  12.008  63.093  0.00  0.00     0.075 H 
ATOM     82  H41 non d ame     -11.268  10.864  62.936  0.00  0.00     0.075 H 
ATOM     83  C28 non d ame     -12.429  13.041  64.728  0.00  0.00     0.193 C 
ATOM     84  H42 non d ame     -11.090  13.724  63.177  0.00  0.00     0.280 HD
ATOM     85  H43 non d ame     -12.381  12.697  62.597  0.00  0.00     0.280 HD
ATOM     86  H44 non d ame     -13.466  12.728  64.844  0.00  0.00     0.129 H 
ATOM     87  H37 non d ame     -12.733  11.665  65.833  0.00  0.00     0.046 H 
BRANCH  83  88
ATOM     88  O6  non d ame     -12.384  14.392  65.195  0.00  0.00    -0.369 OA
ATOM     89  H45 non d ame     -11.821  14.911  64.615  0.00  0.00     0.212 HD
ENDBRANCH  83  88
ENDBRANCH  72  75
ENDBRANCH  47  72
ENDBRANCH  45  47
ENDBRANCH   1  43
BRANCH   1  90
ATOM     90  C16 non d ame     -10.322   9.420  70.732  0.00  0.00    -0.035 C 
ATOM     91  H21 non d ame      -9.517   8.788  71.109  0.00  0.00     0.037 H 
ATOM     92  H22 non d ame     -10.151  10.486  70.579  0.00  0.00     0.037 H 
BRANCH  90  93
ATOM     93  C17 non d ame     -11.492   9.304  71.760  0.00  0.00    -0.059 C 
ATOM     94  H23 non d ame     -11.386  10.119  72.476  0.00  0.00     0.038 H 
BRANCH  93  95
ATOM     95  C18 non d ame     -12.891   9.447  71.080  0.00  0.00    -0.073 C 
ATOM     96  H24 non d ame     -13.232   8.468  70.743  0.00  0.00     0.028 H 
ATOM     97  H25 non d ame     -13.604   9.852  71.798  0.00  0.00     0.028 H 
ATOM     98  H26 non d ame     -12.812  10.119  70.225  0.00  0.00     0.028 H 
ENDBRANCH  93  95
BRANCH  93  99
ATOM     99  C19 non d ame     -11.400   7.994  72.548  0.00  0.00    -0.073 C 
ATOM    100  H27 non d ame     -12.083   7.262  72.115  0.00  0.00     0.028 H 
ATOM    101  H28 non d ame     -10.380   7.613  72.499  0.00  0.00     0.028 H 
ATOM    102  H29 non d ame     -11.671   8.175  73.588  0.00  0.00     0.028 H 
ENDBRANCH  93  99
ENDBRANCH  90  93
ENDBRANCH   1  90
TORSDOF 26
ENDMDL
MODEL 2
REMARK VINA RESULT:      -6.7      2.294      9.608
REMARK  26 active torsions:
REMARK  status: ('A' for Active; 'I' for Inactive)
REMARK    1  A    between atoms: C2_2  and  C3_3 
REMARK    2  A    between atoms: C4_6  and  C5_7 
REMARK       I    between atoms: C5_7  and  N2_9 
REMARK    3  A    between atoms: N2_9  and  C6_10 
REMARK    4  A    between atoms: C6_10  and  C7_11 
REMARK    5  A    between atoms: C6_10  and  C8_13 
REMARK       I    between atoms: C7_11  and  N3_14 
REMARK    6  A    between atoms: N3_14  and  C9_15 
REMARK    7  A    between atoms: C9_15  and  C10_16 
REMARK    8  A    between atoms: C9_15  and  C11_18 
REMARK       I    between atoms: C10_16  and  N4_21 
REMARK    9  A    between atoms: C11_18  and  C12_19 
REMARK   10  A    between atoms: C11_18  and  C13_20 
REMARK   11  A    between atoms: N4_21  and  C14_22 
REMARK   12  A    between atoms: C14_22  and  C15_23 
REMARK   13  A    between atoms: C14_22  and  C16_25 
REMARK       I    between atoms: C15_23  and  N6_40 
REMARK   14  A    between atoms: C16_25  and  C17_26 
REMARK   15  A    between atoms: C17_26  and  C18_27 
REMARK   16  A    between atoms: C17_26  and  C19_28 
REMARK   17  A    between atoms: C20_29  and  C21_30 
REMARK   18  A    between atoms: C20_29  and  C24_33 
REMARK   19  A    between atoms: C20_29  and  N6_40 
REMARK   20  A    between atoms: C21_30  and  C22_31 
REMARK   21  A    between atoms: C22_31  and  C23_32 
REMARK   22  A    between atoms: C23_32  and  O8_43 
REMARK   23  A    between atoms: C24_33  and  C25_34 
REMARK   24  A    between atoms: C28_38  and  O6_39 
REMARK   25  A    between atoms: C29_42  and  O8_43 
REMARK   26  A    between atoms: C29_42  and  C35_49 
ROOT
ATOM      1  C14 non d ame      -7.493   8.291  67.699  0.00  0.00     0.089 C 
ATOM      2  H20 non d ame      -7.437   7.470  66.983  0.00  0.00     0.087 H 
ENDROOT
BRANCH   1   3
ATOM      3  N4  non d ame      -8.229   9.374  67.065  0.00  0.00    -0.346 N 
ATOM      4  C10 non d ame      -9.464   9.081  66.248  0.00  0.00     0.241 C 
ATOM      5  O4  non d ame      -9.842   7.964  66.113  0.00  0.00    -0.271 OA
ATOM      6  H19 non d ame      -7.890  10.318  67.189  0.00  0.00     0.163 HD
BRANCH   4   7
ATOM      7  C9  non d ame     -10.217  10.214  65.604  0.00  0.00     0.092 C 
ATOM      8  H11 non d ame     -11.286  10.073  65.765  0.00  0.00     0.088 H 
BRANCH   7   9
ATOM      9  N3  non d ame      -9.846  11.478  66.249  0.00  0.00    -0.346 N 
ATOM     10  C7  non d ame     -10.787  12.152  67.108  0.00  0.00     0.240 C 
ATOM     11  O3  non d ame     -11.848  11.694  67.292  0.00  0.00    -0.271 OA
ATOM     12  H10 non d ame      -8.934  11.887  66.099  0.00  0.00     0.163 HD
BRANCH  10  13
ATOM     13  C6  non d ame     -10.386  13.498  67.789  0.00  0.00     0.086 C 
ATOM     14  H6  non d ame     -10.842  14.365  67.311  0.00  0.00     0.086 H 
BRANCH  13  15
ATOM     15  N2  non d ame     -10.857  13.488  69.165  0.00  0.00    -0.343 N 
ATOM     16  C5  non d ame     -11.719  14.572  69.641  0.00  0.00     0.273 C 
ATOM     17  O2  non d ame     -12.025  15.449  68.911  0.00  0.00    -0.266 OA
ATOM     18  H5  non d ame     -10.588  12.736  69.783  0.00  0.00     0.163 HD
BRANCH  16  19
ATOM     19  C4  non d ame     -12.224  14.573  71.092  0.00  0.00     0.154 A 
ATOM     20  C1  non d ame     -11.812  15.444  72.151  0.00  0.00    -0.017 A 
ATOM     21  C2  non d ame     -12.569  15.037  73.271  0.00  0.00     0.077 A 
ATOM     22  H1  non d ame     -11.078  16.249  72.111  0.00  0.00     0.091 H 
ATOM     23  O1  non d ame     -13.325  14.049  72.891  0.00  0.00    -0.218 OA
ATOM     24  N1  non d ame     -13.141  13.760  71.623  0.00  0.00    -0.123 NA
BRANCH  21  25
ATOM     25  C3  non d ame     -12.512  15.645  74.667  0.00  0.00    -0.029 C 
ATOM     26  H2  non d ame     -13.388  16.273  74.826  0.00  0.00     0.036 H 
ATOM     27  H3  non d ame     -12.496  14.848  75.410  0.00  0.00     0.036 H 
ATOM     28  H4  non d ame     -11.608  16.249  74.764  0.00  0.00     0.036 H 
ENDBRANCH  21  25
ENDBRANCH  16  19
ENDBRANCH  13  15
BRANCH  13  29
ATOM     29  C8  non d ame      -8.888  13.655  67.758  0.00  0.00    -0.049 C 
ATOM     30  H7  non d ame      -8.615  14.379  66.990  0.00  0.00     0.030 H 
ATOM     31  H8  non d ame      -8.537  14.004  68.728  0.00  0.00     0.030 H 
ATOM     32  H9  non d ame      -8.427  12.693  67.529  0.00  0.00     0.030 H 
ENDBRANCH  13  29
ENDBRANCH  10  13
ENDBRANCH   7   9
BRANCH   7  33
ATOM     33  C11 non d ame      -9.857  10.282  64.091  0.00  0.00    -0.033 C 
ATOM     34  H12 non d ame     -10.330   9.432  63.602  0.00  0.00     0.042 H 
BRANCH  33  35
ATOM     35  C12 non d ame     -10.422  11.578  63.429  0.00  0.00    -0.071 C 
ATOM     36  H13 non d ame     -10.316  11.510  62.347  0.00  0.00     0.028 H 
ATOM     37  H14 non d ame     -11.476  11.686  63.685  0.00  0.00     0.028 H 
ATOM     38  H15 non d ame      -9.868  12.442  63.795  0.00  0.00     0.028 H 
ENDBRANCH  33  35
BRANCH  33  39
ATOM     39  C13 non d ame      -8.314  10.165  63.877  0.00  0.00    -0.071 C 
ATOM     40  H16 non d ame      -7.795  10.611  64.725  0.00  0.00     0.028 H 
ATOM     41  H17 non d ame      -8.037   9.113  63.794  0.00  0.00     0.028 H 
ATOM     42  H18 non d ame      -8.033  10.688  62.963  0.00  0.00     0.028 H 
ENDBRANCH  33  39
ENDBRANCH   7  33
ENDBRANCH   4   7
ENDBRANCH   1   3
BRANCH   1  43
ATOM     43  C15 non d ame      -8.236   7.885  69.003  0.00  0.00     0.240 C 
ATOM     44  O5  non d ame      -7.857   8.296  70.052  0.00  0.00    -0.271 OA
ATOM     45  N6  non d ame      -9.427   6.990  68.944  0.00  0.00    -0.355 N 
ATOM     46  H46 non d ame      -9.760   6.638  68.058  0.00  0.00     0.162 HD
BRANCH  45  47
ATOM     47  C20 non d ame     -10.123   6.613  70.193  0.00  0.00     0.013 C 
ATOM     48  H30 non d ame      -9.477   6.878  71.030  0.00  0.00     0.072 H 
BRANCH  47  49
ATOM     49  C21 non d ame     -10.382   5.124  70.192  0.00  0.00    -0.038 C 
ATOM     50  H31 non d ame     -10.666   4.874  71.214  0.00  0.00     0.036 H 
ATOM     51  H32 non d ame     -11.079   4.946  69.373  0.00  0.00     0.036 H 
BRANCH  49  52
ATOM     52  C22 non d ame      -9.117   4.296  69.876  0.00  0.00     0.018 C 
ATOM     53  H33 non d ame      -8.287   5.002  69.905  0.00  0.00     0.048 H 
ATOM     54  H34 non d ame      -9.137   3.451  70.564  0.00  0.00     0.048 H 
BRANCH  52  55
ATOM     55  C23 non d ame      -9.109   3.685  68.447  0.00  0.00     0.259 C 
ATOM     56  O7  non d ame      -9.466   2.566  68.268  0.00  0.00    -0.265 OA
BRANCH  55  57
ATOM     57  O8  non d ame      -8.656   4.475  67.354  0.00  0.00    -0.317 OA
BRANCH  57  58
ATOM     58  C29 non d ame      -7.256   4.348  67.086  0.00  0.00     0.052 C 
ATOM     59  H47 non d ame      -6.756   4.953  67.842  0.00  0.00     0.082 H 
ATOM     60  H48 non d ame      -7.063   3.278  67.030  0.00  0.00     0.082 H 
BRANCH  58  61
ATOM     61  C35 non d ame      -6.978   4.972  65.693  0.00  0.00    -0.034 A 
ATOM     62  C30 non d ame      -5.669   5.188  65.274  0.00  0.00    -0.075 A 
ATOM     63  C31 non d ame      -5.420   5.748  64.022  0.00  0.00    -0.082 A 
ATOM     64  H49 non d ame      -4.839   4.918  65.927  0.00  0.00     0.084 H 
ATOM     65  C32 non d ame      -6.486   6.096  63.189  0.00  0.00    -0.083 A 
ATOM     66  H50 non d ame      -4.392   5.913  63.696  0.00  0.00     0.083 H 
ATOM     67  C33 non d ame      -7.791   5.882  63.612  0.00  0.00    -0.082 A 
ATOM     68  H51 non d ame      -6.299   6.533  62.208  0.00  0.00     0.083 H 
ATOM     69  C34 non d ame      -8.044   5.320  64.861  0.00  0.00    -0.075 A 
ATOM     70  H52 non d ame      -8.620   6.156  62.959  0.00  0.00     0.083 H 
ATOM     71  H53 non d ame      -9.072   5.154  65.186  0.00  0.00     0.084 H 
ENDBRANCH  58  61
ENDBRANCH  57  58
ENDBRANCH  55  57
ENDBRANCH  52  55
ENDBRANCH  49  52
ENDBRANCH  47  49
BRANCH  47  72
ATOM     72  C24 non d ame     -11.450   7.362  70.289  0.00  0.00    -0.039 C 
ATOM     73  H35 non d ame     -11.747   7.560  69.259  0.00  0.00     0.036 H 
ATOM     74  H36 non d ame     -12.084   6.748  70.929  0.00  0.00     0.036 H 
BRANCH  72  75
ATOM     75  C25 non d ame     -11.280   8.781  71.013  0.00  0.00    -0.001 C 
ATOM     76  C26 non d ame     -12.517   9.022  72.070  0.00  0.00    -0.035 C 
ATOM     77  C27 non d ame     -13.071  10.233  71.824  0.00  0.00     0.085 C 
ATOM     78  H38 non d ame     -13.328   8.324  71.862  0.00  0.00     0.036 H 
ATOM     79  H39 non d ame     -12.130   9.120  73.084  0.00  0.00     0.036 H 
ATOM     80  N5  non d ame     -12.540  10.699  70.489  0.00  0.00    -0.049 N 
ATOM     81  H40 non d ame     -14.143  10.051  71.736  0.00  0.00     0.075 H 
ATOM     82  H41 non d ame     -12.692  10.891  72.605  0.00  0.00     0.075 H 
ATOM     83  C28 non d ame     -11.279   9.747  70.157  0.00  0.00     0.193 C 
ATOM     84  H42 non d ame     -13.267  10.517  69.813  0.00  0.00     0.280 HD
ATOM     85  H43 non d ame     -12.203  11.641  70.628  0.00  0.00     0.280 HD
ATOM     86  H44 non d ame     -10.260  10.115  70.274  0.00  0.00     0.129 H 
ATOM     87  H37 non d ame     -10.269   8.933  71.391  0.00  0.00     0.046 H 
BRANCH  83  88
ATOM     88  O6  non d ame     -11.360   9.273  68.811  0.00  0.00    -0.369 OA
ATOM     89  H45 non d ame     -11.695   9.973  68.245  0.00  0.00     0.212 HD
ENDBRANCH  83  88
ENDBRANCH  72  75
ENDBRANCH  47  72
ENDBRANCH  45  47
ENDBRANCH   1  43
BRANCH   1  90
ATOM     90  C16 non d ame      -6.092   8.775  68.037  0.00  0.00    -0.035 C 
ATOM     91  H21 non d ame      -5.965   9.704  67.479  0.00  0.00     0.037 H 
ATOM     92  H22 non d ame      -6.045   8.783  69.125  0.00  0.00     0.037 H 
BRANCH  90  93
ATOM     93  C17 non d ame      -4.962   7.813  67.552  0.00  0.00    -0.059 C 
ATOM     94  H23 non d ame      -5.302   7.342  66.630  0.00  0.00     0.038 H 
BRANCH  93  95
ATOM     95  C18 non d ame      -3.634   8.573  67.238  0.00  0.00    -0.073 C 
ATOM     96  H24 non d ame      -3.545   9.436  67.898  0.00  0.00     0.028 H 
ATOM     97  H25 non d ame      -2.787   7.906  67.396  0.00  0.00     0.028 H 
ATOM     98  H26 non d ame      -3.644   8.908  66.200  0.00  0.00     0.028 H 
ENDBRANCH  93  95
BRANCH  93  99
ATOM     99  C19 non d ame      -4.721   6.695  68.571  0.00  0.00    -0.073 C 
ATOM    100  H27 non d ame      -3.864   6.951  69.194  0.00  0.00     0.028 H 
ATOM    101  H28 non d ame      -5.606   6.579  69.197  0.00  0.00     0.028 H 
ATOM    102  H29 non d ame      -4.523   5.760  68.045  0.00  0.00     0.028 H 
ENDBRANCH  93  99
ENDBRANCH  90  93
ENDBRANCH   1  90
TORSDOF 26
ENDMDL
MODEL 3
REMARK VINA RESULT:      -6.7      3.145      8.335
REMARK  26 active torsions:
REMARK  status: ('A' for Active; 'I' for Inactive)
REMARK    1  A    between atoms: C2_2  and  C3_3 
REMARK    2  A    between atoms: C4_6  and  C5_7 
REMARK       I    between atoms: C5_7  and  N2_9 
REMARK    3  A    between atoms: N2_9  and  C6_10 
REMARK    4  A    between atoms: C6_10  and  C7_11 
REMARK    5  A    between atoms: C6_10  and  C8_13 
REMARK       I    between atoms: C7_11  and  N3_14 
REMARK    6  A    between atoms: N3_14  and  C9_15 
REMARK    7  A    between atoms: C9_15  and  C10_16 
REMARK    8  A    between atoms: C9_15  and  C11_18 
REMARK       I    between atoms: C10_16  and  N4_21 
REMARK    9  A    between atoms: C11_18  and  C12_19 
REMARK   10  A    between atoms: C11_18  and  C13_20 
REMARK   11  A    between atoms: N4_21  and  C14_22 
REMARK   12  A    between atoms: C14_22  and  C15_23 
REMARK   13  A    between atoms: C14_22  and  C16_25 
REMARK       I    between atoms: C15_23  and  N6_40 
REMARK   14  A    between atoms: C16_25  and  C17_26 
REMARK   15  A    between atoms: C17_26  and  C18_27 
REMARK   16  A    between atoms: C17_26  and  C19_28 
REMARK   17  A    between atoms: C20_29  and  C21_30 
REMARK   18  A    between atoms: C20_29  and  C24_33 
REMARK   19  A    between atoms: C20_29  and  N6_40 
REMARK   20  A    between atoms: C21_30  and  C22_31 
REMARK   21  A    between atoms: C22_31  and  C23_32 
REMARK   22  A    between atoms: C23_32  and  O8_43 
REMARK   23  A    between atoms: C24_33  and  C25_34 
REMARK   24  A    between atoms: C28_38  and  O6_39 
REMARK   25  A    between atoms: C29_42  and  O8_43 
REMARK   26  A    between atoms: C29_42  and  C35_49 
ROOT
ATOM      1  C14 non d ame     -11.979  14.352  70.055  0.00  0.00     0.089 C 
ATOM      2  H20 non d ame     -13.035  14.087  69.978  0.00  0.00     0.087 H 
ENDROOT
BRANCH   1   3
ATOM      3  N4  non d ame     -11.205  13.155  69.764  0.00  0.00    -0.346 N 
ATOM      4  C10 non d ame     -11.834  11.790  69.894  0.00  0.00     0.241 C 
ATOM      5  O4  non d ame     -12.965  11.681  70.237  0.00  0.00    -0.271 OA
ATOM      6  H19 non d ame     -10.243  13.268  69.476  0.00  0.00     0.163 HD
BRANCH   4   7
ATOM      7  C9  non d ame     -11.020  10.562  69.584  0.00  0.00     0.092 C 
ATOM      8  H11 non d ame     -10.145  10.537  70.235  0.00  0.00     0.088 H 
BRANCH   7   9
ATOM      9  N3  non d ame     -11.811   9.363  69.878  0.00  0.00    -0.346 N 
ATOM     10  C7  non d ame     -11.649   8.683  71.138  0.00  0.00     0.240 C 
ATOM     11  O3  non d ame     -10.885   9.085  71.929  0.00  0.00    -0.271 OA
ATOM     12  H10 non d ame     -12.474   9.003  69.205  0.00  0.00     0.163 HD
BRANCH  10  13
ATOM     13  C6  non d ame     -12.493   7.406  71.444  0.00  0.00     0.086 C 
ATOM     14  H6  non d ame     -12.519   6.708  70.607  0.00  0.00     0.086 H 
BRANCH  13  15
ATOM     15  N2  non d ame     -11.886   6.696  72.558  0.00  0.00    -0.343 N 
ATOM     16  C5  non d ame     -10.870   5.674  72.296  0.00  0.00     0.273 C 
ATOM     17  O2  non d ame     -10.550   5.429  71.186  0.00  0.00    -0.266 OA
ATOM     18  H5  non d ame     -12.168   6.910  73.504  0.00  0.00     0.163 HD
BRANCH  16  19
ATOM     19  C4  non d ame     -10.220   4.918  73.465  0.00  0.00     0.154 A 
ATOM     20  C1  non d ame      -8.822   4.717  73.695  0.00  0.00    -0.017 A 
ATOM     21  C2  non d ame      -8.755   3.968  74.891  0.00  0.00     0.077 A 
ATOM     22  H1  non d ame      -7.985   5.062  73.088  0.00  0.00     0.091 H 
ATOM     23  O1  non d ame      -9.976   3.769  75.293  0.00  0.00    -0.218 OA
ATOM     24  N1  non d ame     -10.849   4.314  74.478  0.00  0.00    -0.123 NA
BRANCH  21  25
ATOM     25  C3  non d ame      -7.486   3.485  75.581  0.00  0.00    -0.029 C 
ATOM     26  H2  non d ame      -6.838   4.337  75.790  0.00  0.00     0.036 H 
ATOM     27  H3  non d ame      -7.747   2.990  76.516  0.00  0.00     0.036 H 
ATOM     28  H4  non d ame      -6.963   2.782  74.931  0.00  0.00     0.036 H 
ENDBRANCH  21  25
ENDBRANCH  16  19
ENDBRANCH  13  15
BRANCH  13  29
ATOM     29  C8  non d ame     -13.904   7.803  71.792  0.00  0.00    -0.049 C 
ATOM     30  H7  non d ame     -14.053   8.857  71.555  0.00  0.00     0.030 H 
ATOM     31  H8  non d ame     -14.605   7.199  71.217  0.00  0.00     0.030 H 
ATOM     32  H9  non d ame     -14.074   7.644  72.857  0.00  0.00     0.030 H 
ENDBRANCH  13  29
ENDBRANCH  10  13
ENDBRANCH   7   9
BRANCH   7  33
ATOM     33  C11 non d ame     -10.628  10.566  68.077  0.00  0.00    -0.033 C 
ATOM     34  H12 non d ame     -11.379  11.147  67.544  0.00  0.00     0.042 H 
BRANCH  33  35
ATOM     35  C12 non d ame      -9.248  11.259  67.850  0.00  0.00    -0.071 C 
ATOM     36  H13 non d ame      -9.378  12.121  67.197  0.00  0.00     0.028 H 
ATOM     37  H14 non d ame      -8.844  11.586  68.808  0.00  0.00     0.028 H 
ATOM     38  H15 non d ame      -8.561  10.552  67.387  0.00  0.00     0.028 H 
ENDBRANCH  33  35
BRANCH  33  39
ATOM     39  C13 non d ame     -10.635   9.116  67.494  0.00  0.00    -0.071 C 
ATOM     40  H16 non d ame     -11.167   8.453  68.175  0.00  0.00     0.028 H 
ATOM     41  H17 non d ame     -11.135   9.117  66.524  0.00  0.00     0.028 H 
ATOM     42  H18 non d ame      -9.610   8.767  67.374  0.00  0.00     0.028 H 
ENDBRANCH  33  39
ENDBRANCH   7  33
ENDBRANCH   4   7
ENDBRANCH   1   3
BRANCH   1  43
ATOM     43  C15 non d ame     -11.576  15.460  69.041  0.00  0.00     0.240 C 
ATOM     44  O5  non d ame     -11.847  16.595  69.265  0.00  0.00    -0.271 OA
ATOM     45  N6  non d ame     -10.843  15.106  67.791  0.00  0.00    -0.355 N 
ATOM     46  H46 non d ame     -10.604  14.146  67.592  0.00  0.00     0.162 HD
BRANCH  45  47
ATOM     47  C20 non d ame     -10.466  16.171  66.837  0.00  0.00     0.013 C 
ATOM     48  H30 non d ame     -11.185  16.984  66.939  0.00  0.00     0.072 H 
BRANCH  47  49
ATOM     49  C21 non d ame     -10.505  15.620  65.430  0.00  0.00    -0.038 C 
ATOM     50  H31 non d ame     -11.497  15.860  65.048  0.00  0.00     0.036 H 
ATOM     51  H32 non d ame      -9.619  16.015  64.933  0.00  0.00     0.036 H 
BRANCH  49  52
ATOM     52  C22 non d ame     -10.381  14.081  65.386  0.00  0.00     0.018 C 
ATOM     53  H33 non d ame      -9.371  13.876  65.029  0.00  0.00     0.048 H 
ATOM     54  H34 non d ame     -10.692  13.731  66.370  0.00  0.00     0.048 H 
BRANCH  52  55
ATOM     55  C23 non d ame     -11.340  13.404  64.368  0.00  0.00     0.259 C 
ATOM     56  O7  non d ame     -12.452  13.800  64.232  0.00  0.00    -0.265 OA
BRANCH  55  57
ATOM     57  O8  non d ame     -10.878  12.294  63.608  0.00  0.00    -0.317 OA
BRANCH  57  58
ATOM     58  C29 non d ame     -10.180  11.311  64.379  0.00  0.00     0.052 C 
ATOM     59  H47 non d ame      -9.575  11.871  65.091  0.00  0.00     0.082 H 
ATOM     60  H48 non d ame     -10.943  10.621  64.737  0.00  0.00     0.082 H 
BRANCH  58  61
ATOM     61  C35 non d ame      -9.230  10.541  63.424  0.00  0.00    -0.034 A 
ATOM     62  C30 non d ame      -8.640  11.196  62.348  0.00  0.00    -0.075 A 
ATOM     63  C31 non d ame      -7.786  10.503  61.491  0.00  0.00    -0.082 A 
ATOM     64  H49 non d ame      -8.845  12.253  62.178  0.00  0.00     0.084 H 
ATOM     65  C32 non d ame      -7.527   9.148  61.711  0.00  0.00    -0.083 A 
ATOM     66  H50 non d ame      -7.323  11.021  60.651  0.00  0.00     0.083 H 
ATOM     67  C33 non d ame      -8.121   8.496  62.783  0.00  0.00    -0.082 A 
ATOM     68  H51 non d ame      -6.860   8.599  61.045  0.00  0.00     0.083 H 
ATOM     69  C34 non d ame      -8.972   9.186  63.644  0.00  0.00    -0.075 A 
ATOM     70  H52 non d ame      -7.917   7.438  62.950  0.00  0.00     0.083 H 
ATOM     71  H53 non d ame      -9.434   8.667  64.485  0.00  0.00     0.084 H 
ENDBRANCH  58  61
ENDBRANCH  57  58
ENDBRANCH  55  57
ENDBRANCH  52  55
ENDBRANCH  49  52
ENDBRANCH  47  49
BRANCH  47  72
ATOM     72  C24 non d ame      -9.056  16.669  67.151  0.00  0.00    -0.039 C 
ATOM     73  H35 non d ame      -8.757  16.141  68.056  0.00  0.00     0.036 H 
ATOM     74  H36 non d ame      -8.489  16.534  66.229  0.00  0.00     0.036 H 
BRANCH  72  75
ATOM     75  C25 non d ame      -9.041  18.235  67.490  0.00  0.00    -0.001 C 
ATOM     76  C26 non d ame     -10.540  18.871  67.262  0.00  0.00    -0.035 C 
ATOM     77  C27 non d ame     -10.433  19.965  66.471  0.00  0.00     0.085 C 
ATOM     78  H38 non d ame     -11.150  18.188  66.672  0.00  0.00     0.036 H 
ATOM     79  H39 non d ame     -10.923  19.271  68.201  0.00  0.00     0.036 H 
ATOM     80  N5  non d ame      -9.047  19.944  65.872  0.00  0.00    -0.049 N 
ATOM     81  H40 non d ame     -11.166  19.823  65.676  0.00  0.00     0.075 H 
ATOM     82  H41 non d ame     -10.516  20.819  67.143  0.00  0.00     0.075 H 
ATOM     83  C28 non d ame      -8.207  18.869  66.735  0.00  0.00     0.193 C 
ATOM     84  H42 non d ame      -9.148  19.592  64.931  0.00  0.00     0.280 HD
ATOM     85  H43 non d ame      -8.653  20.860  66.029  0.00  0.00     0.280 HD
ATOM     86  H44 non d ame      -7.481  19.200  67.477  0.00  0.00     0.129 H 
ATOM     87  H37 non d ame      -8.552  18.446  68.441  0.00  0.00     0.046 H 
BRANCH  83  88
ATOM     88  O6  non d ame      -7.491  17.990  65.866  0.00  0.00    -0.369 OA
ATOM     89  H45 non d ame      -8.109  17.543  65.283  0.00  0.00     0.212 HD
ENDBRANCH  83  88
ENDBRANCH  72  75
ENDBRANCH  47  72
ENDBRANCH  45  47
ENDBRANCH   1  43
BRANCH   1  90
ATOM     90  C16 non d ame     -11.666  14.814  71.468  0.00  0.00    -0.035 C 
ATOM     91  H21 non d ame     -10.952  14.087  71.858  0.00  0.00     0.037 H 
ATOM     92  H22 non d ame     -11.380  15.861  71.373  0.00  0.00     0.037 H 
BRANCH  90  93
ATOM     93  C17 non d ame     -12.899  14.779  72.427  0.00  0.00    -0.059 C 
ATOM     94  H23 non d ame     -12.995  13.761  72.804  0.00  0.00     0.038 H 
BRANCH  93  95
ATOM     95  C18 non d ame     -12.718  15.726  73.656  0.00  0.00    -0.073 C 
ATOM     96  H24 non d ame     -13.638  16.287  73.820  0.00  0.00     0.028 H 
ATOM     97  H25 non d ame     -12.491  15.133  74.541  0.00  0.00     0.028 H 
ATOM     98  H26 non d ame     -11.898  16.419  73.462  0.00  0.00     0.028 H 
ENDBRANCH  93  95
BRANCH  93  99
ATOM     99  C19 non d ame     -14.190  15.107  71.672  0.00  0.00    -0.073 C 
ATOM    100  H27 non d ame     -14.552  14.211  71.166  0.00  0.00     0.028 H 
ATOM    101  H28 non d ame     -14.943  15.457  72.378  0.00  0.00     0.028 H 
ATOM    102  H29 non d ame     -13.992  15.887  70.936  0.00  0.00     0.028 H 
ENDBRANCH  93  99
ENDBRANCH  90  93
ENDBRANCH   1  90
TORSDOF 26
ENDMDL
MODEL 4
REMARK VINA RESULT:      -6.6      2.118      8.045
REMARK  26 active torsions:
REMARK  status: ('A' for Active; 'I' for Inactive)
REMARK    1  A    between atoms: C2_2  and  C3_3 
REMARK    2  A    between atoms: C4_6  and  C5_7 
REMARK       I    between atoms: C5_7  and  N2_9 
REMARK    3  A    between atoms: N2_9  and  C6_10 
REMARK    4  A    between atoms: C6_10  and  C7_11 
REMARK    5  A    between atoms: C6_10  and  C8_13 
REMARK       I    between atoms: C7_11  and  N3_14 
REMARK    6  A    between atoms: N3_14  and  C9_15 
REMARK    7  A    between atoms: C9_15  and  C10_16 
REMARK    8  A    between atoms: C9_15  and  C11_18 
REMARK       I    between atoms: C10_16  and  N4_21 
REMARK    9  A    between atoms: C11_18  and  C12_19 
REMARK   10  A    between atoms: C11_18  and  C13_20 
REMARK   11  A    between atoms: N4_21  and  C14_22 
REMARK   12  A    between atoms: C14_22  and  C15_23 
REMARK   13  A    between atoms: C14_22  and  C16_25 
REMARK       I    between atoms: C15_23  and  N6_40 
REMARK   14  A    between atoms: C16_25  and  C17_26 
REMARK   15  A    between atoms: C17_26  and  C18_27 
REMARK   16  A    between atoms: C17_26  and  C19_28 
REMARK   17  A    between atoms: C20_29  and  C21_30 
REMARK   18  A    between atoms: C20_29  and  C24_33 
REMARK   19  A    between atoms: C20_29  and  N6_40 
REMARK   20  A    between atoms: C21_30  and  C22_31 
REMARK   21  A    between atoms: C22_31  and  C23_32 
REMARK   22  A    between atoms: C23_32  and  O8_43 
REMARK   23  A    between atoms: C24_33  and  C25_34 
REMARK   24  A    between atoms: C28_38  and  O6_39 
REMARK   25  A    between atoms: C29_42  and  O8_43 
REMARK   26  A    between atoms: C29_42  and  C35_49 
ROOT
ATOM      1  C14 non d ame      -8.694   5.836  65.176  0.00  0.00     0.089 C 
ATOM      2  H20 non d ame      -9.152   5.475  64.254  0.00  0.00     0.087 H 
ENDROOT
BRANCH   1   3
ATOM      3  N4  non d ame      -8.518   7.275  65.044  0.00  0.00    -0.346 N 
ATOM      4  C10 non d ame      -8.291   7.893  63.687  0.00  0.00     0.241 C 
ATOM      5  O4  non d ame      -8.250   7.211  62.716  0.00  0.00    -0.271 OA
ATOM      6  H19 non d ame      -8.553   7.837  65.882  0.00  0.00     0.163 HD
BRANCH   4   7
ATOM      7  C9  non d ame      -8.116   9.384  63.568  0.00  0.00     0.092 C 
ATOM      8  H11 non d ame      -8.094   9.660  62.513  0.00  0.00     0.088 H 
BRANCH   7   9
ATOM      9  N3  non d ame      -9.271  10.061  64.167  0.00  0.00    -0.346 N 
ATOM     10  C7  non d ame      -9.818  11.241  63.544  0.00  0.00     0.240 C 
ATOM     11  O3  non d ame      -9.342  11.661  62.561  0.00  0.00    -0.271 OA
ATOM     12  H10 non d ame      -9.692   9.711  65.016  0.00  0.00     0.163 HD
BRANCH  10  13
ATOM     13  C6  non d ame     -11.045  11.959  64.189  0.00  0.00     0.086 C 
ATOM     14  H6  non d ame     -11.223  11.648  65.218  0.00  0.00     0.086 H 
BRANCH  13  15
ATOM     15  N2  non d ame     -10.788  13.389  64.225  0.00  0.00    -0.343 N 
ATOM     16  C5  non d ame     -11.252  14.177  65.369  0.00  0.00     0.273 C 
ATOM     17  O2  non d ame     -11.833  13.651  66.253  0.00  0.00    -0.266 OA
ATOM     18  H5  non d ame     -10.294  13.831  63.463  0.00  0.00     0.163 HD
BRANCH  16  19
ATOM     19  C4  non d ame     -10.987  15.689  65.420  0.00  0.00     0.154 A 
ATOM     20  C1  non d ame     -10.385  16.427  66.490  0.00  0.00    -0.017 A 
ATOM     21  C2  non d ame     -10.371  17.767  66.044  0.00  0.00     0.077 A 
ATOM     22  H1  non d ame     -10.014  16.047  67.442  0.00  0.00     0.091 H 
ATOM     23  O1  non d ame     -10.903  17.786  64.857  0.00  0.00    -0.218 OA
ATOM     24  N1  non d ame     -11.270  16.586  64.471  0.00  0.00    -0.123 NA
BRANCH  21  25
ATOM     25  C3  non d ame      -9.831  18.966  66.812  0.00  0.00    -0.029 C 
ATOM     26  H2  non d ame     -10.614  19.369  67.455  0.00  0.00     0.036 H 
ATOM     27  H3  non d ame      -8.984  18.655  67.422  0.00  0.00     0.036 H 
ATOM     28  H4  non d ame      -9.509  19.734  66.108  0.00  0.00     0.036 H 
ENDBRANCH  21  25
ENDBRANCH  16  19
ENDBRANCH  13  15
BRANCH  13  29
ATOM     29  C8  non d ame     -12.281  11.676  63.374  0.00  0.00    -0.049 C 
ATOM     30  H7  non d ame     -12.019  11.645  62.316  0.00  0.00     0.030 H 
ATOM     31  H8  non d ame     -12.703  10.717  63.672  0.00  0.00     0.030 H 
ATOM     32  H9  non d ame     -13.015  12.465  63.542  0.00  0.00     0.030 H 
ENDBRANCH  13  29
ENDBRANCH  10  13
ENDBRANCH   7   9
BRANCH   7  33
ATOM     33  C11 non d ame      -6.820   9.816  64.314  0.00  0.00    -0.033 C 
ATOM     34  H12 non d ame      -6.286   8.910  64.596  0.00  0.00     0.042 H 
BRANCH  33  35
ATOM     35  C12 non d ame      -5.879  10.646  63.386  0.00  0.00    -0.071 C 
ATOM     36  H13 non d ame      -6.093  11.708  63.508  0.00  0.00     0.028 H 
ATOM     37  H14 non d ame      -4.841  10.451  63.652  0.00  0.00     0.028 H 
ATOM     38  H15 non d ame      -6.050  10.359  62.349  0.00  0.00     0.028 H 
ENDBRANCH  33  35
BRANCH  33  39
ATOM     39  C13 non d ame      -7.162  10.602  65.620  0.00  0.00    -0.071 C 
ATOM     40  H16 non d ame      -7.756   9.970  66.280  0.00  0.00     0.028 H 
ATOM     41  H17 non d ame      -6.239  10.888  66.125  0.00  0.00     0.028 H 
ATOM     42  H18 non d ame      -7.730  11.498  65.368  0.00  0.00     0.028 H 
ENDBRANCH  33  39
ENDBRANCH   7  33
ENDBRANCH   4   7
ENDBRANCH   1   3
BRANCH   1  43
ATOM     43  C15 non d ame      -9.583   5.559  66.421  0.00  0.00     0.240 C 
ATOM     44  O5  non d ame     -10.496   4.803  66.340  0.00  0.00    -0.271 OA
ATOM     45  N6  non d ame      -9.291   6.231  67.720  0.00  0.00    -0.355 N 
ATOM     46  H46 non d ame      -8.515   6.872  67.802  0.00  0.00     0.162 HD
BRANCH  45  47
ATOM     47  C20 non d ame     -10.145   5.956  68.895  0.00  0.00     0.013 C 
ATOM     48  H30 non d ame     -10.867   5.190  68.614  0.00  0.00     0.072 H 
BRANCH  47  49
ATOM     49  C21 non d ame     -10.867   7.223  69.296  0.00  0.00    -0.038 C 
ATOM     50  H31 non d ame     -11.786   7.235  68.713  0.00  0.00     0.036 H 
ATOM     51  H32 non d ame     -10.912   7.204  70.386  0.00  0.00     0.036 H 
BRANCH  49  52
ATOM     52  C22 non d ame     -10.090   8.501  68.914  0.00  0.00     0.018 C 
ATOM     53  H33 non d ame     -10.171   9.166  69.775  0.00  0.00     0.048 H 
ATOM     54  H34 non d ame      -9.110   8.162  68.578  0.00  0.00     0.048 H 
BRANCH  52  55
ATOM     55  C23 non d ame     -10.708   9.276  67.717  0.00  0.00     0.259 C 
ATOM     56  O7  non d ame     -10.501   8.926  66.600  0.00  0.00    -0.265 OA
BRANCH  55  57
ATOM     57  O8  non d ame     -11.515  10.419  67.969  0.00  0.00    -0.317 OA
BRANCH  57  58
ATOM     58  C29 non d ame     -10.844  11.457  68.691  0.00  0.00     0.052 C 
ATOM     59  H47 non d ame      -9.942  11.000  69.094  0.00  0.00     0.082 H 
ATOM     60  H48 non d ame     -10.768  12.295  67.998  0.00  0.00     0.082 H 
BRANCH  58  61
ATOM     61  C35 non d ame     -11.753  11.881  69.875  0.00  0.00    -0.034 A 
ATOM     62  C30 non d ame     -11.996  13.229  70.121  0.00  0.00    -0.075 A 
ATOM     63  C31 non d ame     -12.812  13.609  71.185  0.00  0.00    -0.082 A 
ATOM     64  H49 non d ame     -11.547  13.987  69.478  0.00  0.00     0.084 H 
ATOM     65  C32 non d ame     -13.384  12.636  72.008  0.00  0.00    -0.083 A 
ATOM     66  H50 non d ame     -13.003  14.666  71.372  0.00  0.00     0.083 H 
ATOM     67  C33 non d ame     -13.136  11.292  71.762  0.00  0.00    -0.082 A 
ATOM     68  H51 non d ame     -14.024  12.924  72.842  0.00  0.00     0.083 H 
ATOM     69  C34 non d ame     -12.322  10.908  70.698  0.00  0.00    -0.075 A 
ATOM     70  H52 non d ame     -13.582  10.535  72.408  0.00  0.00     0.083 H 
ATOM     71  H53 non d ame     -12.134   9.849  70.511  0.00  0.00     0.084 H 
ENDBRANCH  58  61
ENDBRANCH  57  58
ENDBRANCH  55  57
ENDBRANCH  52  55
ENDBRANCH  49  52
ENDBRANCH  47  49
BRANCH  47  72
ATOM     72  C24 non d ame      -9.282   5.470  70.058  0.00  0.00    -0.039 C 
ATOM     73  H35 non d ame      -8.451   4.935  69.598  0.00  0.00     0.036 H 
ATOM     74  H36 non d ame      -9.090   6.355  70.667  0.00  0.00     0.036 H 
BRANCH  72  75
ATOM     75  C25 non d ame     -10.066   4.422  70.982  0.00  0.00    -0.001 C 
ATOM     76  C26 non d ame     -10.662   5.184  72.312  0.00  0.00    -0.035 C 
ATOM     77  C27 non d ame     -10.285   4.494  73.415  0.00  0.00     0.085 C 
ATOM     78  H38 non d ame     -10.176   6.151  72.438  0.00  0.00     0.036 H 
ATOM     79  H39 non d ame     -11.749   5.115  72.327  0.00  0.00     0.036 H 
ATOM     80  N5  non d ame      -9.216   3.520  72.982  0.00  0.00    -0.049 N 
ATOM     81  H40 non d ame      -9.842   5.233  74.084  0.00  0.00     0.075 H 
ATOM     82  H41 non d ame     -11.168   3.938  73.726  0.00  0.00     0.075 H 
ATOM     83  C28 non d ame      -9.289   3.467  71.370  0.00  0.00     0.193 C 
ATOM     84  H42 non d ame      -8.332   3.926  73.251  0.00  0.00     0.280 HD
ATOM     85  H43 non d ame      -9.487   2.617  73.345  0.00  0.00     0.280 HD
ATOM     86  H44 non d ame      -9.748   2.619  70.863  0.00  0.00     0.129 H 
ATOM     87  H37 non d ame     -10.761   3.808  70.409  0.00  0.00     0.046 H 
BRANCH  83  88
ATOM     88  O6  non d ame      -7.977   3.580  70.813  0.00  0.00    -0.369 OA
ATOM     89  H45 non d ame      -7.846   2.887  70.162  0.00  0.00     0.212 HD
ENDBRANCH  83  88
ENDBRANCH  72  75
ENDBRANCH  47  72
ENDBRANCH  45  47
ENDBRANCH   1  43
BRANCH   1  90
ATOM     90  C16 non d ame      -7.333   5.186  65.364  0.00  0.00    -0.035 C 
ATOM     91  H21 non d ame      -7.419   4.596  66.278  0.00  0.00     0.037 H 
ATOM     92  H22 non d ame      -7.115   4.693  64.417  0.00  0.00     0.037 H 
BRANCH  90  93
ATOM     93  C17 non d ame      -6.178   6.208  65.607  0.00  0.00    -0.059 C 
ATOM     94  H23 non d ame      -6.590   7.209  65.482  0.00  0.00     0.038 H 
BRANCH  93  95
ATOM     95  C18 non d ame      -5.597   6.109  67.054  0.00  0.00    -0.073 C 
ATOM     96  H24 non d ame      -5.351   5.071  67.276  0.00  0.00     0.028 H 
ATOM     97  H25 non d ame      -4.697   6.719  67.126  0.00  0.00     0.028 H 
ATOM     98  H26 non d ame      -6.338   6.469  67.768  0.00  0.00     0.028 H 
ENDBRANCH  93  95
BRANCH  93  99
ATOM     99  C19 non d ame      -5.070   6.041  64.563  0.00  0.00    -0.073 C 
ATOM    100  H27 non d ame      -4.744   5.000  64.543  0.00  0.00     0.028 H 
ATOM    101  H28 non d ame      -5.453   6.321  63.581  0.00  0.00     0.028 H 
ATOM    102  H29 non d ame      -4.227   6.682  64.820  0.00  0.00     0.028 H 
ENDBRANCH  93  99
ENDBRANCH  90  93
ENDBRANCH   1  90
TORSDOF 26
ENDMDL
MODEL 5
REMARK VINA RESULT:      -6.5      2.836      9.940
REMARK  26 active torsions:
REMARK  status: ('A' for Active; 'I' for Inactive)
REMARK    1  A    between atoms: C2_2  and  C3_3 
REMARK    2  A    between atoms: C4_6  and  C5_7 
REMARK       I    between atoms: C5_7  and  N2_9 
REMARK    3  A    between atoms: N2_9  and  C6_10 
REMARK    4  A    between atoms: C6_10  and  C7_11 
REMARK    5  A    between atoms: C6_10  and  C8_13 
REMARK       I    between atoms: C7_11  and  N3_14 
REMARK    6  A    between atoms: N3_14  and  C9_15 
REMARK    7  A    between atoms: C9_15  and  C10_16 
REMARK    8  A    between atoms: C9_15  and  C11_18 
REMARK       I    between atoms: C10_16  and  N4_21 
REMARK    9  A    between atoms: C11_18  and  C12_19 
REMARK   10  A    between atoms: C11_18  and  C13_20 
REMARK   11  A    between atoms: N4_21  and  C14_22 
REMARK   12  A    between atoms: C14_22  and  C15_23 
REMARK   13  A    between atoms: C14_22  and  C16_25 
REMARK       I    between atoms: C15_23  and  N6_40 
REMARK   14  A    between atoms: C16_25  and  C17_26 
REMARK   15  A    between atoms: C17_26  and  C18_27 
REMARK   16  A    between atoms: C17_26  and  C19_28 
REMARK   17  A    between atoms: C20_29  and  C21_30 
REMARK   18  A    between atoms: C20_29  and  C24_33 
REMARK   19  A    between atoms: C20_29  and  N6_40 
REMARK   20  A    between atoms: C21_30  and  C22_31 
REMARK   21  A    between atoms: C22_31  and  C23_32 
REMARK   22  A    between atoms: C23_32  and  O8_43 
REMARK   23  A    between atoms: C24_33  and  C25_34 
REMARK   24  A    between atoms: C28_38  and  O6_39 
REMARK   25  A    between atoms: C29_42  and  O8_43 
REMARK   26  A    between atoms: C29_42  and  C35_49 
ROOT
ATOM      1  C14 non d ame      -7.120  14.508  67.533  0.00  0.00     0.089 C 
ATOM      2  H20 non d ame      -6.933  14.868  66.520  0.00  0.00     0.087 H 
ENDROOT
BRANCH   1   3
ATOM      3  N4  non d ame      -8.270  15.234  68.050  0.00  0.00    -0.346 N 
ATOM      4  C10 non d ame      -9.196  15.966  67.109  0.00  0.00     0.241 C 
ATOM      5  O4  non d ame      -8.992  15.957  65.940  0.00  0.00    -0.271 OA
ATOM      6  H19 non d ame      -8.425  15.232  69.048  0.00  0.00     0.163 HD
BRANCH   4   7
ATOM      7  C9  non d ame     -10.384  16.708  67.661  0.00  0.00     0.092 C 
ATOM      8  H11 non d ame     -11.236  16.567  66.996  0.00  0.00     0.088 H 
BRANCH   7   9
ATOM      9  N3  non d ame     -10.754  16.141  68.962  0.00  0.00    -0.346 N 
ATOM     10  C7  non d ame     -11.766  15.117  69.040  0.00  0.00     0.240 C 
ATOM     11  O3  non d ame     -12.294  14.737  68.067  0.00  0.00    -0.271 OA
ATOM     12  H10 non d ame     -10.308  16.459  69.811  0.00  0.00     0.163 HD
BRANCH  10  13
ATOM     13  C6  non d ame     -12.157  14.520  70.428  0.00  0.00     0.086 C 
ATOM     14  H6  non d ame     -13.205  14.684  70.678  0.00  0.00     0.086 H 
BRANCH  13  15
ATOM     15  N2  non d ame     -11.959  13.080  70.394  0.00  0.00    -0.343 N 
ATOM     16  C5  non d ame     -12.704  12.226  71.323  0.00  0.00     0.273 C 
ATOM     17  O2  non d ame     -13.457  12.708  72.094  0.00  0.00    -0.266 OA
ATOM     18  H5  non d ame     -11.310  12.677  69.733  0.00  0.00     0.163 HD
BRANCH  16  19
ATOM     19  C4  non d ame     -12.504  10.703  71.297  0.00  0.00     0.154 A 
ATOM     20  C1  non d ame     -11.448   9.980  70.657  0.00  0.00    -0.017 A 
ATOM     21  C2  non d ame     -11.721   8.621  70.929  0.00  0.00     0.077 A 
ATOM     22  H1  non d ame     -10.611  10.380  70.084  0.00  0.00     0.091 H 
ATOM     23  O1  non d ame     -12.807   8.580  71.644  0.00  0.00    -0.218 OA
ATOM     24  N1  non d ame     -13.282   9.782  71.872  0.00  0.00    -0.123 NA
BRANCH  21  25
ATOM     25  C3  non d ame     -10.894   7.426  70.472  0.00  0.00    -0.029 C 
ATOM     26  H2  non d ame     -11.427   6.505  70.705  0.00  0.00     0.036 H 
ATOM     27  H3  non d ame     -10.728   7.489  69.397  0.00  0.00     0.036 H 
ATOM     28  H4  non d ame      -9.933   7.430  70.988  0.00  0.00     0.036 H 
ENDBRANCH  21  25
ENDBRANCH  16  19
ENDBRANCH  13  15
BRANCH  13  29
ATOM     29  C8  non d ame     -11.298  15.134  71.503  0.00  0.00    -0.049 C 
ATOM     30  H7  non d ame     -10.335  14.623  71.535  0.00  0.00     0.030 H 
ATOM     31  H8  non d ame     -11.142  16.190  71.286  0.00  0.00     0.030 H 
ATOM     32  H9  non d ame     -11.795  15.031  72.468  0.00  0.00     0.030 H 
ENDBRANCH  13  29
ENDBRANCH  10  13
ENDBRANCH   7   9
BRANCH   7  33
ATOM     33  C11 non d ame     -10.020  18.211  67.838  0.00  0.00    -0.033 C 
ATOM     34  H12 non d ame     -10.558  18.579  68.710  0.00  0.00     0.042 H 
BRANCH  33  35
ATOM     35  C12 non d ame      -8.495  18.398  68.111  0.00  0.00    -0.071 C 
ATOM     36  H13 non d ame      -8.129  19.259  67.552  0.00  0.00     0.028 H 
ATOM     37  H14 non d ame      -8.335  18.562  69.176  0.00  0.00     0.028 H 
ATOM     38  H15 non d ame      -7.959  17.505  67.795  0.00  0.00     0.028 H 
ENDBRANCH  33  35
BRANCH  33  39
ATOM     39  C13 non d ame     -10.479  19.046  66.600  0.00  0.00    -0.071 C 
ATOM     40  H16 non d ame     -10.704  18.375  65.771  0.00  0.00     0.028 H 
ATOM     41  H17 non d ame     -11.372  19.617  66.857  0.00  0.00     0.028 H 
ATOM     42  H18 non d ame      -9.683  19.731  66.307  0.00  0.00     0.028 H 
ENDBRANCH  33  39
ENDBRANCH   7  33
ENDBRANCH   4   7
ENDBRANCH   1   3
BRANCH   1  43
ATOM     43  C15 non d ame      -7.441  12.987  67.566  0.00  0.00     0.240 C 
ATOM     44  O5  non d ame      -7.145  12.340  68.518  0.00  0.00    -0.271 OA
ATOM     45  N6  non d ame      -8.126  12.336  66.412  0.00  0.00    -0.355 N 
ATOM     46  H46 non d ame      -8.385  12.876  65.600  0.00  0.00     0.162 HD
BRANCH  45  47
ATOM     47  C20 non d ame      -8.424  10.889  66.459  0.00  0.00     0.013 C 
ATOM     48  H30 non d ame      -8.471  10.589  67.506  0.00  0.00     0.072 H 
BRANCH  47  49
ATOM     49  C21 non d ame      -7.325  10.128  65.753  0.00  0.00    -0.038 C 
ATOM     50  H31 non d ame      -7.264  10.558  64.754  0.00  0.00     0.036 H 
ATOM     51  H32 non d ame      -6.463  10.170  66.419  0.00  0.00     0.036 H 
BRANCH  49  52
ATOM     52  C22 non d ame      -7.658   8.631  65.565  0.00  0.00     0.018 C 
ATOM     53  H33 non d ame      -6.848   8.085  66.050  0.00  0.00     0.048 H 
ATOM     54  H34 non d ame      -8.682   8.510  65.915  0.00  0.00     0.048 H 
BRANCH  52  55
ATOM     55  C23 non d ame      -7.655   8.171  64.080  0.00  0.00     0.259 C 
ATOM     56  O7  non d ame      -6.940   8.693  63.288  0.00  0.00    -0.265 OA
BRANCH  55  57
ATOM     57  O8  non d ame      -8.530   7.125  63.674  0.00  0.00    -0.317 OA
BRANCH  57  58
ATOM     58  C29 non d ame      -7.976   5.814  63.822  0.00  0.00     0.052 C 
ATOM     59  H47 non d ame      -7.058   5.813  63.235  0.00  0.00     0.082 H 
ATOM     60  H48 non d ame      -7.936   5.630  64.896  0.00  0.00     0.082 H 
BRANCH  58  61
ATOM     61  C35 non d ame      -8.967   4.801  63.188  0.00  0.00    -0.034 A 
ATOM     62  C30 non d ame      -9.981   4.242  63.958  0.00  0.00    -0.075 A 
ATOM     63  C31 non d ame     -10.871   3.333  63.388  0.00  0.00    -0.082 A 
ATOM     64  H49 non d ame     -10.079   4.517  65.009  0.00  0.00     0.084 H 
ATOM     65  C32 non d ame     -10.741   2.980  62.042  0.00  0.00    -0.083 A 
ATOM     66  H50 non d ame     -11.666   2.899  63.994  0.00  0.00     0.083 H 
ATOM     67  C33 non d ame      -9.724   3.538  61.278  0.00  0.00    -0.082 A 
ATOM     68  H51 non d ame     -11.433   2.271  61.588  0.00  0.00     0.083 H 
ATOM     69  C34 non d ame      -8.835   4.449  61.844  0.00  0.00    -0.075 A 
ATOM     70  H52 non d ame      -9.625   3.259  60.228  0.00  0.00     0.083 H 
ATOM     71  H53 non d ame      -8.040   4.884  61.236  0.00  0.00     0.084 H 
ENDBRANCH  58  61
ENDBRANCH  57  58
ENDBRANCH  55  57
ENDBRANCH  52  55
ENDBRANCH  49  52
ENDBRANCH  47  49
BRANCH  47  72
ATOM     72  C24 non d ame      -9.759  10.615  65.769  0.00  0.00    -0.039 C 
ATOM     73  H35 non d ame      -9.612   9.691  65.209  0.00  0.00     0.036 H 
ATOM     74  H36 non d ame     -10.509  10.658  66.559  0.00  0.00     0.036 H 
BRANCH  72  75
ATOM     75  C25 non d ame     -10.124  11.758  64.707  0.00  0.00    -0.001 C 
ATOM     76  C26 non d ame     -11.479  12.556  65.189  0.00  0.00    -0.035 C 
ATOM     77  C27 non d ame     -12.357  12.585  64.158  0.00  0.00     0.085 C 
ATOM     78  H38 non d ame     -12.000  11.981  65.953  0.00  0.00     0.036 H 
ATOM     79  H39 non d ame     -11.252  13.609  65.359  0.00  0.00     0.036 H 
ATOM     80  N5  non d ame     -11.862  11.597  63.129  0.00  0.00    -0.049 N 
ATOM     81  H40 non d ame     -13.301  12.225  64.570  0.00  0.00     0.075 H 
ATOM     82  H41 non d ame     -12.291  13.591  63.747  0.00  0.00     0.075 H 
ATOM     83  C28 non d ame     -10.337  11.259  63.536  0.00  0.00     0.193 C 
ATOM     84  H42 non d ame     -12.418  10.763  63.241  0.00  0.00     0.280 HD
ATOM     85  H43 non d ame     -11.857  12.085  62.244  0.00  0.00     0.280 HD
ATOM     86  H44 non d ame      -9.505  11.692  62.981  0.00  0.00     0.129 H 
ATOM     87  H37 non d ame      -9.259  12.365  64.441  0.00  0.00     0.046 H 
BRANCH  83  88
ATOM     88  O6  non d ame     -10.120   9.846  63.505  0.00  0.00    -0.369 OA
ATOM     89  H45 non d ame      -9.477   9.637  62.824  0.00  0.00     0.212 HD
ENDBRANCH  83  88
ENDBRANCH  72  75
ENDBRANCH  47  72
ENDBRANCH  45  47
ENDBRANCH   1  43
BRANCH   1  90
ATOM     90  C16 non d ame      -5.915  14.796  68.413  0.00  0.00    -0.035 C 
ATOM     91  H21 non d ame      -5.482  13.820  68.638  0.00  0.00     0.037 H 
ATOM     92  H22 non d ame      -5.331  15.538  67.869  0.00  0.00     0.037 H 
BRANCH  90  93
ATOM     93  C17 non d ame      -6.282  15.443  69.786  0.00  0.00    -0.059 C 
ATOM     94  H23 non d ame      -7.364  15.565  69.815  0.00  0.00     0.038 H 
BRANCH  93  95
ATOM     95  C18 non d ame      -5.872  14.538  70.992  0.00  0.00    -0.073 C 
ATOM     96  H24 non d ame      -6.640  13.782  71.156  0.00  0.00     0.028 H 
ATOM     97  H25 non d ame      -4.923  14.049  70.773  0.00  0.00     0.028 H 
ATOM     98  H26 non d ame      -5.767  15.151  71.887  0.00  0.00     0.028 H 
ENDBRANCH  93  95
BRANCH  93  99
ATOM     99  C19 non d ame      -5.663  16.837  69.918  0.00  0.00    -0.073 C 
ATOM    100  H27 non d ame      -5.157  16.921  70.880  0.00  0.00     0.028 H 
ATOM    101  H28 non d ame      -4.944  16.991  69.113  0.00  0.00     0.028 H 
ATOM    102  H29 non d ame      -6.448  17.591  69.851  0.00  0.00     0.028 H 
ENDBRANCH  93  99
ENDBRANCH  90  93
ENDBRANCH   1  90
TORSDOF 26
ENDMDL
MODEL 6
REMARK VINA RESULT:      -6.5      3.027      9.864
REMARK  26 active torsions:
REMARK  status: ('A' for Active; 'I' for Inactive)
REMARK    1  A    between atoms: C2_2  and  C3_3 
REMARK    2  A    between atoms: C4_6  and  C5_7 
REMARK       I    between atoms: C5_7  and  N2_9 
REMARK    3  A    between atoms: N2_9  and  C6_10 
REMARK    4  A    between atoms: C6_10  and  C7_11 
REMARK    5  A    between atoms: C6_10  and  C8_13 
REMARK       I    between atoms: C7_11  and  N3_14 
REMARK    6  A    between atoms: N3_14  and  C9_15 
REMARK    7  A    between atoms: C9_15  and  C10_16 
REMARK    8  A    between atoms: C9_15  and  C11_18 
REMARK       I    between atoms: C10_16  and  N4_21 
REMARK    9  A    between atoms: C11_18  and  C12_19 
REMARK   10  A    between atoms: C11_18  and  C13_20 
REMARK   11  A    between atoms: N4_21  and  C14_22 
REMARK   12  A    between atoms: C14_22  and  C15_23 
REMARK   13  A    between atoms: C14_22  and  C16_25 
REMARK       I    between atoms: C15_23  and  N6_40 
REMARK   14  A    between atoms: C16_25  and  C17_26 
REMARK   15  A    between atoms: C17_26  and  C18_27 
REMARK   16  A    between atoms: C17_26  and  C19_28 
REMARK   17  A    between atoms: C20_29  and  C21_30 
REMARK   18  A    between atoms: C20_29  and  C24_33 
REMARK   19  A    between atoms: C20_29  and  N6_40 
REMARK   20  A    between atoms: C21_30  and  C22_31 
REMARK   21  A    between atoms: C22_31  and  C23_32 
REMARK   22  A    between atoms: C23_32  and  O8_43 
REMARK   23  A    between atoms: C24_33  and  C25_34 
REMARK   24  A    between atoms: C28_38  and  O6_39 
REMARK   25  A    between atoms: C29_42  and  O8_43 
REMARK   26  A    between atoms: C29_42  and  C35_49 
ROOT
ATOM      1  C14 non d ame      -7.130  13.124  68.108  0.00  0.00     0.089 C 
ATOM      2  H20 non d ame      -6.396  12.911  67.331  0.00  0.00     0.087 H 
ENDROOT
BRANCH   1   3
ATOM      3  N4  non d ame      -7.311  14.568  68.156  0.00  0.00    -0.346 N 
ATOM      4  C10 non d ame      -6.201  15.490  67.717  0.00  0.00     0.241 C 
ATOM      5  O4  non d ame      -5.170  15.046  67.331  0.00  0.00    -0.271 OA
ATOM      6  H19 non d ame      -8.195  14.926  68.491  0.00  0.00     0.163 HD
BRANCH   4   7
ATOM      7  C9  non d ame      -6.407  16.981  67.768  0.00  0.00     0.092 C 
ATOM      8  H11 non d ame      -6.144  17.413  66.803  0.00  0.00     0.088 H 
BRANCH   7   9
ATOM      9  N3  non d ame      -7.825  17.271  68.001  0.00  0.00    -0.346 N 
ATOM     10  C7  non d ame      -8.662  17.695  66.906  0.00  0.00     0.240 C 
ATOM     11  O3  non d ame      -8.213  17.810  65.832  0.00  0.00    -0.271 OA
ATOM     12  H10 non d ame      -8.228  17.177  68.922  0.00  0.00     0.163 HD
BRANCH  10  13
ATOM     13  C6  non d ame     -10.171  18.005  67.161  0.00  0.00     0.086 C 
ATOM     14  H6  non d ame     -10.827  17.547  66.421  0.00  0.00     0.086 H 
BRANCH  13  15
ATOM     15  N2  non d ame     -10.553  17.457  68.452  0.00  0.00    -0.343 N 
ATOM     16  C5  non d ame     -11.228  16.159  68.514  0.00  0.00     0.273 C 
ATOM     17  O2  non d ame     -11.462  15.565  67.519  0.00  0.00    -0.266 OA
ATOM     18  H5  non d ame     -10.352  17.973  69.297  0.00  0.00     0.163 HD
BRANCH  16  19
ATOM     19  C4  non d ame     -11.637  15.567  69.871  0.00  0.00     0.154 A 
ATOM     20  C1  non d ame     -11.622  16.226  71.142  0.00  0.00    -0.017 A 
ATOM     21  C2  non d ame     -12.086  15.258  72.059  0.00  0.00     0.077 A 
ATOM     22  H1  non d ame     -11.321  17.251  71.364  0.00  0.00     0.091 H 
ATOM     23  O1  non d ame     -12.337  14.174  71.385  0.00  0.00    -0.218 OA
ATOM     24  N1  non d ame     -12.083  14.330  70.106  0.00  0.00    -0.123 NA
BRANCH  21  25
ATOM     25  C3  non d ame     -12.261  15.449  73.560  0.00  0.00    -0.029 C 
ATOM     26  H2  non d ame     -11.937  16.452  73.839  0.00  0.00     0.036 H 
ATOM     27  H3  non d ame     -13.310  15.319  73.823  0.00  0.00     0.036 H 
ATOM     28  H4  non d ame     -11.659  14.711  74.093  0.00  0.00     0.036 H 
ENDBRANCH  21  25
ENDBRANCH  16  19
ENDBRANCH  13  15
BRANCH  13  29
ATOM     29  C8  non d ame     -10.389  19.497  67.148  0.00  0.00    -0.049 C 
ATOM     30  H7  non d ame     -11.411  19.711  66.833  0.00  0.00     0.030 H 
ATOM     31  H8  non d ame     -10.226  19.897  68.148  0.00  0.00     0.030 H 
ATOM     32  H9  non d ame      -9.690  19.960  66.452  0.00  0.00     0.030 H 
ENDBRANCH  13  29
ENDBRANCH  10  13
ENDBRANCH   7   9
BRANCH   7  33
ATOM     33  C11 non d ame      -5.560  17.581  68.928  0.00  0.00    -0.033 C 
ATOM     34  H12 non d ame      -4.525  17.625  68.591  0.00  0.00     0.042 H 
BRANCH  33  35
ATOM     35  C12 non d ame      -6.008  19.038  69.263  0.00  0.00    -0.071 C 
ATOM     36  H13 non d ame      -6.987  19.017  69.741  0.00  0.00     0.028 H 
ATOM     37  H14 non d ame      -5.285  19.494  69.938  0.00  0.00     0.028 H 
ATOM     38  H15 non d ame      -6.065  19.620  68.344  0.00  0.00     0.028 H 
ENDBRANCH  33  35
BRANCH  33  39
ATOM     39  C13 non d ame      -5.618  16.667  70.194  0.00  0.00    -0.071 C 
ATOM     40  H16 non d ame      -6.431  16.993  70.841  0.00  0.00     0.028 H 
ATOM     41  H17 non d ame      -5.788  15.633  69.889  0.00  0.00     0.028 H 
ATOM     42  H18 non d ame      -4.674  16.734  70.735  0.00  0.00     0.028 H 
ENDBRANCH  33  39
ENDBRANCH   7  33
ENDBRANCH   4   7
ENDBRANCH   1   3
BRANCH   1  43
ATOM     43  C15 non d ame      -8.507  12.463  67.813  0.00  0.00     0.240 C 
ATOM     44  O5  non d ame      -9.498  12.933  68.269  0.00  0.00    -0.271 OA
ATOM     45  N6  non d ame      -8.590  11.248  66.953  0.00  0.00    -0.355 N 
ATOM     46  H46 non d ame      -7.755  10.843  66.557  0.00  0.00     0.162 HD
BRANCH  45  47
ATOM     47  C20 non d ame      -9.906  10.632  66.681  0.00  0.00     0.013 C 
ATOM     48  H30 non d ame     -10.669  11.241  67.166  0.00  0.00     0.072 H 
BRANCH  47  49
ATOM     49  C21 non d ame      -9.929   9.230  67.247  0.00  0.00    -0.038 C 
ATOM     50  H31 non d ame     -10.256   9.335  68.281  0.00  0.00     0.036 H 
ATOM     51  H32 non d ame     -10.519   8.639  66.546  0.00  0.00     0.036 H 
BRANCH  49  52
ATOM     52  C22 non d ame      -8.528   8.581  67.296  0.00  0.00     0.018 C 
ATOM     53  H33 non d ame      -7.856   9.292  66.814  0.00  0.00     0.048 H 
ATOM     54  H34 non d ame      -8.369   8.301  68.337  0.00  0.00     0.048 H 
BRANCH  52  55
ATOM     55  C23 non d ame      -8.419   7.265  66.476  0.00  0.00     0.259 C 
ATOM     56  O7  non d ame      -9.357   6.545  66.363  0.00  0.00    -0.265 OA
BRANCH  55  57
ATOM     57  O8  non d ame      -7.178   6.922  65.872  0.00  0.00    -0.317 OA
BRANCH  57  58
ATOM     58  C29 non d ame      -7.277   6.600  64.482  0.00  0.00     0.052 C 
ATOM     59  H47 non d ame      -6.384   6.021  64.249  0.00  0.00     0.082 H 
ATOM     60  H48 non d ame      -8.263   6.157  64.352  0.00  0.00     0.082 H 
BRANCH  58  61
ATOM     61  C35 non d ame      -7.225   7.927  63.679  0.00  0.00    -0.034 A 
ATOM     62  C30 non d ame      -7.880   8.028  62.455  0.00  0.00    -0.075 A 
ATOM     63  C31 non d ame      -7.833   9.220  61.734  0.00  0.00    -0.082 A 
ATOM     64  H49 non d ame      -8.430   7.173  62.062  0.00  0.00     0.084 H 
ATOM     65  C32 non d ame      -7.125  10.314  62.239  0.00  0.00    -0.083 A 
ATOM     66  H50 non d ame      -8.350   9.297  60.778  0.00  0.00     0.083 H 
ATOM     67  C33 non d ame      -6.469  10.208  63.459  0.00  0.00    -0.082 A 
ATOM     68  H51 non d ame      -7.084  11.250  61.682  0.00  0.00     0.083 H 
ATOM     69  C34 non d ame      -6.516   9.018  64.184  0.00  0.00    -0.075 A 
ATOM     70  H52 non d ame      -5.916  11.063  63.849  0.00  0.00     0.083 H 
ATOM     71  H53 non d ame      -5.999   8.944  65.142  0.00  0.00     0.084 H 
ENDBRANCH  58  61
ENDBRANCH  57  58
ENDBRANCH  55  57
ENDBRANCH  52  55
ENDBRANCH  49  52
ENDBRANCH  47  49
BRANCH  47  72
ATOM     72  C24 non d ame     -10.149  10.578  65.174  0.00  0.00    -0.039 C 
ATOM     73  H35 non d ame      -9.268  10.089  64.756  0.00  0.00     0.036 H 
ATOM     74  H36 non d ame     -11.132  10.122  65.055  0.00  0.00     0.036 H 
BRANCH  72  75
ATOM     75  C25 non d ame     -10.226  12.044  64.532  0.00  0.00    -0.001 C 
ATOM     76  C26 non d ame     -11.318  12.958  65.355  0.00  0.00    -0.035 C 
ATOM     77  C27 non d ame     -12.179  13.511  64.467  0.00  0.00     0.085 C 
ATOM     78  H38 non d ame     -11.956  12.320  65.965  0.00  0.00     0.036 H 
ATOM     79  H39 non d ame     -10.823  13.820  65.801  0.00  0.00     0.036 H 
ATOM     80  N5  non d ame     -11.976  12.798  63.152  0.00  0.00    -0.049 N 
ATOM     81  H40 non d ame     -13.176  13.281  64.846  0.00  0.00     0.075 H 
ATOM     82  H41 non d ame     -11.862  14.548  64.362  0.00  0.00     0.075 H 
ATOM     83  C28 non d ame     -10.583  11.994  63.293  0.00  0.00     0.193 C 
ATOM     84  H42 non d ame     -12.727  12.129  63.070  0.00  0.00     0.280 HD
ATOM     85  H43 non d ame     -11.862  13.517  62.452  0.00  0.00     0.280 HD
ATOM     86  H44 non d ame      -9.679  12.363  62.810  0.00  0.00     0.129 H 
ATOM     87  H37 non d ame      -9.238  12.476  64.372  0.00  0.00     0.046 H 
BRANCH  83  88
ATOM     88  O6  non d ame     -10.740  10.651  62.831  0.00  0.00    -0.369 OA
ATOM     89  H45 non d ame      -9.962  10.392  62.332  0.00  0.00     0.212 HD
ENDBRANCH  83  88
ENDBRANCH  72  75
ENDBRANCH  47  72
ENDBRANCH  45  47
ENDBRANCH   1  43
BRANCH   1  90
ATOM     90  C16 non d ame      -6.610  12.645  69.454  0.00  0.00    -0.035 C 
ATOM     91  H21 non d ame      -6.045  13.485  69.861  0.00  0.00     0.037 H 
ATOM     92  H22 non d ame      -7.485  12.269  69.984  0.00  0.00     0.037 H 
BRANCH  90  93
ATOM     93  C17 non d ame      -5.610  11.450  69.349  0.00  0.00    -0.059 C 
ATOM     94  H23 non d ame      -4.776  11.658  70.020  0.00  0.00     0.038 H 
BRANCH  93  95
ATOM     95  C18 non d ame      -6.256  10.099  69.796  0.00  0.00    -0.073 C 
ATOM     96  H24 non d ame      -5.471   9.399  70.081  0.00  0.00     0.028 H 
ATOM     97  H25 non d ame      -6.912  10.275  70.647  0.00  0.00     0.028 H 
ATOM     98  H26 non d ame      -6.834   9.683  68.970  0.00  0.00     0.028 H 
ENDBRANCH  93  95
BRANCH  93  99
ATOM     99  C19 non d ame      -5.036  11.338  67.934  0.00  0.00    -0.073 C 
ATOM    100  H27 non d ame      -5.653  10.659  67.345  0.00  0.00     0.028 H 
ATOM    101  H28 non d ame      -5.030  12.323  67.467  0.00  0.00     0.028 H 
ATOM    102  H29 non d ame      -4.017  10.954  67.984  0.00  0.00     0.028 H 
ENDBRANCH  93  99
ENDBRANCH  90  93
ENDBRANCH   1  90
TORSDOF 26
ENDMDL
MODEL 7
REMARK VINA RESULT:      -6.5      3.054      9.164
REMARK  26 active torsions:
REMARK  status: ('A' for Active; 'I' for Inactive)
REMARK    1  A    between atoms: C2_2  and  C3_3 
REMARK    2  A    between atoms: C4_6  and  C5_7 
REMARK       I    between atoms: C5_7  and  N2_9 
REMARK    3  A    between atoms: N2_9  and  C6_10 
REMARK    4  A    between atoms: C6_10  and  C7_11 
REMARK    5  A    between atoms: C6_10  and  C8_13 
REMARK       I    between atoms: C7_11  and  N3_14 
REMARK    6  A    between atoms: N3_14  and  C9_15 
REMARK    7  A    between atoms: C9_15  and  C10_16 
REMARK    8  A    between atoms: C9_15  and  C11_18 
REMARK       I    between atoms: C10_16  and  N4_21 
REMARK    9  A    between atoms: C11_18  and  C12_19 
REMARK   10  A    between atoms: C11_18  and  C13_20 
REMARK   11  A    between atoms: N4_21  and  C14_22 
REMARK   12  A    between atoms: C14_22  and  C15_23 
REMARK   13  A    between atoms: C14_22  and  C16_25 
REMARK       I    between atoms: C15_23  and  N6_40 
REMARK   14  A    between atoms: C16_25  and  C17_26 
REMARK   15  A    between atoms: C17_26  and  C18_27 
REMARK   16  A    between atoms: C17_26  and  C19_28 
REMARK   17  A    between atoms: C20_29  and  C21_30 
REMARK   18  A    between atoms: C20_29  and  C24_33 
REMARK   19  A    between atoms: C20_29  and  N6_40 
REMARK   20  A    between atoms: C21_30  and  C22_31 
REMARK   21  A    between atoms: C22_31  and  C23_32 
REMARK   22  A    between atoms: C23_32  and  O8_43 
REMARK   23  A    between atoms: C24_33  and  C25_34 
REMARK   24  A    between atoms: C28_38  and  O6_39 
REMARK   25  A    between atoms: C29_42  and  O8_43 
REMARK   26  A    between atoms: C29_42  and  C35_49 
ROOT
ATOM      1  C14 non d ame      -6.894  13.455  67.955  0.00  0.00     0.089 C 
ATOM      2  H20 non d ame      -6.137  13.310  67.183  0.00  0.00     0.087 H 
ENDROOT
BRANCH   1   3
ATOM      3  N4  non d ame      -7.176  14.881  68.029  0.00  0.00    -0.346 N 
ATOM      4  C10 non d ame      -6.143  15.886  67.582  0.00  0.00     0.241 C 
ATOM      5  O4  non d ame      -5.091  15.522  67.169  0.00  0.00    -0.271 OA
ATOM      6  H19 non d ame      -8.075  15.171  68.386  0.00  0.00     0.163 HD
BRANCH   4   7
ATOM      7  C9  non d ame      -6.453  17.358  67.660  0.00  0.00     0.092 C 
ATOM      8  H11 non d ame      -6.253  17.819  66.693  0.00  0.00     0.088 H 
BRANCH   7   9
ATOM      9  N3  non d ame      -7.881  17.543  67.940  0.00  0.00    -0.346 N 
ATOM     10  C7  non d ame      -8.809  17.734  66.854  0.00  0.00     0.240 C 
ATOM     11  O3  non d ame      -8.426  17.742  65.748  0.00  0.00    -0.271 OA
ATOM     12  H10 non d ame      -8.226  17.538  68.890  0.00  0.00     0.163 HD
BRANCH  10  13
ATOM     13  C6  non d ame     -10.327  17.933  67.159  0.00  0.00     0.086 C 
ATOM     14  H6  non d ame     -10.971  17.427  66.440  0.00  0.00     0.086 H 
BRANCH  13  15
ATOM     15  N2  non d ame     -10.625  17.358  68.461  0.00  0.00    -0.343 N 
ATOM     16  C5  non d ame     -11.339  16.082  68.540  0.00  0.00     0.273 C 
ATOM     17  O2  non d ame     -11.671  15.527  67.551  0.00  0.00    -0.266 OA
ATOM     18  H5  non d ame     -10.340  17.841  69.301  0.00  0.00     0.163 HD
BRANCH  16  19
ATOM     19  C4  non d ame     -11.660  15.463  69.909  0.00  0.00     0.154 A 
ATOM     20  C1  non d ame     -11.718  16.137  71.171  0.00  0.00    -0.017 A 
ATOM     21  C2  non d ame     -12.049  15.131  72.105  0.00  0.00     0.077 A 
ATOM     22  H1  non d ame     -11.548  17.194  71.376  0.00  0.00     0.091 H 
ATOM     23  O1  non d ame     -12.167  14.015  71.447  0.00  0.00    -0.218 OA
ATOM     24  N1  non d ame     -11.944  14.183  70.164  0.00  0.00    -0.123 NA
BRANCH  21  25
ATOM     25  C3  non d ame     -12.236  15.320  73.605  0.00  0.00    -0.029 C 
ATOM     26  H2  non d ame     -11.742  16.239  73.920  0.00  0.00     0.036 H 
ATOM     27  H3  non d ame     -13.299  15.382  73.834  0.00  0.00     0.036 H 
ATOM     28  H4  non d ame     -11.799  14.473  74.135  0.00  0.00     0.036 H 
ENDBRANCH  21  25
ENDBRANCH  16  19
ENDBRANCH  13  15
BRANCH  13  29
ATOM     29  C8  non d ame     -10.654  19.404  67.157  0.00  0.00    -0.049 C 
ATOM     30  H7  non d ame     -11.443  19.602  67.883  0.00  0.00     0.030 H 
ATOM     31  H8  non d ame      -9.765  19.976  67.421  0.00  0.00     0.030 H 
ATOM     32  H9  non d ame     -10.994  19.699  66.164  0.00  0.00     0.030 H 
ENDBRANCH  13  29
ENDBRANCH  10  13
ENDBRANCH   7   9
BRANCH   7  33
ATOM     33  C11 non d ame      -5.615  18.004  68.802  0.00  0.00    -0.033 C 
ATOM     34  H12 non d ame      -4.571  17.992  68.491  0.00  0.00     0.042 H 
BRANCH  33  35
ATOM     35  C12 non d ame      -6.020  19.494  69.031  0.00  0.00    -0.071 C 
ATOM     36  H13 non d ame      -7.068  19.631  68.764  0.00  0.00     0.028 H 
ATOM     37  H14 non d ame      -5.875  19.753  70.079  0.00  0.00     0.028 H 
ATOM     38  H15 non d ame      -5.400  20.137  68.407  0.00  0.00     0.028 H 
ENDBRANCH  33  35
BRANCH  33  39
ATOM     39  C13 non d ame      -5.736  17.176  70.122  0.00  0.00    -0.071 C 
ATOM     40  H16 non d ame      -4.751  16.818  70.417  0.00  0.00     0.028 H 
ATOM     41  H17 non d ame      -6.144  17.809  70.911  0.00  0.00     0.028 H 
ATOM     42  H18 non d ame      -6.399  16.327  69.959  0.00  0.00     0.028 H 
ENDBRANCH  33  39
ENDBRANCH   7  33
ENDBRANCH   4   7
ENDBRANCH   1   3
BRANCH   1  43
ATOM     43  C15 non d ame      -8.217  12.706  67.630  0.00  0.00     0.240 C 
ATOM     44  O5  non d ame      -9.261  13.204  67.902  0.00  0.00    -0.271 OA
ATOM     45  N6  non d ame      -8.183  11.370  66.968  0.00  0.00    -0.355 N 
ATOM     46  H46 non d ame      -7.303  10.940  66.728  0.00  0.00     0.162 HD
BRANCH  45  47
ATOM     47  C20 non d ame      -9.450  10.671  66.664  0.00  0.00     0.013 C 
ATOM     48  H30 non d ame     -10.262  11.226  67.136  0.00  0.00     0.072 H 
BRANCH  47  49
ATOM     49  C21 non d ame      -9.393   9.267  67.222  0.00  0.00    -0.038 C 
ATOM     50  H31 non d ame     -10.073   9.261  68.074  0.00  0.00     0.036 H 
ATOM     51  H32 non d ame      -9.575   8.606  66.374  0.00  0.00     0.036 H 
BRANCH  49  52
ATOM     52  C22 non d ame      -7.999   8.897  67.773  0.00  0.00     0.018 C 
ATOM     53  H33 non d ame      -7.460   8.448  66.937  0.00  0.00     0.048 H 
ATOM     54  H34 non d ame      -7.617   9.803  68.242  0.00  0.00     0.048 H 
BRANCH  52  55
ATOM     55  C23 non d ame      -8.032   7.817  68.889  0.00  0.00     0.259 C 
ATOM     56  O7  non d ame      -7.122   7.067  69.030  0.00  0.00    -0.265 OA
BRANCH  55  57
ATOM     57  O8  non d ame      -9.172   7.724  69.735  0.00  0.00    -0.317 OA
BRANCH  57  58
ATOM     58  C29 non d ame      -9.148   8.628  70.844  0.00  0.00     0.052 C 
ATOM     59  H47 non d ame      -8.824   8.036  71.699  0.00  0.00     0.082 H 
ATOM     60  H48 non d ame      -8.556   9.482  70.516  0.00  0.00     0.082 H 
BRANCH  58  61
ATOM     61  C35 non d ame     -10.601   9.109  71.101  0.00  0.00    -0.034 A 
ATOM     62  C30 non d ame     -11.131  10.157  70.356  0.00  0.00    -0.075 A 
ATOM     63  C31 non d ame     -12.437  10.589  70.587  0.00  0.00    -0.082 A 
ATOM     64  H49 non d ame     -10.524  10.640  69.590  0.00  0.00     0.084 H 
ATOM     65  C32 non d ame     -13.212   9.970  71.571  0.00  0.00    -0.083 A 
ATOM     66  H50 non d ame     -12.849  11.409  69.998  0.00  0.00     0.083 H 
ATOM     67  C33 non d ame     -12.678   8.927  72.315  0.00  0.00    -0.082 A 
ATOM     68  H51 non d ame     -14.234  10.301  71.757  0.00  0.00     0.083 H 
ATOM     69  C34 non d ame     -11.375   8.491  72.086  0.00  0.00    -0.075 A 
ATOM     70  H52 non d ame     -13.286   8.447  73.084  0.00  0.00     0.083 H 
ATOM     71  H53 non d ame     -10.963   7.669  72.674  0.00  0.00     0.084 H 
ENDBRANCH  58  61
ENDBRANCH  57  58
ENDBRANCH  55  57
ENDBRANCH  52  55
ENDBRANCH  49  52
ENDBRANCH  47  49
BRANCH  47  72
ATOM     72  C24 non d ame      -9.657  10.612  65.152  0.00  0.00    -0.039 C 
ATOM     73  H35 non d ame      -8.658  10.514  64.727  0.00  0.00     0.036 H 
ATOM     74  H36 non d ame     -10.396   9.827  64.990  0.00  0.00     0.036 H 
BRANCH  72  75
ATOM     75  C25 non d ame     -10.281  11.973  64.584  0.00  0.00    -0.001 C 
ATOM     76  C26 non d ame     -11.599  12.398  65.472  0.00  0.00    -0.035 C 
ATOM     77  C27 non d ame     -12.633  12.635  64.630  0.00  0.00     0.085 C 
ATOM     78  H38 non d ame     -11.940  11.549  66.063  0.00  0.00     0.036 H 
ATOM     79  H39 non d ame     -11.433  13.363  65.950  0.00  0.00     0.036 H 
ATOM     80  N5  non d ame     -12.235  12.095  63.278  0.00  0.00    -0.049 N 
ATOM     81  H40 non d ame     -13.465  12.045  65.018  0.00  0.00     0.075 H 
ATOM     82  H41 non d ame     -12.716  13.719  64.569  0.00  0.00     0.075 H 
ATOM     83  C28 non d ame     -10.642  11.845  63.351  0.00  0.00     0.193 C 
ATOM     84  H42 non d ame     -12.696  11.202  63.179  0.00  0.00     0.280 HD
ATOM     85  H43 non d ame     -12.414  12.832  62.611  0.00  0.00     0.280 HD
ATOM     86  H44 non d ame      -9.949  12.535  62.869  0.00  0.00     0.129 H 
ATOM     87  H37 non d ame      -9.522  12.740  64.425  0.00  0.00     0.046 H 
BRANCH  83  88
ATOM     88  O6  non d ame     -10.320  10.555  62.828  0.00  0.00    -0.369 OA
ATOM     89  H45 non d ame      -9.653  10.142  63.382  0.00  0.00     0.212 HD
ENDBRANCH  83  88
ENDBRANCH  72  75
ENDBRANCH  47  72
ENDBRANCH  45  47
ENDBRANCH   1  43
BRANCH   1  90
ATOM     90  C16 non d ame      -6.357  12.986  69.297  0.00  0.00    -0.035 C 
ATOM     91  H21 non d ame      -5.948  13.878  69.773  0.00  0.00     0.037 H 
ATOM     92  H22 non d ame      -7.182  12.449  69.766  0.00  0.00     0.037 H 
BRANCH  90  93
ATOM     93  C17 non d ame      -5.178  11.968  69.180  0.00  0.00    -0.059 C 
ATOM     94  H23 non d ame      -5.117  11.653  68.139  0.00  0.00     0.038 H 
BRANCH  93  95
ATOM     95  C18 non d ame      -3.807  12.608  69.567  0.00  0.00    -0.073 C 
ATOM     96  H24 non d ame      -3.931  13.683  69.696  0.00  0.00     0.028 H 
ATOM     97  H25 non d ame      -3.451  12.169  70.499  0.00  0.00     0.028 H 
ATOM     98  H26 non d ame      -3.082  12.418  68.775  0.00  0.00     0.028 H 
ENDBRANCH  93  95
BRANCH  93  99
ATOM     99  C19 non d ame      -5.451  10.716  70.019  0.00  0.00    -0.073 C 
ATOM    100  H27 non d ame      -6.409  10.285  69.726  0.00  0.00     0.028 H 
ATOM    101  H28 non d ame      -4.657   9.988  69.850  0.00  0.00     0.028 H 
ATOM    102  H29 non d ame      -5.479  10.984  71.075  0.00  0.00     0.028 H 
ENDBRANCH  93  99
ENDBRANCH  90  93
ENDBRANCH   1  90
TORSDOF 26
ENDMDL
MODEL 8
REMARK VINA RESULT:      -6.5      2.431      6.290
REMARK  26 active torsions:
REMARK  status: ('A' for Active; 'I' for Inactive)
REMARK    1  A    between atoms: C2_2  and  C3_3 
REMARK    2  A    between atoms: C4_6  and  C5_7 
REMARK       I    between atoms: C5_7  and  N2_9 
REMARK    3  A    between atoms: N2_9  and  C6_10 
REMARK    4  A    between atoms: C6_10  and  C7_11 
REMARK    5  A    between atoms: C6_10  and  C8_13 
REMARK       I    between atoms: C7_11  and  N3_14 
REMARK    6  A    between atoms: N3_14  and  C9_15 
REMARK    7  A    between atoms: C9_15  and  C10_16 
REMARK    8  A    between atoms: C9_15  and  C11_18 
REMARK       I    between atoms: C10_16  and  N4_21 
REMARK    9  A    between atoms: C11_18  and  C12_19 
REMARK   10  A    between atoms: C11_18  and  C13_20 
REMARK   11  A    between atoms: N4_21  and  C14_22 
REMARK   12  A    between atoms: C14_22  and  C15_23 
REMARK   13  A    between atoms: C14_22  and  C16_25 
REMARK       I    between atoms: C15_23  and  N6_40 
REMARK   14  A    between atoms: C16_25  and  C17_26 
REMARK   15  A    between atoms: C17_26  and  C18_27 
REMARK   16  A    between atoms: C17_26  and  C19_28 
REMARK   17  A    between atoms: C20_29  and  C21_30 
REMARK   18  A    between atoms: C20_29  and  C24_33 
REMARK   19  A    between atoms: C20_29  and  N6_40 
REMARK   20  A    between atoms: C21_30  and  C22_31 
REMARK   21  A    between atoms: C22_31  and  C23_32 
REMARK   22  A    between atoms: C23_32  and  O8_43 
REMARK   23  A    between atoms: C24_33  and  C25_34 
REMARK   24  A    between atoms: C28_38  and  O6_39 
REMARK   25  A    between atoms: C29_42  and  O8_43 
REMARK   26  A    between atoms: C29_42  and  C35_49 
ROOT
ATOM      1  C14 non d ame      -9.497  11.745  65.635  0.00  0.00     0.089 C 
ATOM      2  H20 non d ame      -9.056  12.178  64.736  0.00  0.00     0.087 H 
ENDROOT
BRANCH   1   3
ATOM      3  N4  non d ame      -8.929  10.416  65.806  0.00  0.00    -0.346 N 
ATOM      4  C10 non d ame      -8.640   9.551  64.604  0.00  0.00     0.241 C 
ATOM      5  O4  non d ame      -8.876   9.946  63.510  0.00  0.00    -0.271 OA
ATOM      6  H19 non d ame      -8.738  10.098  66.745  0.00  0.00     0.163 HD
BRANCH   4   7
ATOM      7  C9  non d ame      -8.047   8.180  64.799  0.00  0.00     0.092 C 
ATOM      8  H11 non d ame      -7.140   8.263  65.398  0.00  0.00     0.088 H 
BRANCH   7   9
ATOM      9  N3  non d ame      -8.987   7.343  65.551  0.00  0.00    -0.346 N 
ATOM     10  C7  non d ame      -8.907   7.284  66.989  0.00  0.00     0.240 C 
ATOM     11  O3  non d ame      -8.093   7.902  67.559  0.00  0.00    -0.271 OA
ATOM     12  H10 non d ame      -9.695   6.803  65.074  0.00  0.00     0.163 HD
BRANCH  10  13
ATOM     13  C6  non d ame      -9.909   6.388  67.784  0.00  0.00     0.086 C 
ATOM     14  H6  non d ame      -9.417   5.764  68.530  0.00  0.00     0.086 H 
BRANCH  13  15
ATOM     15  N2  non d ame     -10.836   7.245  68.505  0.00  0.00    -0.343 N 
ATOM     16  C5  non d ame     -10.610   7.520  69.925  0.00  0.00     0.273 C 
ATOM     17  O2  non d ame      -9.680   7.045  70.479  0.00  0.00    -0.266 OA
ATOM     18  H5  non d ame     -11.630   7.644  68.024  0.00  0.00     0.163 HD
BRANCH  16  19
ATOM     19  C4  non d ame     -11.582   8.424  70.699  0.00  0.00     0.154 A 
ATOM     20  C1  non d ame     -11.645   9.854  70.668  0.00  0.00    -0.017 A 
ATOM     21  C2  non d ame     -12.700  10.190  71.544  0.00  0.00     0.077 A 
ATOM     22  H1  non d ame     -11.021  10.541  70.096  0.00  0.00     0.091 H 
ATOM     23  O1  non d ame     -13.181   9.078  72.017  0.00  0.00    -0.218 OA
ATOM     24  N1  non d ame     -12.545   8.033  71.538  0.00  0.00    -0.123 NA
BRANCH  21  25
ATOM     25  C3  non d ame     -13.185  11.596  71.873  0.00  0.00    -0.029 C 
ATOM     26  H2  non d ame     -14.275  11.616  71.868  0.00  0.00     0.036 H 
ATOM     27  H3  non d ame     -12.821  11.885  72.858  0.00  0.00     0.036 H 
ATOM     28  H4  non d ame     -12.806  12.295  71.126  0.00  0.00     0.036 H 
ENDBRANCH  21  25
ENDBRANCH  16  19
ENDBRANCH  13  15
BRANCH  13  29
ATOM     29  C8  non d ame     -10.663   5.501  66.827  0.00  0.00    -0.049 C 
ATOM     30  H7  non d ame     -11.577   6.004  66.509  0.00  0.00     0.030 H 
ATOM     31  H8  non d ame     -10.041   5.292  65.957  0.00  0.00     0.030 H 
ATOM     32  H9  non d ame     -10.918   4.565  67.324  0.00  0.00     0.030 H 
ENDBRANCH  13  29
ENDBRANCH  10  13
ENDBRANCH   7   9
BRANCH   7  33
ATOM     33  C11 non d ame      -7.775   7.532  63.410  0.00  0.00    -0.033 C 
ATOM     34  H12 non d ame      -8.432   8.014  62.687  0.00  0.00     0.042 H 
BRANCH  33  35
ATOM     35  C12 non d ame      -6.305   7.776  62.947  0.00  0.00    -0.071 C 
ATOM     36  H13 non d ame      -5.838   8.518  63.595  0.00  0.00     0.028 H 
ATOM     37  H14 non d ame      -5.747   6.843  63.002  0.00  0.00     0.028 H 
ATOM     38  H15 non d ame      -6.306   8.140  61.920  0.00  0.00     0.028 H 
ENDBRANCH  33  35
BRANCH  33  39
ATOM     39  C13 non d ame      -8.115   6.006  63.430  0.00  0.00    -0.071 C 
ATOM     40  H16 non d ame      -8.800   5.777  62.614  0.00  0.00     0.028 H 
ATOM     41  H17 non d ame      -7.198   5.428  63.308  0.00  0.00     0.028 H 
ATOM     42  H18 non d ame      -8.582   5.750  64.380  0.00  0.00     0.028 H 
ENDBRANCH  33  39
ENDBRANCH   7  33
ENDBRANCH   4   7
ENDBRANCH   1   3
BRANCH   1  43
ATOM     43  C15 non d ame      -9.182  12.584  66.906  0.00  0.00     0.240 C 
ATOM     44  O5  non d ame      -9.816  12.418  67.897  0.00  0.00    -0.271 OA
ATOM     45  N6  non d ame      -8.082  13.591  66.891  0.00  0.00    -0.355 N 
ATOM     46  H46 non d ame      -7.533  13.737  66.056  0.00  0.00     0.162 HD
BRANCH  45  47
ATOM     47  C20 non d ame      -7.794  14.380  68.107  0.00  0.00     0.013 C 
ATOM     48  H30 non d ame      -8.482  14.056  68.889  0.00  0.00     0.072 H 
BRANCH  47  49
ATOM     49  C21 non d ame      -8.003  15.848  67.813  0.00  0.00    -0.038 C 
ATOM     50  H31 non d ame      -7.075  16.341  68.101  0.00  0.00     0.036 H 
ATOM     51  H32 non d ame      -8.348  15.895  66.779  0.00  0.00     0.036 H 
BRANCH  49  52
ATOM     52  C22 non d ame      -9.119  16.479  68.674  0.00  0.00     0.018 C 
ATOM     53  H33 non d ame      -9.355  15.739  69.440  0.00  0.00     0.048 H 
ATOM     54  H34 non d ame      -8.749  17.462  68.963  0.00  0.00     0.048 H 
BRANCH  52  55
ATOM     55  C23 non d ame     -10.443  16.730  67.899  0.00  0.00     0.259 C 
ATOM     56  O7  non d ame     -10.423  16.984  66.739  0.00  0.00    -0.265 OA
BRANCH  55  57
ATOM     57  O8  non d ame     -11.681  16.666  68.597  0.00  0.00    -0.317 OA
BRANCH  57  58
ATOM     58  C29 non d ame     -12.000  15.364  69.097  0.00  0.00     0.052 C 
ATOM     59  H47 non d ame     -12.839  15.016  68.496  0.00  0.00     0.082 H 
ATOM     60  H48 non d ame     -11.062  14.810  69.096  0.00  0.00     0.082 H 
BRANCH  58  61
ATOM     61  C35 non d ame     -12.478  15.520  70.565  0.00  0.00    -0.034 A 
ATOM     62  C30 non d ame     -11.622  16.053  71.524  0.00  0.00    -0.075 A 
ATOM     63  C31 non d ame     -12.051  16.192  72.843  0.00  0.00    -0.082 A 
ATOM     64  H49 non d ame     -10.615  16.362  71.242  0.00  0.00     0.084 H 
ATOM     65  C32 non d ame     -13.341  15.793  73.203  0.00  0.00    -0.083 A 
ATOM     66  H50 non d ame     -11.379  16.613  73.591  0.00  0.00     0.083 H 
ATOM     67  C33 non d ame     -14.191  15.258  72.244  0.00  0.00    -0.082 A 
ATOM     68  H51 non d ame     -13.684  15.899  74.232  0.00  0.00     0.083 H 
ATOM     69  C34 non d ame     -13.766  15.119  70.924  0.00  0.00    -0.075 A 
ATOM     70  H52 non d ame     -15.196  14.946  72.529  0.00  0.00     0.083 H 
ATOM     71  H53 non d ame     -14.440  14.699  70.176  0.00  0.00     0.084 H 
ENDBRANCH  58  61
ENDBRANCH  57  58
ENDBRANCH  55  57
ENDBRANCH  52  55
ENDBRANCH  49  52
ENDBRANCH  47  49
BRANCH  47  72
ATOM     72  C24 non d ame      -6.349  14.148  68.543  0.00  0.00    -0.039 C 
ATOM     73  H35 non d ame      -5.747  14.310  67.648  0.00  0.00     0.036 H 
ATOM     74  H36 non d ame      -6.204  14.782  69.418  0.00  0.00     0.036 H 
BRANCH  72  75
ATOM     75  C25 non d ame      -6.105  12.635  69.009  0.00  0.00    -0.001 C 
ATOM     76  C26 non d ame      -5.442  12.613  70.514  0.00  0.00    -0.035 C 
ATOM     77  C27 non d ame      -4.338  11.828  70.492  0.00  0.00     0.085 C 
ATOM     78  H38 non d ame      -5.049  13.598  70.764  0.00  0.00     0.036 H 
ATOM     79  H39 non d ame      -6.106  12.099  71.208  0.00  0.00     0.036 H 
ATOM     80  N5  non d ame      -4.002  11.578  69.041  0.00  0.00    -0.049 N 
ATOM     81  H40 non d ame      -3.545  12.427  70.942  0.00  0.00     0.075 H 
ATOM     82  H41 non d ame      -4.639  10.889  70.954  0.00  0.00     0.075 H 
ATOM     83  C28 non d ame      -5.309  12.018  68.201  0.00  0.00     0.193 C 
ATOM     84  H42 non d ame      -3.245  12.204  68.810  0.00  0.00     0.280 HD
ATOM     85  H43 non d ame      -3.880  10.580  68.944  0.00  0.00     0.280 HD
ATOM     86  H44 non d ame      -5.984  11.267  67.792  0.00  0.00     0.129 H 
ATOM     87  H37 non d ame      -6.980  12.006  68.844  0.00  0.00     0.046 H 
BRANCH  83  88
ATOM     88  O6  non d ame      -4.929  12.835  67.091  0.00  0.00    -0.369 OA
ATOM     89  H45 non d ame      -4.771  13.732  67.395  0.00  0.00     0.212 HD
ENDBRANCH  83  88
ENDBRANCH  72  75
ENDBRANCH  47  72
ENDBRANCH  45  47
ENDBRANCH   1  43
BRANCH   1  90
ATOM     90  C16 non d ame     -11.002  11.623  65.463  0.00  0.00    -0.035 C 
ATOM     91  H21 non d ame     -11.156  10.682  64.932  0.00  0.00     0.037 H 
ATOM     92  H22 non d ame     -11.419  11.759  66.461  0.00  0.00     0.037 H 
BRANCH  90  93
ATOM     93  C17 non d ame     -11.624  12.741  64.568  0.00  0.00    -0.059 C 
ATOM     94  H23 non d ame     -10.804  13.324  64.150  0.00  0.00     0.038 H 
BRANCH  93  95
ATOM     95  C18 non d ame     -12.447  12.155  63.377  0.00  0.00    -0.073 C 
ATOM     96  H24 non d ame     -11.778  11.618  62.704  0.00  0.00     0.028 H 
ATOM     97  H25 non d ame     -13.203  11.469  63.761  0.00  0.00     0.028 H 
ATOM     98  H26 non d ame     -12.933  12.967  62.836  0.00  0.00     0.028 H 
ENDBRANCH  93  95
BRANCH  93  99
ATOM     99  C19 non d ame     -12.481  13.697  65.403  0.00  0.00    -0.073 C 
ATOM    100  H27 non d ame     -13.302  14.075  64.793  0.00  0.00     0.028 H 
ATOM    101  H28 non d ame     -12.883  13.164  66.265  0.00  0.00     0.028 H 
ATOM    102  H29 non d ame     -11.868  14.530  65.746  0.00  0.00     0.028 H 
ENDBRANCH  93  99
ENDBRANCH  90  93
ENDBRANCH   1  90
TORSDOF 26
ENDMDL
MODEL 9
REMARK VINA RESULT:      -6.4      2.291      8.461
REMARK  26 active torsions:
REMARK  status: ('A' for Active; 'I' for Inactive)
REMARK    1  A    between atoms: C2_2  and  C3_3 
REMARK    2  A    between atoms: C4_6  and  C5_7 
REMARK       I    between atoms: C5_7  and  N2_9 
REMARK    3  A    between atoms: N2_9  and  C6_10 
REMARK    4  A    between atoms: C6_10  and  C7_11 
REMARK    5  A    between atoms: C6_10  and  C8_13 
REMARK       I    between atoms: C7_11  and  N3_14 
REMARK    6  A    between atoms: N3_14  and  C9_15 
REMARK    7  A    between atoms: C9_15  and  C10_16 
REMARK    8  A    between atoms: C9_15  and  C11_18 
REMARK       I    between atoms: C10_16  and  N4_21 
REMARK    9  A    between atoms: C11_18  and  C12_19 
REMARK   10  A    between atoms: C11_18  and  C13_20 
REMARK   11  A    between atoms: N4_21  and  C14_22 
REMARK   12  A    between atoms: C14_22  and  C15_23 
REMARK   13  A    between atoms: C14_22  and  C16_25 
REMARK       I    between atoms: C15_23  and  N6_40 
REMARK   14  A    between atoms: C16_25  and  C17_26 
REMARK   15  A    between atoms: C17_26  and  C18_27 
REMARK   16  A    between atoms: C17_26  and  C19_28 
REMARK   17  A    between atoms: C20_29  and  C21_30 
REMARK   18  A    between atoms: C20_29  and  C24_33 
REMARK   19  A    between atoms: C20_29  and  N6_40 
REMARK   20  A    between atoms: C21_30  and  C22_31 
REMARK   21  A    between atoms: C22_31  and  C23_32 
REMARK   22  A    between atoms: C23_32  and  O8_43 
REMARK   23  A    between atoms: C24_33  and  C25_34 
REMARK   24  A    between atoms: C28_38  and  O6_39 
REMARK   25  A    between atoms: C29_42  and  O8_43 
REMARK   26  A    between atoms: C29_42  and  C35_49 
ROOT
ATOM      1  C14 non d ame      -8.119   6.310  63.585  0.00  0.00     0.089 C 
ATOM      2  H20 non d ame      -8.699   6.469  62.676  0.00  0.00     0.087 H 
ENDROOT
BRANCH   1   3
ATOM      3  N4  non d ame      -7.964   7.601  64.238  0.00  0.00    -0.346 N 
ATOM      4  C10 non d ame      -8.332   8.871  63.511  0.00  0.00     0.241 C 
ATOM      5  O4  non d ame      -8.749   8.827  62.400  0.00  0.00    -0.271 OA
ATOM      6  H19 non d ame      -7.605   7.618  65.182  0.00  0.00     0.163 HD
BRANCH   4   7
ATOM      7  C9  non d ame      -8.171  10.199  64.203  0.00  0.00     0.092 C 
ATOM      8  H11 non d ame      -7.861  10.948  63.474  0.00  0.00     0.088 H 
BRANCH   7   9
ATOM      9  N3  non d ame      -9.464  10.630  64.743  0.00  0.00    -0.346 N 
ATOM     10  C7  non d ame     -10.222  11.653  64.067  0.00  0.00     0.240 C 
ATOM     11  O3  non d ame      -9.807  12.142  63.087  0.00  0.00    -0.271 OA
ATOM     12  H10 non d ame      -9.835  10.218  65.587  0.00  0.00     0.163 HD
BRANCH  10  13
ATOM     13  C6  non d ame     -11.597  12.109  64.648  0.00  0.00     0.086 C 
ATOM     14  H6  non d ame     -11.969  11.441  65.425  0.00  0.00     0.086 H 
BRANCH  13  15
ATOM     15  N2  non d ame     -11.437  13.416  65.265  0.00  0.00    -0.343 N 
ATOM     16  C5  non d ame     -11.468  13.534  66.724  0.00  0.00     0.273 C 
ATOM     17  O2  non d ame     -11.625  12.572  67.393  0.00  0.00    -0.266 OA
ATOM     18  H5  non d ame     -11.307  14.233  64.685  0.00  0.00     0.163 HD
BRANCH  16  19
ATOM     19  C4  non d ame     -11.300  14.909  67.389  0.00  0.00     0.154 A 
ATOM     20  C1  non d ame     -10.468  15.987  66.948  0.00  0.00    -0.017 A 
ATOM     21  C2  non d ame     -10.671  17.014  67.896  0.00  0.00     0.077 A 
ATOM     22  H1  non d ame      -9.817  16.018  66.074  0.00  0.00     0.091 H 
ATOM     23  O1  non d ame     -11.523  16.569  68.773  0.00  0.00    -0.218 OA
ATOM     24  N1  non d ame     -11.904  15.343  68.498  0.00  0.00    -0.123 NA
BRANCH  21  25
ATOM     25  C3  non d ame     -10.015  18.388  67.890  0.00  0.00    -0.029 C 
ATOM     26  H2  non d ame      -9.130  18.371  68.526  0.00  0.00     0.036 H 
ATOM     27  H3  non d ame      -9.728  18.649  66.873  0.00  0.00     0.036 H 
ATOM     28  H4  non d ame     -10.720  19.129  68.270  0.00  0.00     0.036 H 
ENDBRANCH  21  25
ENDBRANCH  16  19
ENDBRANCH  13  15
BRANCH  13  29
ATOM     29  C8  non d ame     -12.616  12.183  63.539  0.00  0.00    -0.049 C 
ATOM     30  H7  non d ame     -13.546  11.720  63.870  0.00  0.00     0.030 H 
ATOM     31  H8  non d ame     -12.799  13.225  63.282  0.00  0.00     0.030 H 
ATOM     32  H9  non d ame     -12.238  11.653  62.664  0.00  0.00     0.030 H 
ENDBRANCH  13  29
ENDBRANCH  10  13
ENDBRANCH   7   9
BRANCH   7  33
ATOM     33  C11 non d ame      -7.147  10.056  65.367  0.00  0.00    -0.033 C 
ATOM     34  H12 non d ame      -7.127   9.007  65.660  0.00  0.00     0.042 H 
BRANCH  33  35
ATOM     35  C12 non d ame      -5.707  10.444  64.908  0.00  0.00    -0.071 C 
ATOM     36  H13 non d ame      -5.665  10.464  63.819  0.00  0.00     0.028 H 
ATOM     37  H14 non d ame      -5.454  11.428  65.300  0.00  0.00     0.028 H 
ATOM     38  H15 non d ame      -4.997   9.709  65.286  0.00  0.00     0.028 H 
ENDBRANCH  33  35
BRANCH  33  39
ATOM     39  C13 non d ame      -7.591  10.896  66.608  0.00  0.00    -0.071 C 
ATOM     40  H16 non d ame      -8.648  10.721  66.806  0.00  0.00     0.028 H 
ATOM     41  H17 non d ame      -7.004  10.597  67.478  0.00  0.00     0.028 H 
ATOM     42  H18 non d ame      -7.429  11.954  66.407  0.00  0.00     0.028 H 
ENDBRANCH  33  39
ENDBRANCH   7  33
ENDBRANCH   4   7
ENDBRANCH   1   3
BRANCH   1  43
ATOM     43  C15 non d ame      -8.827   5.339  64.572  0.00  0.00     0.240 C 
ATOM     44  O5  non d ame      -9.410   4.392  64.154  0.00  0.00    -0.271 OA
ATOM     45  N6  non d ame      -8.771   5.586  66.042  0.00  0.00    -0.355 N 
ATOM     46  H46 non d ame      -8.274   6.385  66.409  0.00  0.00     0.162 HD
BRANCH  45  47
ATOM     47  C20 non d ame      -9.449   4.653  66.968  0.00  0.00     0.013 C 
ATOM     48  H30 non d ame      -9.975   3.909  66.370  0.00  0.00     0.072 H 
BRANCH  47  49
ATOM     49  C21 non d ame     -10.434   5.422  67.819  0.00  0.00    -0.038 C 
ATOM     50  H31 non d ame     -11.390   4.913  67.694  0.00  0.00     0.036 H 
ATOM     51  H32 non d ame      -9.978   5.491  68.807  0.00  0.00     0.036 H 
BRANCH  49  52
ATOM     52  C22 non d ame     -10.643   6.872  67.332  0.00  0.00     0.018 C 
ATOM     53  H33 non d ame     -10.318   6.884  66.291  0.00  0.00     0.048 H 
ATOM     54  H34 non d ame     -11.674   7.122  67.583  0.00  0.00     0.048 H 
BRANCH  52  55
ATOM     55  C23 non d ame      -9.757   7.915  68.068  0.00  0.00     0.259 C 
ATOM     56  O7  non d ame      -8.684   7.612  68.478  0.00  0.00    -0.265 OA
BRANCH  55  57
ATOM     57  O8  non d ame     -10.250   9.235  68.261  0.00  0.00    -0.317 OA
BRANCH  57  58
ATOM     58  C29 non d ame      -9.872   9.820  69.511  0.00  0.00     0.052 C 
ATOM     59  H47 non d ame      -9.036   9.224  69.875  0.00  0.00     0.082 H 
ATOM     60  H48 non d ame      -9.737  10.882  69.311  0.00  0.00     0.082 H 
BRANCH  58  61
ATOM     61  C35 non d ame     -11.061   9.654  70.496  0.00  0.00    -0.034 A 
ATOM     62  C30 non d ame     -12.047  10.633  70.570  0.00  0.00    -0.075 A 
ATOM     63  C31 non d ame     -13.114  10.483  71.454  0.00  0.00    -0.082 A 
ATOM     64  H49 non d ame     -11.984  11.516  69.934  0.00  0.00     0.084 H 
ATOM     65  C32 non d ame     -13.191   9.351  72.269  0.00  0.00    -0.083 A 
ATOM     66  H50 non d ame     -13.887  11.250  71.507  0.00  0.00     0.083 H 
ATOM     67  C33 non d ame     -12.203   8.378  72.195  0.00  0.00    -0.082 A 
ATOM     68  H51 non d ame     -14.023   9.226  72.963  0.00  0.00     0.083 H 
ATOM     69  C34 non d ame     -11.136   8.523  71.310  0.00  0.00    -0.075 A 
ATOM     70  H52 non d ame     -12.266   7.497  72.834  0.00  0.00     0.083 H 
ATOM     71  H53 non d ame     -10.364   7.754  71.257  0.00  0.00     0.084 H 
ENDBRANCH  58  61
ENDBRANCH  57  58
ENDBRANCH  55  57
ENDBRANCH  52  55
ENDBRANCH  49  52
ENDBRANCH  47  49
BRANCH  47  72
ATOM     72  C24 non d ame      -8.416   3.977  67.867  0.00  0.00    -0.039 C 
ATOM     73  H35 non d ame      -8.589   4.383  68.864  0.00  0.00     0.036 H 
ATOM     74  H36 non d ame      -8.530   2.908  67.687  0.00  0.00     0.036 H 
BRANCH  72  75
ATOM     75  C25 non d ame      -6.919   4.369  67.451  0.00  0.00    -0.001 C 
ATOM     76  C26 non d ame      -6.067   3.011  67.083  0.00  0.00    -0.035 C 
ATOM     77  C27 non d ame      -4.908   3.021  67.784  0.00  0.00     0.085 C 
ATOM     78  H38 non d ame      -6.586   2.131  67.460  0.00  0.00     0.036 H 
ATOM     79  H39 non d ame      -5.737   3.047  66.045  0.00  0.00     0.036 H 
ATOM     80  N5  non d ame      -5.040   4.093  68.840  0.00  0.00    -0.049 N 
ATOM     81  H40 non d ame      -4.854   2.047  68.272  0.00  0.00     0.075 H 
ATOM     82  H41 non d ame      -4.139   3.317  67.071  0.00  0.00     0.075 H 
ATOM     83  C28 non d ame      -6.313   4.987  68.409  0.00  0.00     0.193 C 
ATOM     84  H42 non d ame      -5.257   3.618  69.704  0.00  0.00     0.280 HD
ATOM     85  H43 non d ame      -4.209   4.664  68.772  0.00  0.00     0.280 HD
ATOM     86  H44 non d ame      -6.174   5.968  67.956  0.00  0.00     0.129 H 
ATOM     87  H37 non d ame      -6.892   5.183  66.726  0.00  0.00     0.046 H 
BRANCH  83  88
ATOM     88  O6  non d ame      -7.166   5.204  69.534  0.00  0.00    -0.369 OA
ATOM     89  H45 non d ame      -6.717   4.923  70.335  0.00  0.00     0.212 HD
ENDBRANCH  83  88
ENDBRANCH  72  75
ENDBRANCH  47  72
ENDBRANCH  45  47
ENDBRANCH   1  43
BRANCH   1  90
ATOM     90  C16 non d ame      -6.745   5.766  63.230  0.00  0.00    -0.035 C 
ATOM     91  H21 non d ame      -6.750   4.727  63.565  0.00  0.00     0.037 H 
ATOM     92  H22 non d ame      -6.607   5.996  62.174  0.00  0.00     0.037 H 
BRANCH  90  93
ATOM     93  C17 non d ame      -5.576   6.468  63.992  0.00  0.00    -0.059 C 
ATOM     94  H23 non d ame      -6.017   7.096  64.766  0.00  0.00     0.038 H 
BRANCH  93  95
ATOM     95  C18 non d ame      -4.628   5.443  64.693  0.00  0.00    -0.073 C 
ATOM     96  H24 non d ame      -3.699   5.362  64.127  0.00  0.00     0.028 H 
ATOM     97  H25 non d ame      -4.409   5.784  65.704  0.00  0.00     0.028 H 
ATOM     98  H26 non d ame      -5.115   4.469  64.735  0.00  0.00     0.028 H 
ENDBRANCH  93  95
BRANCH  93  99
ATOM     99  C19 non d ame      -4.787   7.388  63.056  0.00  0.00    -0.073 C 
ATOM    100  H27 non d ame      -3.825   7.628  63.509  0.00  0.00     0.028 H 
ATOM    101  H28 non d ame      -4.625   6.882  62.103  0.00  0.00     0.028 H 
ATOM    102  H29 non d ame      -5.350   8.306  62.888  0.00  0.00     0.028 H 
ENDBRANCH  93  99
ENDBRANCH  90  93
ENDBRANCH   1  90
TORSDOF 26
ENDMDL
MODEL 10
REMARK VINA RESULT:      -6.3      2.905      7.088
REMARK  26 active torsions:
REMARK  status: ('A' for Active; 'I' for Inactive)
REMARK    1  A    between atoms: C2_2  and  C3_3 
REMARK    2  A    between atoms: C4_6  and  C5_7 
REMARK       I    between atoms: C5_7  and  N2_9 
REMARK    3  A    between atoms: N2_9  and  C6_10 
REMARK    4  A    between atoms: C6_10  and  C7_11 
REMARK    5  A    between atoms: C6_10  and  C8_13 
REMARK       I    between atoms: C7_11  and  N3_14 
REMARK    6  A    between atoms: N3_14  and  C9_15 
REMARK    7  A    between atoms: C9_15  and  C10_16 
REMARK    8  A    between atoms: C9_15  and  C11_18 
REMARK       I    between atoms: C10_16  and  N4_21 
REMARK    9  A    between atoms: C11_18  and  C12_19 
REMARK   10  A    between atoms: C11_18  and  C13_20 
REMARK   11  A    between atoms: N4_21  and  C14_22 
REMARK   12  A    between atoms: C14_22  and  C15_23 
REMARK   13  A    between atoms: C14_22  and  C16_25 
REMARK       I    between atoms: C15_23  and  N6_40 
REMARK   14  A    between atoms: C16_25  and  C17_26 
REMARK   15  A    between atoms: C17_26  and  C18_27 
REMARK   16  A    between atoms: C17_26  and  C19_28 
REMARK   17  A    between atoms: C20_29  and  C21_30 
REMARK   18  A    between atoms: C20_29  and  C24_33 
REMARK   19  A    between atoms: C20_29  and  N6_40 
REMARK   20  A    between atoms: C21_30  and  C22_31 
REMARK   21  A    between atoms: C22_31  and  C23_32 
REMARK   22  A    between atoms: C23_32  and  O8_43 
REMARK   23  A    between atoms: C24_33  and  C25_34 
REMARK   24  A    between atoms: C28_38  and  O6_39 
REMARK   25  A    between atoms: C29_42  and  O8_43 
REMARK   26  A    between atoms: C29_42  and  C35_49 
ROOT
ATOM      1  C14 non d ame     -10.711   9.509  70.211  0.00  0.00     0.089 C 
ATOM      2  H20 non d ame     -11.053   8.620  69.679  0.00  0.00     0.087 H 
ENDROOT
BRANCH   1   3
ATOM      3  N4  non d ame      -9.501   9.976  69.551  0.00  0.00    -0.346 N 
ATOM      4  C10 non d ame      -8.804   9.107  68.534  0.00  0.00     0.241 C 
ATOM      5  O4  non d ame      -9.235   8.034  68.265  0.00  0.00    -0.271 OA
ATOM      6  H19 non d ame      -9.148  10.890  69.796  0.00  0.00     0.163 HD
BRANCH   4   7
ATOM      7  C9  non d ame      -7.555   9.608  67.857  0.00  0.00     0.092 C 
ATOM      8  H11 non d ame      -7.789   9.877  66.827  0.00  0.00     0.088 H 
BRANCH   7   9
ATOM      9  N3  non d ame      -7.091  10.827  68.527  0.00  0.00    -0.346 N 
ATOM     10  C7  non d ame      -6.834  12.019  67.758  0.00  0.00     0.240 C 
ATOM     11  O3  non d ame      -6.995  12.016  66.599  0.00  0.00    -0.271 OA
ATOM     12  H10 non d ame      -6.947  10.845  69.527  0.00  0.00     0.163 HD
BRANCH  10  13
ATOM     13  C6  non d ame      -6.338  13.312  68.477  0.00  0.00     0.086 C 
ATOM     14  H6  non d ame      -5.324  13.591  68.191  0.00  0.00     0.086 H 
BRANCH  13  15
ATOM     15  N2  non d ame      -7.197  14.422  68.097  0.00  0.00    -0.343 N 
ATOM     16  C5  non d ame      -6.609  15.608  67.471  0.00  0.00     0.273 C 
ATOM     17  O2  non d ame      -5.444  15.661  67.281  0.00  0.00    -0.266 OA
ATOM     18  H5  non d ame      -8.191  14.369  68.266  0.00  0.00     0.163 HD
BRANCH  16  19
ATOM     19  C4  non d ame      -7.506  16.788  67.064  0.00  0.00     0.154 A 
ATOM     20  C1  non d ame      -8.070  17.783  67.924  0.00  0.00    -0.017 A 
ATOM     21  C2  non d ame      -8.804  18.631  67.066  0.00  0.00     0.077 A 
ATOM     22  H1  non d ame      -7.961  17.876  69.005  0.00  0.00     0.091 H 
ATOM     23  O1  non d ame      -8.669  18.170  65.857  0.00  0.00    -0.218 OA
ATOM     24  N1  non d ame      -7.916  17.094  65.831  0.00  0.00    -0.123 NA
BRANCH  21  25
ATOM     25  C3  non d ame      -9.603  19.860  67.481  0.00  0.00    -0.029 C 
ATOM     26  H2  non d ame     -10.418  20.019  66.774  0.00  0.00     0.036 H 
ATOM     27  H3  non d ame     -10.012  19.707  68.479  0.00  0.00     0.036 H 
ATOM     28  H4  non d ame      -8.950  20.734  67.485  0.00  0.00     0.036 H 
ENDBRANCH  21  25
ENDBRANCH  16  19
ENDBRANCH  13  15
BRANCH  13  29
ATOM     29  C8  non d ame      -6.385  13.110  69.970  0.00  0.00    -0.049 C 
ATOM     30  H7  non d ame      -6.668  14.046  70.454  0.00  0.00     0.030 H 
ATOM     31  H8  non d ame      -7.117  12.340  70.211  0.00  0.00     0.030 H 
ATOM     32  H9  non d ame      -5.402  12.802  70.326  0.00  0.00     0.030 H 
ENDBRANCH  13  29
ENDBRANCH  10  13
ENDBRANCH   7   9
BRANCH   7  33
ATOM     33  C11 non d ame      -6.447   8.518  67.941  0.00  0.00    -0.033 C 
ATOM     34  H12 non d ame      -6.899   7.621  68.361  0.00  0.00     0.042 H 
BRANCH  33  35
ATOM     35  C12 non d ame      -5.902   8.151  66.526  0.00  0.00    -0.071 C 
ATOM     36  H13 non d ame      -4.968   8.684  66.347  0.00  0.00     0.028 H 
ATOM     37  H14 non d ame      -5.724   7.078  66.472  0.00  0.00     0.028 H 
ATOM     38  H15 non d ame      -6.633   8.437  65.771  0.00  0.00     0.028 H 
ENDBRANCH  33  35
BRANCH  33  39
ATOM     39  C13 non d ame      -5.292   8.968  68.893  0.00  0.00    -0.071 C 
ATOM     40  H16 non d ame      -4.348   8.957  68.349  0.00  0.00     0.028 H 
ATOM     41  H17 non d ame      -5.491   9.978  69.254  0.00  0.00     0.028 H 
ATOM     42  H18 non d ame      -5.232   8.285  69.740  0.00  0.00     0.028 H 
ENDBRANCH  33  39
ENDBRANCH   7  33
ENDBRANCH   4   7
ENDBRANCH   1   3
BRANCH   1  43
ATOM     43  C15 non d ame     -11.764  10.653  70.180  0.00  0.00     0.240 C 
ATOM     44  O5  non d ame     -12.913  10.404  70.351  0.00  0.00    -0.271 OA
ATOM     45  N6  non d ame     -11.337  12.063  69.946  0.00  0.00    -0.355 N 
ATOM     46  H46 non d ame     -10.363  12.286  69.805  0.00  0.00     0.162 HD
BRANCH  45  47
ATOM     47  C20 non d ame     -12.350  13.140  69.921  0.00  0.00     0.013 C 
ATOM     48  H30 non d ame     -13.216  12.774  69.369  0.00  0.00     0.072 H 
BRANCH  47  49
ATOM     49  C21 non d ame     -11.772  14.353  69.228  0.00  0.00    -0.038 C 
ATOM     50  H31 non d ame     -12.617  14.852  68.755  0.00  0.00     0.036 H 
ATOM     51  H32 non d ame     -11.186  14.874  69.986  0.00  0.00     0.036 H 
BRANCH  49  52
ATOM     52  C22 non d ame     -10.791  13.985  68.094  0.00  0.00     0.018 C 
ATOM     53  H33 non d ame      -9.793  14.150  68.501  0.00  0.00     0.048 H 
ATOM     54  H34 non d ame     -11.085  12.991  67.760  0.00  0.00     0.048 H 
BRANCH  52  55
ATOM     55  C23 non d ame     -10.902  14.907  66.847  0.00  0.00     0.259 C 
ATOM     56  O7  non d ame     -11.010  16.083  66.974  0.00  0.00    -0.265 OA
BRANCH  55  57
ATOM     57  O8  non d ame     -10.886  14.326  65.549  0.00  0.00    -0.317 OA
BRANCH  57  58
ATOM     58  C29 non d ame     -11.730  13.178  65.414  0.00  0.00     0.052 C 
ATOM     59  H47 non d ame     -12.026  12.910  66.427  0.00  0.00     0.082 H 
ATOM     60  H48 non d ame     -12.486  13.453  64.679  0.00  0.00     0.082 H 
BRANCH  58  61
ATOM     61  C35 non d ame     -10.875  12.022  64.830  0.00  0.00    -0.034 A 
ATOM     62  C30 non d ame     -10.496  10.957  65.640  0.00  0.00    -0.075 A 
ATOM     63  C31 non d ame      -9.728   9.918  65.114  0.00  0.00    -0.082 A 
ATOM     64  H49 non d ame     -10.801  10.935  66.686  0.00  0.00     0.084 H 
ATOM     65  C32 non d ame      -9.336   9.950  63.774  0.00  0.00    -0.083 A 
ATOM     66  H50 non d ame      -9.436   9.083  65.751  0.00  0.00     0.083 H 
ATOM     67  C33 non d ame      -9.713  11.018  62.969  0.00  0.00    -0.082 A 
ATOM     68  H51 non d ame      -8.736   9.142  63.355  0.00  0.00     0.083 H 
ATOM     69  C34 non d ame     -10.483  12.056  63.490  0.00  0.00    -0.075 A 
ATOM     70  H52 non d ame      -9.404  11.040  61.924  0.00  0.00     0.083 H 
ATOM     71  H53 non d ame     -10.776  12.890  62.852  0.00  0.00     0.084 H 
ENDBRANCH  58  61
ENDBRANCH  57  58
ENDBRANCH  55  57
ENDBRANCH  52  55
ENDBRANCH  49  52
ENDBRANCH  47  49
BRANCH  47  72
ATOM     72  C24 non d ame     -12.748  13.508  71.349  0.00  0.00    -0.039 C 
ATOM     73  H35 non d ame     -13.772  13.153  71.465  0.00  0.00     0.036 H 
ATOM     74  H36 non d ame     -11.958  13.105  71.983  0.00  0.00     0.036 H 
BRANCH  72  75
ATOM     75  C25 non d ame     -12.769  15.094  71.569  0.00  0.00    -0.001 C 
ATOM     76  C26 non d ame     -11.760  15.501  72.802  0.00  0.00    -0.035 C 
ATOM     77  C27 non d ame     -12.436  16.283  73.678  0.00  0.00     0.085 C 
ATOM     78  H38 non d ame     -11.511  14.618  73.389  0.00  0.00     0.036 H 
ATOM     79  H39 non d ame     -10.968  16.155  72.438  0.00  0.00     0.036 H 
ATOM     80  N5  non d ame     -13.901  16.176  73.326  0.00  0.00    -0.049 N 
ATOM     81  H40 non d ame     -12.273  15.831  74.658  0.00  0.00     0.075 H 
ATOM     82  H41 non d ame     -12.098  17.299  73.483  0.00  0.00     0.075 H 
ATOM     83  C28 non d ame     -13.957  15.512  71.855  0.00  0.00     0.193 C 
ATOM     84  H42 non d ame     -14.308  15.530  73.986  0.00  0.00     0.280 HD
ATOM     85  H43 non d ame     -14.250  17.122  73.264  0.00  0.00     0.280 HD
ATOM     86  H44 non d ame     -14.169  16.123  70.979  0.00  0.00     0.129 H 
ATOM     87  H37 non d ame     -12.654  15.642  70.633  0.00  0.00     0.046 H 
BRANCH  83  88
ATOM     88  O6  non d ame     -14.919  14.456  71.827  0.00  0.00    -0.369 OA
ATOM     89  H45 non d ame     -14.768  13.866  72.569  0.00  0.00     0.212 HD
ENDBRANCH  83  88
ENDBRANCH  72  75
ENDBRANCH  47  72
ENDBRANCH  45  47
ENDBRANCH   1  43
BRANCH   1  90
ATOM     90  C16 non d ame     -10.384   9.153  71.652  0.00  0.00    -0.035 C 
ATOM     91  H21 non d ame      -9.348   8.811  71.637  0.00  0.00     0.037 H 
ATOM     92  H22 non d ame     -10.660  10.030  72.236  0.00  0.00     0.037 H 
BRANCH  90  93
ATOM     93  C17 non d ame     -11.231   7.966  72.212  0.00  0.00    -0.059 C 
ATOM     94  H23 non d ame     -12.120   8.387  72.681  0.00  0.00     0.038 H 
BRANCH  93  95
ATOM     95  C18 non d ame     -11.703   6.994  71.084  0.00  0.00    -0.073 C 
ATOM     96  H24 non d ame     -12.742   6.714  71.258  0.00  0.00     0.028 H 
ATOM     97  H25 non d ame     -11.618   7.491  70.118  0.00  0.00     0.028 H 
ATOM     98  H26 non d ame     -11.079   6.100  71.090  0.00  0.00     0.028 H 
ENDBRANCH  93  95
BRANCH  93  99
ATOM     99  C19 non d ame     -10.462   7.208  73.297  0.00  0.00    -0.073 C 
ATOM    100  H27 non d ame     -11.110   6.453  73.742  0.00  0.00     0.028 H 
ATOM    101  H28 non d ame      -9.591   6.725  72.853  0.00  0.00     0.028 H 
ATOM    102  H29 non d ame     -10.135   7.907  74.067  0.00  0.00     0.028 H 
ENDBRANCH  93  99
ENDBRANCH  90  93
ENDBRANCH   1  90
TORSDOF 26
ENDMDL
MODEL 11
REMARK VINA RESULT:      -6.3      2.433      7.282
REMARK  26 active torsions:
REMARK  status: ('A' for Active; 'I' for Inactive)
REMARK    1  A    between atoms: C2_2  and  C3_3 
REMARK    2  A    between atoms: C4_6  and  C5_7 
REMARK       I    between atoms: C5_7  and  N2_9 
REMARK    3  A    between atoms: N2_9  and  C6_10 
REMARK    4  A    between atoms: C6_10  and  C7_11 
REMARK    5  A    between atoms: C6_10  and  C8_13 
REMARK       I    between atoms: C7_11  and  N3_14 
REMARK    6  A    between atoms: N3_14  and  C9_15 
REMARK    7  A    between atoms: C9_15  and  C10_16 
REMARK    8  A    between atoms: C9_15  and  C11_18 
REMARK       I    between atoms: C10_16  and  N4_21 
REMARK    9  A    between atoms: C11_18  and  C12_19 
REMARK   10  A    between atoms: C11_18  and  C13_20 
REMARK   11  A    between atoms: N4_21  and  C14_22 
REMARK   12  A    between atoms: C14_22  and  C15_23 
REMARK   13  A    between atoms: C14_22  and  C16_25 
REMARK       I    between atoms: C15_23  and  N6_40 
REMARK   14  A    between atoms: C16_25  and  C17_26 
REMARK   15  A    between atoms: C17_26  and  C18_27 
REMARK   16  A    between atoms: C17_26  and  C19_28 
REMARK   17  A    between atoms: C20_29  and  C21_30 
REMARK   18  A    between atoms: C20_29  and  C24_33 
REMARK   19  A    between atoms: C20_29  and  N6_40 
REMARK   20  A    between atoms: C21_30  and  C22_31 
REMARK   21  A    between atoms: C22_31  and  C23_32 
REMARK   22  A    between atoms: C23_32  and  O8_43 
REMARK   23  A    between atoms: C24_33  and  C25_34 
REMARK   24  A    between atoms: C28_38  and  O6_39 
REMARK   25  A    between atoms: C29_42  and  O8_43 
REMARK   26  A    between atoms: C29_42  and  C35_49 
ROOT
ATOM      1  C14 non d ame     -12.057  13.984  69.779  0.00  0.00     0.089 C 
ATOM      2  H20 non d ame     -13.060  13.584  69.625  0.00  0.00     0.087 H 
ENDROOT
BRANCH   1   3
ATOM      3  N4  non d ame     -11.117  12.886  69.607  0.00  0.00    -0.346 N 
ATOM      4  C10 non d ame     -11.595  11.544  69.111  0.00  0.00     0.241 C 
ATOM      5  O4  non d ame     -12.743  11.371  68.860  0.00  0.00    -0.271 OA
ATOM      6  H19 non d ame     -10.145  13.052  69.828  0.00  0.00     0.163 HD
BRANCH   4   7
ATOM      7  C9  non d ame     -10.609  10.420  68.934  0.00  0.00     0.092 C 
ATOM      8  H11 non d ame      -9.746  10.595  69.578  0.00  0.00     0.088 H 
BRANCH   7   9
ATOM      9  N3  non d ame     -11.221   9.159  69.365  0.00  0.00    -0.346 N 
ATOM     10  C7  non d ame     -11.201   8.787  70.757  0.00  0.00     0.240 C 
ATOM     11  O3  non d ame     -10.696   9.488  71.546  0.00  0.00    -0.271 OA
ATOM     12  H10 non d ame     -11.660   8.542  68.695  0.00  0.00     0.163 HD
BRANCH  10  13
ATOM     13  C6  non d ame     -11.852   7.442  71.208  0.00  0.00     0.086 C 
ATOM     14  H6  non d ame     -12.934   7.511  71.315  0.00  0.00     0.086 H 
BRANCH  13  15
ATOM     15  N2  non d ame     -11.598   6.432  70.193  0.00  0.00    -0.343 N 
ATOM     16  C5  non d ame     -10.218   6.084  69.850  0.00  0.00     0.273 C 
ATOM     17  O2  non d ame      -9.319   6.624  70.394  0.00  0.00    -0.266 OA
ATOM     18  H5  non d ame     -12.373   5.977  69.732  0.00  0.00     0.163 HD
BRANCH  16  19
ATOM     19  C4  non d ame      -9.936   5.018  68.780  0.00  0.00     0.154 A 
ATOM     20  C1  non d ame      -9.423   3.698  68.988  0.00  0.00    -0.017 A 
ATOM     21  C2  non d ame      -9.350   3.129  67.697  0.00  0.00     0.077 A 
ATOM     22  H1  non d ame      -9.146   3.226  69.931  0.00  0.00     0.091 H 
ATOM     23  O1  non d ame      -9.776   4.024  66.855  0.00  0.00    -0.218 OA
ATOM     24  N1  non d ame     -10.124   5.135  67.463  0.00  0.00    -0.123 NA
BRANCH  21  25
ATOM     25  C3  non d ame      -8.865   1.726  67.357  0.00  0.00    -0.029 C 
ATOM     26  H2  non d ame      -8.006   1.790  66.689  0.00  0.00     0.036 H 
ATOM     27  H3  non d ame      -8.577   1.209  68.272  0.00  0.00     0.036 H 
ATOM     28  H4  non d ame      -9.667   1.173  66.865  0.00  0.00     0.036 H 
ENDBRANCH  21  25
ENDBRANCH  16  19
ENDBRANCH  13  15
BRANCH  13  29
ATOM     29  C8  non d ame     -11.259   7.010  72.525  0.00  0.00    -0.049 C 
ATOM     30  H7  non d ame     -11.070   5.936  72.504  0.00  0.00     0.030 H 
ATOM     31  H8  non d ame     -10.322   7.540  72.695  0.00  0.00     0.030 H 
ATOM     32  H9  non d ame     -11.957   7.239  73.330  0.00  0.00     0.030 H 
ENDBRANCH  13  29
ENDBRANCH  10  13
ENDBRANCH   7   9
BRANCH   7  33
ATOM     33  C11 non d ame     -10.208  10.314  67.434  0.00  0.00    -0.033 C 
ATOM     34  H12 non d ame     -10.876  10.962  66.868  0.00  0.00     0.042 H 
BRANCH  33  35
ATOM     35  C12 non d ame      -8.750  10.820  67.197  0.00  0.00    -0.071 C 
ATOM     36  H13 non d ame      -8.198  10.788  68.136  0.00  0.00     0.028 H 
ATOM     37  H14 non d ame      -8.259  10.182  66.464  0.00  0.00     0.028 H 
ATOM     38  H15 non d ame      -8.779  11.844  66.828  0.00  0.00     0.028 H 
ENDBRANCH  33  35
BRANCH  33  39
ATOM     39  C13 non d ame     -10.391   8.853  66.908  0.00  0.00    -0.071 C 
ATOM     40  H16 non d ame      -9.850   8.735  65.970  0.00  0.00     0.028 H 
ATOM     41  H17 non d ame     -10.000   8.150  67.645  0.00  0.00     0.028 H 
ATOM     42  H18 non d ame     -11.450   8.656  66.745  0.00  0.00     0.028 H 
ENDBRANCH  33  39
ENDBRANCH   7  33
ENDBRANCH   4   7
ENDBRANCH   1   3
BRANCH   1  43
ATOM     43  C15 non d ame     -11.706  15.099  68.754  0.00  0.00     0.240 C 
ATOM     44  O5  non d ame     -11.991  16.229  68.988  0.00  0.00    -0.271 OA
ATOM     45  N6  non d ame     -11.005  14.760  67.482  0.00  0.00    -0.355 N 
ATOM     46  H46 non d ame     -10.754  13.805  67.274  0.00  0.00     0.162 HD
BRANCH  45  47
ATOM     47  C20 non d ame     -10.678  15.833  66.517  0.00  0.00     0.013 C 
ATOM     48  H30 non d ame     -11.592  16.390  66.311  0.00  0.00     0.072 H 
BRANCH  47  49
ATOM     49  C21 non d ame     -10.152  15.215  65.242  0.00  0.00    -0.038 C 
ATOM     50  H31 non d ame     -10.826  15.548  64.453  0.00  0.00     0.036 H 
ATOM     51  H32 non d ame      -9.094  15.477  65.202  0.00  0.00     0.036 H 
BRANCH  49  52
ATOM     52  C22 non d ame     -10.219  13.672  65.251  0.00  0.00     0.018 C 
ATOM     53  H33 non d ame      -9.185  13.331  65.196  0.00  0.00     0.048 H 
ATOM     54  H34 non d ame     -10.835  13.409  66.110  0.00  0.00     0.048 H 
BRANCH  52  55
ATOM     55  C23 non d ame     -10.934  13.069  64.010  0.00  0.00     0.259 C 
ATOM     56  O7  non d ame     -12.046  13.391  63.739  0.00  0.00    -0.265 OA
BRANCH  55  57
ATOM     57  O8  non d ame     -10.250  12.115  63.207  0.00  0.00    -0.317 OA
BRANCH  57  58
ATOM     58  C29 non d ame     -10.246  10.792  63.752  0.00  0.00     0.052 C 
ATOM     59  H47 non d ame     -10.178  10.919  64.832  0.00  0.00     0.082 H 
ATOM     60  H48 non d ame     -11.109  10.291  63.316  0.00  0.00     0.082 H 
BRANCH  58  61
ATOM     61  C35 non d ame      -8.961  10.075  63.259  0.00  0.00    -0.034 A 
ATOM     62  C30 non d ame      -8.539   8.900  63.872  0.00  0.00    -0.075 A 
ATOM     63  C31 non d ame      -7.384   8.257  63.428  0.00  0.00    -0.082 A 
ATOM     64  H49 non d ame      -9.113   8.482  64.699  0.00  0.00     0.084 H 
ATOM     65  C32 non d ame      -6.648   8.795  62.370  0.00  0.00    -0.083 A 
ATOM     66  H50 non d ame      -7.058   7.334  63.909  0.00  0.00     0.083 H 
ATOM     67  C33 non d ame      -7.071   9.971  61.763  0.00  0.00    -0.082 A 
ATOM     68  H51 non d ame      -5.745   8.298  62.016  0.00  0.00     0.083 H 
ATOM     69  C34 non d ame      -8.226  10.615  62.202  0.00  0.00    -0.075 A 
ATOM     70  H52 non d ame      -6.493  10.389  60.938  0.00  0.00     0.083 H 
ATOM     71  H53 non d ame      -8.552  11.538  61.719  0.00  0.00     0.084 H 
ENDBRANCH  58  61
ENDBRANCH  57  58
ENDBRANCH  55  57
ENDBRANCH  52  55
ENDBRANCH  49  52
ENDBRANCH  47  49
BRANCH  47  72
ATOM     72  C24 non d ame      -9.617  16.756  67.113  0.00  0.00    -0.039 C 
ATOM     73  H35 non d ame     -10.027  17.091  68.066  0.00  0.00     0.036 H 
ATOM     74  H36 non d ame      -8.689  16.184  67.091  0.00  0.00     0.036 H 
BRANCH  72  75
ATOM     75  C25 non d ame      -9.390  18.060  66.211  0.00  0.00    -0.001 C 
ATOM     76  C26 non d ame      -7.797  18.466  66.206  0.00  0.00    -0.035 C 
ATOM     77  C27 non d ame      -7.680  19.777  66.526  0.00  0.00     0.085 C 
ATOM     78  H38 non d ame      -7.278  17.958  67.018  0.00  0.00     0.036 H 
ATOM     79  H39 non d ame      -7.402  18.416  65.191  0.00  0.00     0.036 H 
ATOM     80  N5  non d ame      -9.019  20.219  67.069  0.00  0.00    -0.049 N 
ATOM     81  H40 non d ame      -6.942  19.817  67.328  0.00  0.00     0.075 H 
ATOM     82  H41 non d ame      -7.492  20.291  65.585  0.00  0.00     0.075 H 
ATOM     83  C28 non d ame     -10.068  19.063  66.659  0.00  0.00     0.193 C 
ATOM     84  H42 non d ame      -8.930  20.232  68.074  0.00  0.00     0.280 HD
ATOM     85  H43 non d ame      -9.263  21.065  66.573  0.00  0.00     0.280 HD
ATOM     86  H44 non d ame     -10.767  19.214  65.837  0.00  0.00     0.129 H 
ATOM     87  H37 non d ame      -9.886  17.983  65.243  0.00  0.00     0.046 H 
BRANCH  83  88
ATOM     88  O6  non d ame     -10.875  18.708  67.784  0.00  0.00    -0.369 OA
ATOM     89  H45 non d ame     -11.150  19.505  68.244  0.00  0.00     0.212 HD
ENDBRANCH  83  88
ENDBRANCH  72  75
ENDBRANCH  47  72
ENDBRANCH  45  47
ENDBRANCH   1  43
BRANCH   1  90
ATOM     90  C16 non d ame     -11.929  14.529  71.192  0.00  0.00    -0.035 C 
ATOM     91  H21 non d ame     -11.119  13.959  71.649  0.00  0.00     0.037 H 
ATOM     92  H22 non d ame     -11.839  15.609  71.077  0.00  0.00     0.037 H 
BRANCH  90  93
ATOM     93  C17 non d ame     -13.194  14.283  72.075  0.00  0.00    -0.059 C 
ATOM     94  H23 non d ame     -12.976  14.658  73.075  0.00  0.00     0.038 H 
BRANCH  93  95
ATOM     95  C18 non d ame     -14.445  15.050  71.540  0.00  0.00    -0.073 C 
ATOM     96  H24 non d ame     -15.348  14.496  71.797  0.00  0.00     0.028 H 
ATOM     97  H25 non d ame     -14.485  16.040  71.994  0.00  0.00     0.028 H 
ATOM     98  H26 non d ame     -14.375  15.149  70.457  0.00  0.00     0.028 H 
ENDBRANCH  93  95
BRANCH  93  99
ATOM     99  C19 non d ame     -13.488  12.786  72.205  0.00  0.00    -0.073 C 
ATOM    100  H27 non d ame     -14.369  12.642  72.832  0.00  0.00     0.028 H 
ATOM    101  H28 non d ame     -13.672  12.365  71.217  0.00  0.00     0.028 H 
ATOM    102  H29 non d ame     -12.632  12.285  72.659  0.00  0.00     0.028 H 
ENDBRANCH  93  99
ENDBRANCH  90  93
ENDBRANCH   1  90
TORSDOF 26
ENDMDL
MODEL 12
REMARK VINA RESULT:      -6.3      1.943      8.914
REMARK  26 active torsions:
REMARK  status: ('A' for Active; 'I' for Inactive)
REMARK    1  A    between atoms: C2_2  and  C3_3 
REMARK    2  A    between atoms: C4_6  and  C5_7 
REMARK       I    between atoms: C5_7  and  N2_9 
REMARK    3  A    between atoms: N2_9  and  C6_10 
REMARK    4  A    between atoms: C6_10  and  C7_11 
REMARK    5  A    between atoms: C6_10  and  C8_13 
REMARK       I    between atoms: C7_11  and  N3_14 
REMARK    6  A    between atoms: N3_14  and  C9_15 
REMARK    7  A    between atoms: C9_15  and  C10_16 
REMARK    8  A    between atoms: C9_15  and  C11_18 
REMARK       I    between atoms: C10_16  and  N4_21 
REMARK    9  A    between atoms: C11_18  and  C12_19 
REMARK   10  A    between atoms: C11_18  and  C13_20 
REMARK   11  A    between atoms: N4_21  and  C14_22 
REMARK   12  A    between atoms: C14_22  and  C15_23 
REMARK   13  A    between atoms: C14_22  and  C16_25 
REMARK       I    between atoms: C15_23  and  N6_40 
REMARK   14  A    between atoms: C16_25  and  C17_26 
REMARK   15  A    between atoms: C17_26  and  C18_27 
REMARK   16  A    between atoms: C17_26  and  C19_28 
REMARK   17  A    between atoms: C20_29  and  C21_30 
REMARK   18  A    between atoms: C20_29  and  C24_33 
REMARK   19  A    between atoms: C20_29  and  N6_40 
REMARK   20  A    between atoms: C21_30  and  C22_31 
REMARK   21  A    between atoms: C22_31  and  C23_32 
REMARK   22  A    between atoms: C23_32  and  O8_43 
REMARK   23  A    between atoms: C24_33  and  C25_34 
REMARK   24  A    between atoms: C28_38  and  O6_39 
REMARK   25  A    between atoms: C29_42  and  O8_43 
REMARK   26  A    between atoms: C29_42  and  C35_49 
ROOT
ATOM      1  C14 non d ame      -8.274   8.313  63.383  0.00  0.00     0.089 C 
ATOM      2  H20 non d ame      -8.715   8.256  62.387  0.00  0.00     0.087 H 
ENDROOT
BRANCH   1   3
ATOM      3  N4  non d ame      -9.140   9.153  64.198  0.00  0.00    -0.346 N 
ATOM      4  C10 non d ame      -9.679  10.451  63.648  0.00  0.00     0.241 C 
ATOM      5  O4  non d ame      -9.399  10.799  62.548  0.00  0.00    -0.271 OA
ATOM      6  H19 non d ame      -9.364   8.841  65.132  0.00  0.00     0.163 HD
BRANCH   4   7
ATOM      7  C9  non d ame     -10.577  11.306  64.502  0.00  0.00     0.092 C 
ATOM      8  H11 non d ame     -11.277  10.665  65.040  0.00  0.00     0.088 H 
BRANCH   7   9
ATOM      9  N3  non d ame      -9.773  12.008  65.508  0.00  0.00    -0.346 N 
ATOM     10  C7  non d ame      -9.575  11.421  66.810  0.00  0.00     0.240 C 
ATOM     11  O3  non d ame     -10.055  10.385  67.067  0.00  0.00    -0.271 OA
ATOM     12  H10 non d ame      -9.353  12.903  65.301  0.00  0.00     0.163 HD
BRANCH  10  13
ATOM     13  C6  non d ame      -8.720  12.175  67.876  0.00  0.00     0.086 C 
ATOM     14  H6  non d ame      -8.107  12.965  67.444  0.00  0.00     0.086 H 
BRANCH  13  15
ATOM     15  N2  non d ame      -9.613  12.816  68.828  0.00  0.00    -0.343 N 
ATOM     16  C5  non d ame     -10.233  14.098  68.487  0.00  0.00     0.273 C 
ATOM     17  O2  non d ame     -10.004  14.607  67.445  0.00  0.00    -0.266 OA
ATOM     18  H5  non d ame      -9.800  12.374  69.717  0.00  0.00     0.163 HD
BRANCH  16  19
ATOM     19  C4  non d ame     -11.179  14.785  69.483  0.00  0.00     0.154 A 
ATOM     20  C1  non d ame     -12.356  14.232  70.081  0.00  0.00    -0.017 A 
ATOM     21  C2  non d ame     -12.858  15.258  70.912  0.00  0.00     0.077 A 
ATOM     22  H1  non d ame     -12.779  13.238  69.935  0.00  0.00     0.091 H 
ATOM     23  O1  non d ame     -12.055  16.276  70.799  0.00  0.00    -0.218 OA
ATOM     24  N1  non d ame     -11.068  16.024  69.970  0.00  0.00    -0.123 NA
BRANCH  21  25
ATOM     25  C3  non d ame     -14.106  15.184  71.781  0.00  0.00    -0.029 C 
ATOM     26  H2  non d ame     -14.922  15.716  71.291  0.00  0.00     0.036 H 
ATOM     27  H3  non d ame     -14.387  14.141  71.925  0.00  0.00     0.036 H 
ATOM     28  H4  non d ame     -13.903  15.643  72.749  0.00  0.00     0.036 H 
ENDBRANCH  21  25
ENDBRANCH  16  19
ENDBRANCH  13  15
BRANCH  13  29
ATOM     29  C8  non d ame      -7.822  11.196  68.589  0.00  0.00    -0.049 C 
ATOM     30  H7  non d ame      -6.894  11.693  68.870  0.00  0.00     0.030 H 
ATOM     31  H8  non d ame      -8.323  10.827  69.483  0.00  0.00     0.030 H 
ATOM     32  H9  non d ame      -7.599  10.360  67.926  0.00  0.00     0.030 H 
ENDBRANCH  13  29
ENDBRANCH  10  13
ENDBRANCH   7   9
BRANCH   7  33
ATOM     33  C11 non d ame     -11.308  12.347  63.606  0.00  0.00    -0.033 C 
ATOM     34  H12 non d ame     -10.729  12.457  62.690  0.00  0.00     0.042 H 
BRANCH  33  35
ATOM     35  C12 non d ame     -12.732  11.852  63.204  0.00  0.00    -0.071 C 
ATOM     36  H13 non d ame     -13.313  11.646  64.104  0.00  0.00     0.028 H 
ATOM     37  H14 non d ame     -13.232  12.622  62.617  0.00  0.00     0.028 H 
ATOM     38  H15 non d ame     -12.645  10.942  62.612  0.00  0.00     0.028 H 
ENDBRANCH  33  35
BRANCH  33  39
ATOM     39  C13 non d ame     -11.371  13.742  64.308  0.00  0.00    -0.071 C 
ATOM     40  H16 non d ame     -12.195  13.753  65.021  0.00  0.00     0.028 H 
ATOM     41  H17 non d ame     -10.434  13.928  64.833  0.00  0.00     0.028 H 
ATOM     42  H18 non d ame     -11.528  14.519  63.560  0.00  0.00     0.028 H 
ENDBRANCH  33  39
ENDBRANCH   7  33
ENDBRANCH   4   7
ENDBRANCH   1   3
BRANCH   1  43
ATOM     43  C15 non d ame      -8.164   6.917  64.058  0.00  0.00     0.240 C 
ATOM     44  O5  non d ame      -7.534   6.055  63.536  0.00  0.00    -0.271 OA
ATOM     45  N6  non d ame      -8.837   6.655  65.363  0.00  0.00    -0.355 N 
ATOM     46  H46 non d ame      -9.371   7.381  65.818  0.00  0.00     0.162 HD
BRANCH  45  47
ATOM     47  C20 non d ame      -8.722   5.323  65.992  0.00  0.00     0.013 C 
ATOM     48  H30 non d ame      -8.610   4.584  65.198  0.00  0.00     0.072 H 
BRANCH  47  49
ATOM     49  C21 non d ame      -9.974   5.036  66.790  0.00  0.00    -0.038 C 
ATOM     50  H31 non d ame     -10.491   5.991  66.879  0.00  0.00     0.036 H 
ATOM     51  H32 non d ame     -10.458   4.198  66.288  0.00  0.00     0.036 H 
BRANCH  49  52
ATOM     52  C22 non d ame      -9.672   4.567  68.230  0.00  0.00     0.018 C 
ATOM     53  H33 non d ame     -10.131   3.583  68.323  0.00  0.00     0.048 H 
ATOM     54  H34 non d ame      -8.596   4.681  68.358  0.00  0.00     0.048 H 
BRANCH  52  55
ATOM     55  C23 non d ame     -10.329   5.450  69.327  0.00  0.00     0.259 C 
ATOM     56  O7  non d ame     -10.486   5.028  70.427  0.00  0.00    -0.265 OA
BRANCH  55  57
ATOM     57  O8  non d ame     -10.757   6.766  68.999  0.00  0.00    -0.317 OA
BRANCH  57  58
ATOM     58  C29 non d ame     -10.091   7.795  69.738  0.00  0.00     0.052 C 
ATOM     59  H47 non d ame      -9.480   7.279  70.477  0.00  0.00     0.082 H 
ATOM     60  H48 non d ame      -9.619   8.435  68.992  0.00  0.00     0.082 H 
BRANCH  58  61
ATOM     61  C35 non d ame     -11.170   8.625  70.483  0.00  0.00    -0.034 A 
ATOM     62  C30 non d ame     -11.366   9.964  70.161  0.00  0.00    -0.075 A 
ATOM     63  C31 non d ame     -12.336  10.708  70.830  0.00  0.00    -0.082 A 
ATOM     64  H49 non d ame     -10.761  10.430  69.383  0.00  0.00     0.084 H 
ATOM     65  C32 non d ame     -13.109  10.110  71.829  0.00  0.00    -0.083 A 
ATOM     66  H50 non d ame     -12.490  11.757  70.573  0.00  0.00     0.083 H 
ATOM     67  C33 non d ame     -12.908   8.774  72.150  0.00  0.00    -0.082 A 
ATOM     68  H51 non d ame     -13.870  10.685  72.356  0.00  0.00     0.083 H 
ATOM     69  C34 non d ame     -11.941   8.026  71.481  0.00  0.00    -0.075 A 
ATOM     70  H52 non d ame     -13.512   8.311  72.930  0.00  0.00     0.083 H 
ATOM     71  H53 non d ame     -11.790   6.976  71.738  0.00  0.00     0.084 H 
ENDBRANCH  58  61
ENDBRANCH  57  58
ENDBRANCH  55  57
ENDBRANCH  52  55
ENDBRANCH  49  52
ENDBRANCH  47  49
BRANCH  47  72
ATOM     72  C24 non d ame      -7.508   5.293  66.919  0.00  0.00    -0.039 C 
ATOM     73  H35 non d ame      -7.083   6.296  66.872  0.00  0.00     0.036 H 
ATOM     74  H36 non d ame      -7.877   4.902  67.868  0.00  0.00     0.036 H 
BRANCH  72  75
ATOM     75  C25 non d ame      -6.385   4.278  66.394  0.00  0.00    -0.001 C 
ATOM     76  C26 non d ame      -6.372   2.925  67.329  0.00  0.00    -0.035 C 
ATOM     77  C27 non d ame      -5.103   2.692  67.739  0.00  0.00     0.085 C 
ATOM     78  H38 non d ame      -6.911   3.107  68.258  0.00  0.00     0.036 H 
ATOM     79  H39 non d ame      -6.609   2.050  66.724  0.00  0.00     0.036 H 
ATOM     80  N5  non d ame      -4.306   3.940  67.443  0.00  0.00    -0.049 N 
ATOM     81  H40 non d ame      -5.166   2.559  68.820  0.00  0.00     0.075 H 
ATOM     82  H41 non d ame      -4.738   1.880  67.111  0.00  0.00     0.075 H 
ATOM     83  C28 non d ame      -5.212   4.816  66.434  0.00  0.00     0.193 C 
ATOM     84  H42 non d ame      -4.221   4.439  68.316  0.00  0.00     0.280 HD
ATOM     85  H43 non d ame      -3.477   3.639  66.950  0.00  0.00     0.280 HD
ATOM     86  H44 non d ame      -4.976   4.857  65.371  0.00  0.00     0.129 H 
ATOM     87  H37 non d ame      -6.432   4.134  65.314  0.00  0.00     0.046 H 
BRANCH  83  88
ATOM     88  O6  non d ame      -5.258   6.177  66.867  0.00  0.00    -0.369 OA
ATOM     89  H45 non d ame      -6.087   6.338  67.326  0.00  0.00     0.212 HD
ENDBRANCH  83  88
ENDBRANCH  72  75
ENDBRANCH  47  72
ENDBRANCH  45  47
ENDBRANCH   1  43
BRANCH   1  90
ATOM     90  C16 non d ame      -6.898   8.952  63.301  0.00  0.00    -0.035 C 
ATOM     91  H21 non d ame      -6.335   8.337  62.597  0.00  0.00     0.037 H 
ATOM     92  H22 non d ame      -7.080  10.004  63.080  0.00  0.00     0.037 H 
BRANCH  90  93
ATOM     93  C17 non d ame      -6.108   8.915  64.648  0.00  0.00    -0.059 C 
ATOM     94  H23 non d ame      -6.606   8.201  65.303  0.00  0.00     0.038 H 
BRANCH  93  95
ATOM     95  C18 non d ame      -4.634   8.434  64.454  0.00  0.00    -0.073 C 
ATOM     96  H24 non d ame      -4.194   8.947  63.598  0.00  0.00     0.028 H 
ATOM     97  H25 non d ame      -4.057   8.662  65.350  0.00  0.00     0.028 H 
ATOM     98  H26 non d ame      -4.623   7.358  64.278  0.00  0.00     0.028 H 
ENDBRANCH  93  95
BRANCH  93  99
ATOM     99  C19 non d ame      -6.149  10.277  65.345  0.00  0.00    -0.073 C 
ATOM    100  H27 non d ame      -6.080  11.069  64.598  0.00  0.00     0.028 H 
ATOM    101  H28 non d ame      -7.085  10.375  65.894  0.00  0.00     0.028 H 
ATOM    102  H29 non d ame      -5.312  10.356  66.039  0.00  0.00     0.028 H 
ENDBRANCH  93  99
ENDBRANCH  90  93
ENDBRANCH   1  90
TORSDOF 26
ENDMDL
MODEL 13
REMARK VINA RESULT:      -6.3      2.533      6.566
REMARK  26 active torsions:
REMARK  status: ('A' for Active; 'I' for Inactive)
REMARK    1  A    between atoms: C2_2  and  C3_3 
REMARK    2  A    between atoms: C4_6  and  C5_7 
REMARK       I    between atoms: C5_7  and  N2_9 
REMARK    3  A    between atoms: N2_9  and  C6_10 
REMARK    4  A    between atoms: C6_10  and  C7_11 
REMARK    5  A    between atoms: C6_10  and  C8_13 
REMARK       I    between atoms: C7_11  and  N3_14 
REMARK    6  A    between atoms: N3_14  and  C9_15 
REMARK    7  A    between atoms: C9_15  and  C10_16 
REMARK    8  A    between atoms: C9_15  and  C11_18 
REMARK       I    between atoms: C10_16  and  N4_21 
REMARK    9  A    between atoms: C11_18  and  C12_19 
REMARK   10  A    between atoms: C11_18  and  C13_20 
REMARK   11  A    between atoms: N4_21  and  C14_22 
REMARK   12  A    between atoms: C14_22  and  C15_23 
REMARK   13  A    between atoms: C14_22  and  C16_25 
REMARK       I    between atoms: C15_23  and  N6_40 
REMARK   14  A    between atoms: C16_25  and  C17_26 
REMARK   15  A    between atoms: C17_26  and  C18_27 
REMARK   16  A    between atoms: C17_26  and  C19_28 
REMARK   17  A    between atoms: C20_29  and  C21_30 
REMARK   18  A    between atoms: C20_29  and  C24_33 
REMARK   19  A    between atoms: C20_29  and  N6_40 
REMARK   20  A    between atoms: C21_30  and  C22_31 
REMARK   21  A    between atoms: C22_31  and  C23_32 
REMARK   22  A    between atoms: C23_32  and  O8_43 
REMARK   23  A    between atoms: C24_33  and  C25_34 
REMARK   24  A    between atoms: C28_38  and  O6_39 
REMARK   25  A    between atoms: C29_42  and  O8_43 
REMARK   26  A    between atoms: C29_42  and  C35_49 
ROOT
ATOM      1  C14 non d ame      -8.802   9.705  65.104  0.00  0.00     0.089 C 
ATOM      2  H20 non d ame      -7.791  10.042  65.339  0.00  0.00     0.087 H 
ENDROOT
BRANCH   1   3
ATOM      3  N4  non d ame      -8.962   8.374  65.670  0.00  0.00    -0.346 N 
ATOM      4  C10 non d ame      -7.773   7.639  66.238  0.00  0.00     0.241 C 
ATOM      5  O4  non d ame      -6.696   8.139  66.225  0.00  0.00    -0.271 OA
ATOM      6  H19 non d ame      -9.886   7.964  65.669  0.00  0.00     0.163 HD
BRANCH   4   7
ATOM      7  C9  non d ame      -7.958   6.264  66.825  0.00  0.00     0.092 C 
ATOM      8  H11 non d ame      -7.013   5.723  66.776  0.00  0.00     0.088 H 
BRANCH   7   9
ATOM      9  N3  non d ame      -8.316   6.382  68.242  0.00  0.00    -0.346 N 
ATOM     10  C7  non d ame      -7.300   6.242  69.255  0.00  0.00     0.240 C 
ATOM     11  O3  non d ame      -6.189   6.033  68.950  0.00  0.00    -0.271 OA
ATOM     12  H10 non d ame      -9.270   6.561  68.521  0.00  0.00     0.163 HD
BRANCH  10  13
ATOM     13  C6  non d ame      -7.688   6.365  70.762  0.00  0.00     0.086 C 
ATOM     14  H6  non d ame      -7.131   7.147  71.279  0.00  0.00     0.086 H 
BRANCH  13  15
ATOM     15  N2  non d ame      -9.094   6.723  70.859  0.00  0.00    -0.343 N 
ATOM     16  C5  non d ame      -9.467   8.107  71.156  0.00  0.00     0.273 C 
ATOM     17  O2  non d ame      -8.630   8.925  71.318  0.00  0.00    -0.266 OA
ATOM     18  H5  non d ame      -9.803   6.017  70.722  0.00  0.00     0.163 HD
BRANCH  16  19
ATOM     19  C4  non d ame     -10.949   8.499  71.260  0.00  0.00     0.154 A 
ATOM     20  C1  non d ame     -12.057   7.632  71.523  0.00  0.00    -0.017 A 
ATOM     21  C2  non d ame     -13.189   8.476  71.517  0.00  0.00     0.077 A 
ATOM     22  H1  non d ame     -12.041   6.555  71.692  0.00  0.00     0.091 H 
ATOM     23  O1  non d ame     -12.770   9.685  71.280  0.00  0.00    -0.218 OA
ATOM     24  N1  non d ame     -11.466   9.724  71.127  0.00  0.00    -0.123 NA
BRANCH  21  25
ATOM     25  C3  non d ame     -14.633   8.050  71.747  0.00  0.00    -0.029 C 
ATOM     26  H2  non d ame     -14.676   7.346  72.578  0.00  0.00     0.036 H 
ATOM     27  H3  non d ame     -15.238   8.925  71.980  0.00  0.00     0.036 H 
ATOM     28  H4  non d ame     -15.019   7.571  70.846  0.00  0.00     0.036 H 
ENDBRANCH  21  25
ENDBRANCH  16  19
ENDBRANCH  13  15
BRANCH  13  29
ATOM     29  C8  non d ame      -7.441   5.050  71.457  0.00  0.00    -0.049 C 
ATOM     30  H7  non d ame      -7.887   4.243  70.875  0.00  0.00     0.030 H 
ATOM     31  H8  non d ame      -6.368   4.883  71.549  0.00  0.00     0.030 H 
ATOM     32  H9  non d ame      -7.892   5.073  72.449  0.00  0.00     0.030 H 
ENDBRANCH  13  29
ENDBRANCH  10  13
ENDBRANCH   7   9
BRANCH   7  33
ATOM     33  C11 non d ame      -9.097   5.525  66.064  0.00  0.00    -0.033 C 
ATOM     34  H12 non d ame      -9.902   6.240  65.902  0.00  0.00     0.042 H 
BRANCH  33  35
ATOM     35  C12 non d ame      -8.618   5.030  64.664  0.00  0.00    -0.071 C 
ATOM     36  H13 non d ame      -9.430   5.135  63.944  0.00  0.00     0.028 H 
ATOM     37  H14 non d ame      -7.766   5.627  64.340  0.00  0.00     0.028 H 
ATOM     38  H15 non d ame      -8.324   3.983  64.730  0.00  0.00     0.028 H 
ENDBRANCH  33  35
BRANCH  33  39
ATOM     39  C13 non d ame      -9.664   4.344  66.917  0.00  0.00    -0.071 C 
ATOM     40  H16 non d ame      -9.845   3.485  66.272  0.00  0.00     0.028 H 
ATOM     41  H17 non d ame      -8.942   4.074  67.689  0.00  0.00     0.028 H 
ATOM     42  H18 non d ame     -10.599   4.650  67.386  0.00  0.00     0.028 H 
ENDBRANCH  33  39
ENDBRANCH   7  33
ENDBRANCH   4   7
ENDBRANCH   1   3
BRANCH   1  43
ATOM     43  C15 non d ame      -9.889  10.635  65.712  0.00  0.00     0.240 C 
ATOM     44  O5  non d ame     -10.678  10.197  66.485  0.00  0.00    -0.271 OA
ATOM     45  N6  non d ame      -9.941  12.078  65.338  0.00  0.00    -0.355 N 
ATOM     46  H46 non d ame      -9.273  12.463  64.686  0.00  0.00     0.162 HD
BRANCH  45  47
ATOM     47  C20 non d ame     -10.980  12.950  65.926  0.00  0.00     0.013 C 
ATOM     48  H30 non d ame     -11.904  12.375  65.991  0.00  0.00     0.072 H 
BRANCH  47  49
ATOM     49  C21 non d ame     -11.184  14.155  65.037  0.00  0.00    -0.038 C 
ATOM     50  H31 non d ame     -10.778  13.876  64.065  0.00  0.00     0.036 H 
ATOM     51  H32 non d ame     -12.238  14.417  65.133  0.00  0.00     0.036 H 
BRANCH  49  52
ATOM     52  C22 non d ame     -10.383  15.389  65.507  0.00  0.00     0.018 C 
ATOM     53  H33 non d ame     -10.552  15.459  66.582  0.00  0.00     0.048 H 
ATOM     54  H34 non d ame      -9.373  15.249  65.123  0.00  0.00     0.048 H 
BRANCH  52  55
ATOM     55  C23 non d ame     -10.887  16.730  64.906  0.00  0.00     0.259 C 
ATOM     56  O7  non d ame     -11.596  16.735  63.952  0.00  0.00    -0.265 OA
BRANCH  55  57
ATOM     57  O8  non d ame     -10.481  17.957  65.501  0.00  0.00    -0.317 OA
BRANCH  57  58
ATOM     58  C29 non d ame     -10.466  17.933  66.931  0.00  0.00     0.052 C 
ATOM     59  H47 non d ame     -11.302  18.555  67.246  0.00  0.00     0.082 H 
ATOM     60  H48 non d ame     -10.437  16.879  67.208  0.00  0.00     0.082 H 
BRANCH  58  61
ATOM     61  C35 non d ame      -9.148  18.601  67.407  0.00  0.00    -0.034 A 
ATOM     62  C30 non d ame      -8.340  17.962  68.342  0.00  0.00    -0.075 A 
ATOM     63  C31 non d ame      -7.156  18.563  68.768  0.00  0.00    -0.082 A 
ATOM     64  H49 non d ame      -8.633  16.990  68.739  0.00  0.00     0.084 H 
ATOM     65  C32 non d ame      -6.784  19.810  68.259  0.00  0.00    -0.083 A 
ATOM     66  H50 non d ame      -6.524  18.058  69.499  0.00  0.00     0.083 H 
ATOM     67  C33 non d ame      -7.596  20.446  67.329  0.00  0.00    -0.082 A 
ATOM     68  H51 non d ame      -5.860  20.286  68.587  0.00  0.00     0.083 H 
ATOM     69  C34 non d ame      -8.778  19.847  66.899  0.00  0.00    -0.075 A 
ATOM     70  H52 non d ame      -7.303  21.420  66.936  0.00  0.00     0.083 H 
ATOM     71  H53 non d ame      -9.409  20.353  66.167  0.00  0.00     0.084 H 
ENDBRANCH  58  61
ENDBRANCH  57  58
ENDBRANCH  55  57
ENDBRANCH  52  55
ENDBRANCH  49  52
ENDBRANCH  47  49
BRANCH  47  72
ATOM     72  C24 non d ame     -10.543  13.409  67.316  0.00  0.00    -0.039 C 
ATOM     73  H35 non d ame      -9.913  12.607  67.701  0.00  0.00     0.036 H 
ATOM     74  H36 non d ame     -10.127  14.407  67.174  0.00  0.00     0.036 H 
BRANCH  72  75
ATOM     75  C25 non d ame     -11.788  13.552  68.313  0.00  0.00    -0.001 C 
ATOM     76  C26 non d ame     -11.851  15.082  68.914  0.00  0.00    -0.035 C 
ATOM     77  C27 non d ame     -11.939  15.017  70.264  0.00  0.00     0.085 C 
ATOM     78  H38 non d ame     -10.902  15.589  68.744  0.00  0.00     0.036 H 
ATOM     79  H39 non d ame     -12.785  15.561  68.621  0.00  0.00     0.036 H 
ATOM     80  N5  non d ame     -11.612  13.596  70.659  0.00  0.00    -0.049 N 
ATOM     81  H40 non d ame     -11.157  15.678  70.639  0.00  0.00     0.075 H 
ATOM     82  H41 non d ame     -12.983  15.219  70.497  0.00  0.00     0.075 H 
ATOM     83  C28 non d ame     -11.694  12.727  69.302  0.00  0.00     0.193 C 
ATOM     84  H42 non d ame     -10.655  13.602  70.981  0.00  0.00     0.280 HD
ATOM     85  H43 non d ame     -12.351  13.295  71.278  0.00  0.00     0.280 HD
ATOM     86  H44 non d ame     -12.552  12.084  69.106  0.00  0.00     0.129 H 
ATOM     87  H37 non d ame     -12.707  13.149  67.886  0.00  0.00     0.046 H 
BRANCH  83  88
ATOM     88  O6  non d ame     -10.549  11.880  69.188  0.00  0.00    -0.369 OA
ATOM     89  H45 non d ame     -10.237  11.646  70.066  0.00  0.00     0.212 HD
ENDBRANCH  83  88
ENDBRANCH  72  75
ENDBRANCH  47  72
ENDBRANCH  45  47
ENDBRANCH   1  43
BRANCH   1  90
ATOM     90  C16 non d ame      -8.980   9.627  63.596  0.00  0.00    -0.035 C 
ATOM     91  H21 non d ame      -9.357   8.621  63.402  0.00  0.00     0.037 H 
ATOM     92  H22 non d ame      -9.584  10.495  63.332  0.00  0.00     0.037 H 
BRANCH  90  93
ATOM     93  C17 non d ame      -7.644   9.759  62.799  0.00  0.00    -0.059 C 
ATOM     94  H23 non d ame      -6.961  10.363  63.396  0.00  0.00     0.038 H 
BRANCH  93  95
ATOM     95  C18 non d ame      -6.964   8.374  62.554  0.00  0.00    -0.073 C 
ATOM     96  H24 non d ame      -7.136   7.728  63.415  0.00  0.00     0.028 H 
ATOM     97  H25 non d ame      -7.389   7.913  61.663  0.00  0.00     0.028 H 
ATOM     98  H26 non d ame      -5.892   8.515  62.414  0.00  0.00     0.028 H 
ENDBRANCH  93  95
BRANCH  93  99
ATOM     99  C19 non d ame      -7.866  10.498  61.476  0.00  0.00    -0.073 C 
ATOM    100  H27 non d ame      -7.632  11.555  61.607  0.00  0.00     0.028 H 
ATOM    101  H28 non d ame      -7.216  10.073  60.711  0.00  0.00     0.028 H 
ATOM    102  H29 non d ame      -8.906  10.389  61.170  0.00  0.00     0.028 H 
ENDBRANCH  93  99
ENDBRANCH  90  93
ENDBRANCH   1  90
TORSDOF 26
ENDMDL
MODEL 14
REMARK VINA RESULT:      -6.3      2.511      9.115
REMARK  26 active torsions:
REMARK  status: ('A' for Active; 'I' for Inactive)
REMARK    1  A    between atoms: C2_2  and  C3_3 
REMARK    2  A    between atoms: C4_6  and  C5_7 
REMARK       I    between atoms: C5_7  and  N2_9 
REMARK    3  A    between atoms: N2_9  and  C6_10 
REMARK    4  A    between atoms: C6_10  and  C7_11 
REMARK    5  A    between atoms: C6_10  and  C8_13 
REMARK       I    between atoms: C7_11  and  N3_14 
REMARK    6  A    between atoms: N3_14  and  C9_15 
REMARK    7  A    between atoms: C9_15  and  C10_16 
REMARK    8  A    between atoms: C9_15  and  C11_18 
REMARK       I    between atoms: C10_16  and  N4_21 
REMARK    9  A    between atoms: C11_18  and  C12_19 
REMARK   10  A    between atoms: C11_18  and  C13_20 
REMARK   11  A    between atoms: N4_21  and  C14_22 
REMARK   12  A    between atoms: C14_22  and  C15_23 
REMARK   13  A    between atoms: C14_22  and  C16_25 
REMARK       I    between atoms: C15_23  and  N6_40 
REMARK   14  A    between atoms: C16_25  and  C17_26 
REMARK   15  A    between atoms: C17_26  and  C18_27 
REMARK   16  A    between atoms: C17_26  and  C19_28 
REMARK   17  A    between atoms: C20_29  and  C21_30 
REMARK   18  A    between atoms: C20_29  and  C24_33 
REMARK   19  A    between atoms: C20_29  and  N6_40 
REMARK   20  A    between atoms: C21_30  and  C22_31 
REMARK   21  A    between atoms: C22_31  and  C23_32 
REMARK   22  A    between atoms: C23_32  and  O8_43 
REMARK   23  A    between atoms: C24_33  and  C25_34 
REMARK   24  A    between atoms: C28_38  and  O6_39 
REMARK   25  A    between atoms: C29_42  and  O8_43 
REMARK   26  A    between atoms: C29_42  and  C35_49 
ROOT
ATOM      1  C14 non d ame      -8.314   8.845  63.232  0.00  0.00     0.089 C 
ATOM      2  H20 non d ame      -9.203   9.170  62.691  0.00  0.00     0.087 H 
ENDROOT
BRANCH   1   3
ATOM      3  N4  non d ame      -8.379   9.421  64.567  0.00  0.00    -0.346 N 
ATOM      4  C10 non d ame      -9.590  10.211  64.998  0.00  0.00     0.241 C 
ATOM      5  O4  non d ame     -10.498  10.371  64.251  0.00  0.00    -0.271 OA
ATOM      6  H19 non d ame      -7.595   9.275  65.187  0.00  0.00     0.163 HD
BRANCH   4   7
ATOM      7  C9  non d ame      -9.643  10.795  66.385  0.00  0.00     0.092 C 
ATOM      8  H11 non d ame      -8.698  11.294  66.601  0.00  0.00     0.088 H 
BRANCH   7   9
ATOM      9  N3  non d ame     -10.694  11.816  66.445  0.00  0.00    -0.346 N 
ATOM     10  C7  non d ame     -10.340  13.210  66.536  0.00  0.00     0.240 C 
ATOM     11  O3  non d ame      -9.215  13.531  66.561  0.00  0.00    -0.271 OA
ATOM     12  H10 non d ame     -11.670  11.555  66.425  0.00  0.00     0.163 HD
BRANCH  10  13
ATOM     13  C6  non d ame     -11.464  14.292  66.603  0.00  0.00     0.086 C 
ATOM     14  H6  non d ame     -12.021  14.264  67.539  0.00  0.00     0.086 H 
BRANCH  13  15
ATOM     15  N2  non d ame     -10.855  15.609  66.520  0.00  0.00    -0.343 N 
ATOM     16  C5  non d ame     -10.869  16.486  67.693  0.00  0.00     0.273 C 
ATOM     17  O2  non d ame     -11.375  16.123  68.697  0.00  0.00    -0.266 OA
ATOM     18  H5  non d ame     -10.427  15.912  65.656  0.00  0.00     0.163 HD
BRANCH  16  19
ATOM     19  C4  non d ame     -10.228  17.881  67.619  0.00  0.00     0.154 A 
ATOM     20  C1  non d ame      -8.839  18.187  67.460  0.00  0.00    -0.017 A 
ATOM     21  C2  non d ame      -8.778  19.598  67.452  0.00  0.00     0.077 A 
ATOM     22  H1  non d ame      -8.005  17.492  67.364  0.00  0.00     0.091 H 
ATOM     23  O1  non d ame      -9.993  20.040  67.588  0.00  0.00    -0.218 OA
ATOM     24  N1  non d ame     -10.858  19.057  67.688  0.00  0.00    -0.123 NA
BRANCH  21  25
ATOM     25  C3  non d ame      -7.519  20.444  67.307  0.00  0.00    -0.029 C 
ATOM     26  H2  non d ame      -7.005  20.177  66.384  0.00  0.00     0.036 H 
ATOM     27  H3  non d ame      -7.792  21.499  67.278  0.00  0.00     0.036 H 
ATOM     28  H4  non d ame      -6.859  20.262  68.156  0.00  0.00     0.036 H 
ENDBRANCH  21  25
ENDBRANCH  16  19
ENDBRANCH  13  15
BRANCH  13  29
ATOM     29  C8  non d ame     -12.425  14.094  65.458  0.00  0.00    -0.049 C 
ATOM     30  H7  non d ame     -13.301  14.725  65.607  0.00  0.00     0.030 H 
ATOM     31  H8  non d ame     -11.937  14.364  64.522  0.00  0.00     0.030 H 
ATOM     32  H9  non d ame     -12.733  13.049  65.420  0.00  0.00     0.030 H 
ENDBRANCH  13  29
ENDBRANCH  10  13
ENDBRANCH   7   9
BRANCH   7  33
ATOM     33  C11 non d ame      -9.959   9.668  67.411  0.00  0.00    -0.033 C 
ATOM     34  H12 non d ame     -10.364   8.822  66.856  0.00  0.00     0.042 H 
BRANCH  33  35
ATOM     35  C12 non d ame      -8.665   9.179  68.134  0.00  0.00    -0.071 C 
ATOM     36  H13 non d ame      -8.806   8.154  68.477  0.00  0.00     0.028 H 
ATOM     37  H14 non d ame      -7.825   9.217  67.441  0.00  0.00     0.028 H 
ATOM     38  H15 non d ame      -8.462   9.823  68.988  0.00  0.00     0.028 H 
ENDBRANCH  33  35
BRANCH  33  39
ATOM     39  C13 non d ame     -11.039  10.134  68.439  0.00  0.00    -0.071 C 
ATOM     40  H16 non d ame     -11.480   9.262  68.922  0.00  0.00     0.028 H 
ATOM     41  H17 non d ame     -10.573  10.770  69.193  0.00  0.00     0.028 H 
ATOM     42  H18 non d ame     -11.816  10.695  67.921  0.00  0.00     0.028 H 
ENDBRANCH  33  39
ENDBRANCH   7  33
ENDBRANCH   4   7
ENDBRANCH   1   3
BRANCH   1  43
ATOM     43  C15 non d ame      -8.239   7.297  63.364  0.00  0.00     0.240 C 
ATOM     44  O5  non d ame      -7.890   6.641  62.438  0.00  0.00    -0.271 OA
ATOM     45  N6  non d ame      -8.595   6.633  64.651  0.00  0.00    -0.355 N 
ATOM     46  H46 non d ame      -8.889   7.182  65.446  0.00  0.00     0.162 HD
BRANCH  45  47
ATOM     47  C20 non d ame      -8.519   5.161  64.762  0.00  0.00     0.013 C 
ATOM     48  H30 non d ame      -8.257   4.764  63.781  0.00  0.00     0.072 H 
BRANCH  47  49
ATOM     49  C21 non d ame      -9.863   4.621  65.195  0.00  0.00    -0.038 C 
ATOM     50  H31 non d ame     -10.581   5.411  64.978  0.00  0.00     0.036 H 
ATOM     51  H32 non d ame      -9.959   3.648  64.712  0.00  0.00     0.036 H 
BRANCH  49  52
ATOM     52  C22 non d ame      -9.943   4.364  66.715  0.00  0.00     0.018 C 
ATOM     53  H33 non d ame     -10.734   3.625  66.849  0.00  0.00     0.048 H 
ATOM     54  H34 non d ame      -8.925   4.135  67.030  0.00  0.00     0.048 H 
BRANCH  52  55
ATOM     55  C23 non d ame     -10.376   5.608  67.540  0.00  0.00     0.259 C 
ATOM     56  O7  non d ame     -11.226   6.333  67.134  0.00  0.00    -0.265 OA
BRANCH  55  57
ATOM     57  O8  non d ame      -9.736   5.880  68.780  0.00  0.00    -0.317 OA
BRANCH  57  58
ATOM     58  C29 non d ame     -10.477   5.445  69.925  0.00  0.00     0.052 C 
ATOM     59  H47 non d ame     -11.329   4.893  69.531  0.00  0.00     0.082 H 
ATOM     60  H48 non d ame      -9.755   4.947  70.571  0.00  0.00     0.082 H 
BRANCH  58  61
ATOM     61  C35 non d ame     -11.005   6.706  70.660  0.00  0.00    -0.034 A 
ATOM     62  C30 non d ame     -12.374   6.909  70.802  0.00  0.00    -0.075 A 
ATOM     63  C31 non d ame     -12.847   8.042  71.463  0.00  0.00    -0.082 A 
ATOM     64  H49 non d ame     -13.076   6.180  70.398  0.00  0.00     0.084 H 
ATOM     65  C32 non d ame     -11.945   8.976  71.978  0.00  0.00    -0.083 A 
ATOM     66  H50 non d ame     -13.920   8.196  71.576  0.00  0.00     0.083 H 
ATOM     67  C33 non d ame     -10.580   8.772  71.830  0.00  0.00    -0.082 A 
ATOM     68  H51 non d ame     -12.307   9.864  72.497  0.00  0.00     0.083 H 
ATOM     69  C34 non d ame     -10.103   7.640  71.173  0.00  0.00    -0.075 A 
ATOM     70  H52 non d ame      -9.879   9.505  72.233  0.00  0.00     0.083 H 
ATOM     71  H53 non d ame      -9.028   7.486  71.062  0.00  0.00     0.084 H 
ENDBRANCH  58  61
ENDBRANCH  57  58
ENDBRANCH  55  57
ENDBRANCH  52  55
ENDBRANCH  49  52
ENDBRANCH  47  49
BRANCH  47  72
ATOM     72  C24 non d ame      -7.458   4.775  65.791  0.00  0.00    -0.039 C 
ATOM     73  H35 non d ame      -7.958   4.833  66.758  0.00  0.00     0.036 H 
ATOM     74  H36 non d ame      -7.050   3.825  65.445  0.00  0.00     0.036 H 
BRANCH  72  75
ATOM     75  C25 non d ame      -6.249   5.826  65.820  0.00  0.00    -0.001 C 
ATOM     76  C26 non d ame      -4.942   5.197  65.046  0.00  0.00    -0.035 C 
ATOM     77  C27 non d ame      -3.861   5.308  65.855  0.00  0.00     0.085 C 
ATOM     78  H38 non d ame      -5.060   4.121  64.926  0.00  0.00     0.036 H 
ATOM     79  H39 non d ame      -4.682   5.816  64.188  0.00  0.00     0.036 H 
ATOM     80  N5  non d ame      -4.375   5.655  67.232  0.00  0.00    -0.049 N 
ATOM     81  H40 non d ame      -3.414   4.314  65.883  0.00  0.00     0.075 H 
ATOM     82  H41 non d ame      -3.292   6.151  65.466  0.00  0.00     0.075 H 
ATOM     83  C28 non d ame      -5.909   6.115  67.031  0.00  0.00     0.193 C 
ATOM     84  H42 non d ame      -4.363   4.798  67.766  0.00  0.00     0.280 HD
ATOM     85  H43 non d ame      -3.839   6.452  67.545  0.00  0.00     0.280 HD
ATOM     86  H44 non d ame      -6.181   7.170  67.068  0.00  0.00     0.129 H 
ATOM     87  H37 non d ame      -6.566   6.827  65.525  0.00  0.00     0.046 H 
BRANCH  83  88
ATOM     88  O6  non d ame      -6.747   5.472  67.994  0.00  0.00    -0.369 OA
ATOM     89  H45 non d ame      -6.250   5.325  68.802  0.00  0.00     0.212 HD
ENDBRANCH  83  88
ENDBRANCH  72  75
ENDBRANCH  47  72
ENDBRANCH  45  47
ENDBRANCH   1  43
BRANCH   1  90
ATOM     90  C16 non d ame      -7.067   9.359  62.531  0.00  0.00    -0.035 C 
ATOM     91  H21 non d ame      -6.913   8.686  61.686  0.00  0.00     0.037 H 
ATOM     92  H22 non d ame      -7.250  10.419  62.356  0.00  0.00     0.037 H 
BRANCH  90  93
ATOM     93  C17 non d ame      -5.775   9.273  63.405  0.00  0.00    -0.059 C 
ATOM     94  H23 non d ame      -6.070   8.933  64.397  0.00  0.00     0.038 H 
BRANCH  93  95
ATOM     95  C18 non d ame      -4.746   8.244  62.835  0.00  0.00    -0.073 C 
ATOM     96  H24 non d ame      -3.779   8.395  63.315  0.00  0.00     0.028 H 
ATOM     97  H25 non d ame      -5.097   7.232  63.034  0.00  0.00     0.028 H 
ATOM     98  H26 non d ame      -4.645   8.390  61.759  0.00  0.00     0.028 H 
ENDBRANCH  93  95
BRANCH  93  99
ATOM     99  C19 non d ame      -5.132  10.652  63.570  0.00  0.00    -0.073 C 
ATOM    100  H27 non d ame      -4.651  10.714  64.546  0.00  0.00     0.028 H 
ATOM    101  H28 non d ame      -4.388  10.801  62.786  0.00  0.00     0.028 H 
ATOM    102  H29 non d ame      -5.899  11.423  63.492  0.00  0.00     0.028 H 
ENDBRANCH  93  99
ENDBRANCH  90  93
ENDBRANCH   1  90
TORSDOF 26
ENDMDL
MODEL 15
REMARK VINA RESULT:      -6.3      2.535      6.122
REMARK  26 active torsions:
REMARK  status: ('A' for Active; 'I' for Inactive)
REMARK    1  A    between atoms: C2_2  and  C3_3 
REMARK    2  A    between atoms: C4_6  and  C5_7 
REMARK       I    between atoms: C5_7  and  N2_9 
REMARK    3  A    between atoms: N2_9  and  C6_10 
REMARK    4  A    between atoms: C6_10  and  C7_11 
REMARK    5  A    between atoms: C6_10  and  C8_13 
REMARK       I    between atoms: C7_11  and  N3_14 
REMARK    6  A    between atoms: N3_14  and  C9_15 
REMARK    7  A    between atoms: C9_15  and  C10_16 
REMARK    8  A    between atoms: C9_15  and  C11_18 
REMARK       I    between atoms: C10_16  and  N4_21 
REMARK    9  A    between atoms: C11_18  and  C12_19 
REMARK   10  A    between atoms: C11_18  and  C13_20 
REMARK   11  A    between atoms: N4_21  and  C14_22 
REMARK   12  A    between atoms: C14_22  and  C15_23 
REMARK   13  A    between atoms: C14_22  and  C16_25 
REMARK       I    between atoms: C15_23  and  N6_40 
REMARK   14  A    between atoms: C16_25  and  C17_26 
REMARK   15  A    between atoms: C17_26  and  C18_27 
REMARK   16  A    between atoms: C17_26  and  C19_28 
REMARK   17  A    between atoms: C20_29  and  C21_30 
REMARK   18  A    between atoms: C20_29  and  C24_33 
REMARK   19  A    between atoms: C20_29  and  N6_40 
REMARK   20  A    between atoms: C21_30  and  C22_31 
REMARK   21  A    between atoms: C22_31  and  C23_32 
REMARK   22  A    between atoms: C23_32  and  O8_43 
REMARK   23  A    between atoms: C24_33  and  C25_34 
REMARK   24  A    between atoms: C28_38  and  O6_39 
REMARK   25  A    between atoms: C29_42  and  O8_43 
REMARK   26  A    between atoms: C29_42  and  C35_49 
ROOT
ATOM      1  C14 non d ame     -10.440   9.924  68.681  0.00  0.00     0.089 C 
ATOM      2  H20 non d ame     -10.943   8.970  68.514  0.00  0.00     0.087 H 
ENDROOT
BRANCH   1   3
ATOM      3  N4  non d ame      -9.511  10.127  67.579  0.00  0.00    -0.346 N 
ATOM      4  C10 non d ame      -9.539   9.211  66.380  0.00  0.00     0.241 C 
ATOM      5  O4  non d ame     -10.316   8.315  66.327  0.00  0.00    -0.271 OA
ATOM      6  H19 non d ame      -8.856  10.893  67.643  0.00  0.00     0.163 HD
BRANCH   4   7
ATOM      7  C9  non d ame      -8.574   9.438  65.246  0.00  0.00     0.092 C 
ATOM      8  H11 non d ame      -7.820  10.162  65.556  0.00  0.00     0.088 H 
BRANCH   7   9
ATOM      9  N3  non d ame      -7.873   8.187  64.942  0.00  0.00    -0.346 N 
ATOM     10  C7  non d ame      -6.435   8.127  65.030  0.00  0.00     0.240 C 
ATOM     11  O3  non d ame      -5.825   9.076  65.343  0.00  0.00    -0.271 OA
ATOM     12  H10 non d ame      -8.385   7.360  64.670  0.00  0.00     0.163 HD
BRANCH  10  13
ATOM     13  C6  non d ame      -5.694   6.793  64.702  0.00  0.00     0.086 C 
ATOM     14  H6  non d ame      -4.679   6.766  65.097  0.00  0.00     0.086 H 
BRANCH  13  15
ATOM     15  N2  non d ame      -6.411   5.691  65.322  0.00  0.00    -0.343 N 
ATOM     16  C5  non d ame      -5.728   4.848  66.306  0.00  0.00     0.273 C 
ATOM     17  O2  non d ame      -4.601   5.063  66.589  0.00  0.00    -0.266 OA
ATOM     18  H5  non d ame      -7.374   5.513  65.072  0.00  0.00     0.163 HD
BRANCH  16  19
ATOM     19  C4  non d ame      -6.475   3.681  66.971  0.00  0.00     0.154 A 
ATOM     20  C1  non d ame      -7.869   3.613  67.285  0.00  0.00    -0.017 A 
ATOM     21  C2  non d ame      -8.047   2.343  67.877  0.00  0.00     0.077 A 
ATOM     22  H1  non d ame      -8.635   4.369  67.110  0.00  0.00     0.091 H 
ATOM     23  O1  non d ame      -6.885   1.758  67.894  0.00  0.00    -0.218 OA
ATOM     24  N1  non d ame      -5.952   2.519  67.370  0.00  0.00    -0.123 NA
BRANCH  21  25
ATOM     25  C3  non d ame      -9.357   1.767  68.397  0.00  0.00    -0.029 C 
ATOM     26  H2  non d ame      -9.170   1.211  69.316  0.00  0.00     0.036 H 
ATOM     27  H3  non d ame     -10.056   2.577  68.599  0.00  0.00     0.036 H 
ATOM     28  H4  non d ame      -9.783   1.097  67.648  0.00  0.00     0.036 H 
ENDBRANCH  21  25
ENDBRANCH  16  19
ENDBRANCH  13  15
BRANCH  13  29
ATOM     29  C8  non d ame      -5.641   6.598  63.208  0.00  0.00    -0.049 C 
ATOM     30  H7  non d ame      -5.730   5.536  62.977  0.00  0.00     0.030 H 
ATOM     31  H8  non d ame      -6.462   7.141  62.740  0.00  0.00     0.030 H 
ATOM     32  H9  non d ame      -4.692   6.974  62.826  0.00  0.00     0.030 H 
ENDBRANCH  13  29
ENDBRANCH  10  13
ENDBRANCH   7   9
BRANCH   7  33
ATOM     33  C11 non d ame      -9.357   9.911  63.987  0.00  0.00    -0.033 C 
ATOM     34  H12 non d ame      -9.973   9.078  63.650  0.00  0.00     0.042 H 
BRANCH  33  35
ATOM     35  C12 non d ame     -10.314  11.097  64.324  0.00  0.00    -0.071 C 
ATOM     36  H13 non d ame     -11.243  10.707  64.741  0.00  0.00     0.028 H 
ATOM     37  H14 non d ame      -9.837  11.753  65.050  0.00  0.00     0.028 H 
ATOM     38  H15 non d ame     -10.531  11.656  63.415  0.00  0.00     0.028 H 
ENDBRANCH  33  35
BRANCH  33  39
ATOM     39  C13 non d ame      -8.378  10.287  62.828  0.00  0.00    -0.071 C 
ATOM     40  H16 non d ame      -7.948   9.379  62.407  0.00  0.00     0.028 H 
ATOM     41  H17 non d ame      -8.924  10.824  62.051  0.00  0.00     0.028 H 
ATOM     42  H18 non d ame      -7.582  10.921  63.216  0.00  0.00     0.028 H 
ENDBRANCH  33  39
ENDBRANCH   7  33
ENDBRANCH   4   7
ENDBRANCH   1   3
BRANCH   1  43
ATOM     43  C15 non d ame     -11.436  11.117  68.714  0.00  0.00     0.240 C 
ATOM     44  O5  non d ame     -12.354  11.142  67.960  0.00  0.00    -0.271 OA
ATOM     45  N6  non d ame     -11.250  12.226  69.693  0.00  0.00    -0.355 N 
ATOM     46  H46 non d ame     -10.476  12.214  70.341  0.00  0.00     0.162 HD
BRANCH  45  47
ATOM     47  C20 non d ame     -12.207  13.354  69.713  0.00  0.00     0.013 C 
ATOM     48  H30 non d ame     -13.055  13.086  69.082  0.00  0.00     0.072 H 
BRANCH  47  49
ATOM     49  C21 non d ame     -11.531  14.593  69.169  0.00  0.00    -0.038 C 
ATOM     50  H31 non d ame     -12.335  15.224  68.792  0.00  0.00     0.036 H 
ATOM     51  H32 non d ame     -10.886  14.952  69.971  0.00  0.00     0.036 H 
BRANCH  49  52
ATOM     52  C22 non d ame     -10.609  14.294  67.967  0.00  0.00     0.018 C 
ATOM     53  H33 non d ame      -9.770  14.984  68.059  0.00  0.00     0.048 H 
ATOM     54  H34 non d ame     -10.434  13.218  67.989  0.00  0.00     0.048 H 
BRANCH  52  55
ATOM     55  C23 non d ame     -11.261  14.594  66.588  0.00  0.00     0.259 C 
ATOM     56  O7  non d ame     -12.206  13.974  66.220  0.00  0.00    -0.265 OA
BRANCH  55  57
ATOM     57  O8  non d ame     -10.706  15.610  65.762  0.00  0.00    -0.317 OA
BRANCH  57  58
ATOM     58  C29 non d ame      -9.429  16.084  66.201  0.00  0.00     0.052 C 
ATOM     59  H47 non d ame      -9.118  15.403  66.993  0.00  0.00     0.082 H 
ATOM     60  H48 non d ame      -8.826  16.183  65.299  0.00  0.00     0.082 H 
BRANCH  58  61
ATOM     61  C35 non d ame      -9.628  17.495  66.816  0.00  0.00    -0.034 A 
ATOM     62  C30 non d ame     -10.482  18.408  66.204  0.00  0.00    -0.075 A 
ATOM     63  C31 non d ame     -10.660  19.675  66.757  0.00  0.00    -0.082 A 
ATOM     64  H49 non d ame     -11.011  18.130  65.293  0.00  0.00     0.084 H 
ATOM     65  C32 non d ame      -9.978  20.030  67.924  0.00  0.00    -0.083 A 
ATOM     66  H50 non d ame     -11.332  20.387  66.277  0.00  0.00     0.083 H 
ATOM     67  C33 non d ame      -9.124  19.117  68.528  0.00  0.00    -0.082 A 
ATOM     68  H51 non d ame     -10.112  21.019  68.362  0.00  0.00     0.083 H 
ATOM     69  C34 non d ame      -8.945  17.848  67.981  0.00  0.00    -0.075 A 
ATOM     70  H52 non d ame      -8.592  19.398  69.438  0.00  0.00     0.083 H 
ATOM     71  H53 non d ame      -8.273  17.137  68.463  0.00  0.00     0.084 H 
ENDBRANCH  58  61
ENDBRANCH  57  58
ENDBRANCH  55  57
ENDBRANCH  52  55
ENDBRANCH  49  52
ENDBRANCH  47  49
BRANCH  47  72
ATOM     72  C24 non d ame     -12.671  13.612  71.145  0.00  0.00    -0.039 C 
ATOM     73  H35 non d ame     -13.679  13.200  71.201  0.00  0.00     0.036 H 
ATOM     74  H36 non d ame     -11.882  13.210  71.782  0.00  0.00     0.036 H 
BRANCH  72  75
ATOM     75  C25 non d ame     -12.781  15.178  71.460  0.00  0.00    -0.001 C 
ATOM     76  C26 non d ame     -11.718  15.586  72.647  0.00  0.00    -0.035 C 
ATOM     77  C27 non d ame     -12.382  16.269  73.610  0.00  0.00     0.085 C 
ATOM     78  H38 non d ame     -11.371  14.692  73.162  0.00  0.00     0.036 H 
ATOM     79  H39 non d ame     -10.998  16.313  72.270  0.00  0.00     0.036 H 
ATOM     80  N5  non d ame     -13.857  16.080  73.349  0.00  0.00    -0.049 N 
ATOM     81  H40 non d ame     -12.121  15.777  74.548  0.00  0.00     0.075 H 
ATOM     82  H41 non d ame     -12.125  17.316  73.454  0.00  0.00     0.075 H 
ATOM     83  C28 non d ame     -13.971  15.496  71.848  0.00  0.00     0.193 C 
ATOM     84  H42 non d ame     -14.174  15.372  73.995  0.00  0.00     0.280 HD
ATOM     85  H43 non d ame     -14.271  17.001  73.366  0.00  0.00     0.280 HD
ATOM     86  H44 non d ame     -14.284  16.137  71.025  0.00  0.00     0.129 H 
ATOM     87  H37 non d ame     -12.768  15.783  70.553  0.00  0.00     0.046 H 
BRANCH  83  88
ATOM     88  O6  non d ame     -14.862  14.378  71.820  0.00  0.00    -0.369 OA
ATOM     89  H45 non d ame     -15.757  14.679  71.996  0.00  0.00     0.212 HD
ENDBRANCH  83  88
ENDBRANCH  72  75
ENDBRANCH  47  72
ENDBRANCH  45  47
ENDBRANCH   1  43
BRANCH   1  90
ATOM     90  C16 non d ame      -9.659   9.872  69.984  0.00  0.00    -0.035 C 
ATOM     91  H21 non d ame      -8.636   9.622  69.698  0.00  0.00     0.037 H 
ATOM     92  H22 non d ame      -9.869  10.818  70.483  0.00  0.00     0.037 H 
BRANCH  90  93
ATOM     93  C17 non d ame     -10.133   8.745  70.955  0.00  0.00    -0.059 C 
ATOM     94  H23 non d ame      -9.334   8.573  71.676  0.00  0.00     0.038 H 
BRANCH  93  95
ATOM     95  C18 non d ame     -11.414   9.152  71.751  0.00  0.00    -0.073 C 
ATOM     96  H24 non d ame     -12.289   9.043  71.111  0.00  0.00     0.028 H 
ATOM     97  H25 non d ame     -11.519   8.508  72.624  0.00  0.00     0.028 H 
ATOM     98  H26 non d ame     -11.325  10.190  72.074  0.00  0.00     0.028 H 
ENDBRANCH  93  95
BRANCH  93  99
ATOM     99  C19 non d ame     -10.356   7.431  70.201  0.00  0.00    -0.073 C 
ATOM    100  H27 non d ame      -9.849   7.475  69.236  0.00  0.00     0.028 H 
ATOM    101  H28 non d ame      -9.952   6.605  70.787  0.00  0.00     0.028 H 
ATOM    102  H29 non d ame     -11.423   7.277  70.046  0.00  0.00     0.028 H 
ENDBRANCH  93  99
ENDBRANCH  90  93
ENDBRANCH   1  90
TORSDOF 26
ENDMDL
MODEL 16
REMARK VINA RESULT:      -6.3      1.998      2.911
REMARK  26 active torsions:
REMARK  status: ('A' for Active; 'I' for Inactive)
REMARK    1  A    between atoms: C2_2  and  C3_3 
REMARK    2  A    between atoms: C4_6  and  C5_7 
REMARK       I    between atoms: C5_7  and  N2_9 
REMARK    3  A    between atoms: N2_9  and  C6_10 
REMARK    4  A    between atoms: C6_10  and  C7_11 
REMARK    5  A    between atoms: C6_10  and  C8_13 
REMARK       I    between atoms: C7_11  and  N3_14 
REMARK    6  A    between atoms: N3_14  and  C9_15 
REMARK    7  A    between atoms: C9_15  and  C10_16 
REMARK    8  A    between atoms: C9_15  and  C11_18 
REMARK       I    between atoms: C10_16  and  N4_21 
REMARK    9  A    between atoms: C11_18  and  C12_19 
REMARK   10  A    between atoms: C11_18  and  C13_20 
REMARK   11  A    between atoms: N4_21  and  C14_22 
REMARK   12  A    between atoms: C14_22  and  C15_23 
REMARK   13  A    between atoms: C14_22  and  C16_25 
REMARK       I    between atoms: C15_23  and  N6_40 
REMARK   14  A    between atoms: C16_25  and  C17_26 
REMARK   15  A    between atoms: C17_26  and  C18_27 
REMARK   16  A    between atoms: C17_26  and  C19_28 
REMARK   17  A    between atoms: C20_29  and  C21_30 
REMARK   18  A    between atoms: C20_29  and  C24_33 
REMARK   19  A    between atoms: C20_29  and  N6_40 
REMARK   20  A    between atoms: C21_30  and  C22_31 
REMARK   21  A    between atoms: C22_31  and  C23_32 
REMARK   22  A    between atoms: C23_32  and  O8_43 
REMARK   23  A    between atoms: C24_33  and  C25_34 
REMARK   24  A    between atoms: C28_38  and  O6_39 
REMARK   25  A    between atoms: C29_42  and  O8_43 
REMARK   26  A    between atoms: C29_42  and  C35_49 
ROOT
ATOM      1  C14 non d ame      -7.628   9.817  68.644  0.00  0.00     0.089 C 
ATOM      2  H20 non d ame      -7.761  10.254  69.634  0.00  0.00     0.087 H 
ENDROOT
BRANCH   1   3
ATOM      3  N4  non d ame      -8.397   8.582  68.603  0.00  0.00    -0.346 N 
ATOM      4  C10 non d ame      -9.790   8.533  69.182  0.00  0.00     0.241 C 
ATOM      5  O4  non d ame     -10.269   9.500  69.676  0.00  0.00    -0.271 OA
ATOM      6  H19 non d ame      -7.971   7.770  68.181  0.00  0.00     0.163 HD
BRANCH   4   7
ATOM      7  C9  non d ame     -10.574   7.248  69.127  0.00  0.00     0.092 C 
ATOM      8  H11 non d ame     -11.502   7.416  68.580  0.00  0.00     0.088 H 
BRANCH   7   9
ATOM      9  N3  non d ame      -9.810   6.241  68.383  0.00  0.00    -0.346 N 
ATOM     10  C7  non d ame     -10.259   5.813  67.081  0.00  0.00     0.240 C 
ATOM     11  O3  non d ame     -11.232   6.267  66.616  0.00  0.00    -0.271 OA
ATOM     12  H10 non d ame      -8.969   5.839  68.771  0.00  0.00     0.163 HD
BRANCH  10  13
ATOM     13  C6  non d ame      -9.444   4.739  66.296  0.00  0.00     0.086 C 
ATOM     14  H6  non d ame      -9.986   4.341  65.438  0.00  0.00     0.086 H 
BRANCH  13  15
ATOM     15  N2  non d ame      -8.234   5.353  65.774  0.00  0.00    -0.343 N 
ATOM     16  C5  non d ame      -8.076   5.524  64.328  0.00  0.00     0.273 C 
ATOM     17  O2  non d ame      -8.927   5.160  63.593  0.00  0.00    -0.266 OA
ATOM     18  H5  non d ame      -7.510   5.659  66.410  0.00  0.00     0.163 HD
BRANCH  16  19
ATOM     19  C4  non d ame      -6.803   6.173  63.764  0.00  0.00     0.154 A 
ATOM     20  C1  non d ame      -6.503   7.570  63.692  0.00  0.00    -0.017 A 
ATOM     21  C2  non d ame      -5.224   7.638  63.098  0.00  0.00     0.077 A 
ATOM     22  H1  non d ame      -7.119   8.407  64.022  0.00  0.00     0.091 H 
ATOM     23  O1  non d ame      -4.841   6.417  62.862  0.00  0.00    -0.218 OA
ATOM     24  N1  non d ame      -5.746   5.544  63.242  0.00  0.00    -0.123 NA
BRANCH  21  25
ATOM     25  C3  non d ame      -4.438   8.906  62.792  0.00  0.00    -0.029 C 
ATOM     26  H2  non d ame      -3.420   8.803  63.169  0.00  0.00     0.036 H 
ATOM     27  H3  non d ame      -4.411   9.066  61.715  0.00  0.00     0.036 H 
ATOM     28  H4  non d ame      -4.919   9.757  63.274  0.00  0.00     0.036 H 
ENDBRANCH  21  25
ENDBRANCH  16  19
ENDBRANCH  13  15
BRANCH  13  29
ATOM     29  C8  non d ame      -9.088   3.600  67.218  0.00  0.00    -0.049 C 
ATOM     30  H7  non d ame      -9.963   2.966  67.366  0.00  0.00     0.030 H 
ATOM     31  H8  non d ame      -8.284   3.012  66.777  0.00  0.00     0.030 H 
ATOM     32  H9  non d ame      -8.763   3.999  68.179  0.00  0.00     0.030 H 
ENDBRANCH  13  29
ENDBRANCH  10  13
ENDBRANCH   7   9
BRANCH   7  33
ATOM     33  C11 non d ame     -10.831   6.736  70.574  0.00  0.00    -0.033 C 
ATOM     34  H12 non d ame     -10.229   7.342  71.249  0.00  0.00     0.042 H 
BRANCH  33  35
ATOM     35  C12 non d ame     -12.326   6.918  70.984  0.00  0.00    -0.071 C 
ATOM     36  H13 non d ame     -12.490   7.946  71.310  0.00  0.00     0.028 H 
ATOM     37  H14 non d ame     -12.966   6.701  70.130  0.00  0.00     0.028 H 
ATOM     38  H15 non d ame     -12.563   6.237  71.800  0.00  0.00     0.028 H 
ENDBRANCH  33  35
BRANCH  33  39
ATOM     39  C13 non d ame     -10.381   5.247  70.729  0.00  0.00    -0.071 C 
ATOM     40  H16 non d ame      -9.293   5.191  70.688  0.00  0.00     0.028 H 
ATOM     41  H17 non d ame     -10.729   4.860  71.687  0.00  0.00     0.028 H 
ATOM     42  H18 non d ame     -10.807   4.653  69.921  0.00  0.00     0.028 H 
ENDBRANCH  33  39
ENDBRANCH   7  33
ENDBRANCH   4   7
ENDBRANCH   1   3
BRANCH   1  43
ATOM     43  C15 non d ame      -8.141  10.755  67.514  0.00  0.00     0.240 C 
ATOM     44  O5  non d ame      -7.745  10.614  66.403  0.00  0.00    -0.271 OA
ATOM     45  N6  non d ame      -9.133  11.826  67.817  0.00  0.00    -0.355 N 
ATOM     46  H46 non d ame      -9.480  11.953  68.757  0.00  0.00     0.162 HD
BRANCH  45  47
ATOM     47  C20 non d ame      -9.611  12.710  66.732  0.00  0.00     0.013 C 
ATOM     48  H30 non d ame      -9.210  12.334  65.791  0.00  0.00     0.072 H 
BRANCH  47  49
ATOM     49  C21 non d ame      -9.117  14.117  66.978  0.00  0.00    -0.038 C 
ATOM     50  H31 non d ame      -8.031  14.064  66.908  0.00  0.00     0.036 H 
ATOM     51  H32 non d ame      -9.678  14.751  66.290  0.00  0.00     0.036 H 
BRANCH  49  52
ATOM     52  C22 non d ame      -9.439  14.625  68.401  0.00  0.00     0.018 C 
ATOM     53  H33 non d ame     -10.325  14.074  68.718  0.00  0.00     0.048 H 
ATOM     54  H34 non d ame      -8.511  14.534  68.964  0.00  0.00     0.048 H 
BRANCH  52  55
ATOM     55  C23 non d ame      -9.829  16.128  68.456  0.00  0.00     0.259 C 
ATOM     56  O7  non d ame      -9.085  16.960  68.047  0.00  0.00    -0.265 OA
BRANCH  55  57
ATOM     57  O8  non d ame     -11.082  16.503  69.016  0.00  0.00    -0.317 OA
BRANCH  57  58
ATOM     58  C29 non d ame     -12.013  15.423  69.131  0.00  0.00     0.052 C 
ATOM     59  H47 non d ame     -12.906  15.745  68.596  0.00  0.00     0.082 H 
ATOM     60  H48 non d ame     -11.474  14.533  68.806  0.00  0.00     0.082 H 
BRANCH  58  61
ATOM     61  C35 non d ame     -12.372  15.259  70.632  0.00  0.00    -0.034 A 
ATOM     62  C30 non d ame     -13.165  14.194  71.047  0.00  0.00    -0.075 A 
ATOM     63  C31 non d ame     -13.486  14.047  72.396  0.00  0.00    -0.082 A 
ATOM     64  H49 non d ame     -13.534  13.474  70.316  0.00  0.00     0.084 H 
ATOM     65  C32 non d ame     -13.015  14.972  73.330  0.00  0.00    -0.083 A 
ATOM     66  H50 non d ame     -14.105  13.209  72.718  0.00  0.00     0.083 H 
ATOM     67  C33 non d ame     -12.227  16.036  72.911  0.00  0.00    -0.082 A 
ATOM     68  H51 non d ame     -13.261  14.864  74.387  0.00  0.00     0.083 H 
ATOM     69  C34 non d ame     -11.901  16.185  71.565  0.00  0.00    -0.075 A 
ATOM     70  H52 non d ame     -11.862  16.757  73.644  0.00  0.00     0.083 H 
ATOM     71  H53 non d ame     -11.280  17.023  71.244  0.00  0.00     0.084 H 
ENDBRANCH  58  61
ENDBRANCH  57  58
ENDBRANCH  55  57
ENDBRANCH  52  55
ENDBRANCH  49  52
ENDBRANCH  47  49
BRANCH  47  72
ATOM     72  C24 non d ame     -11.138  12.704  66.697  0.00  0.00    -0.039 C 
ATOM     73  H35 non d ame     -11.445  12.108  67.557  0.00  0.00     0.036 H 
ATOM     74  H36 non d ame     -11.431  13.752  66.629  0.00  0.00     0.036 H 
BRANCH  72  75
ATOM     75  C25 non d ame     -11.699  11.970  65.388  0.00  0.00    -0.001 C 
ATOM     76  C26 non d ame     -10.450  11.369  64.505  0.00  0.00    -0.035 C 
ATOM     77  C27 non d ame     -10.582  11.786  63.222  0.00  0.00     0.085 C 
ATOM     78  H38 non d ame      -9.513  11.824  64.824  0.00  0.00     0.036 H 
ATOM     79  H39 non d ame     -10.532  10.285  64.430  0.00  0.00     0.036 H 
ATOM     80  N5  non d ame     -11.622  12.881  63.220  0.00  0.00    -0.049 N 
ATOM     81  H40 non d ame      -9.616  12.214  62.953  0.00  0.00     0.075 H 
ATOM     82  H41 non d ame     -10.970  10.927  62.676  0.00  0.00     0.075 H 
ATOM     83  C28 non d ame     -12.372  12.785  64.646  0.00  0.00     0.193 C 
ATOM     84  H42 non d ame     -11.118  13.754  63.179  0.00  0.00     0.280 HD
ATOM     85  H43 non d ame     -12.284  12.646  62.494  0.00  0.00     0.280 HD
ATOM     86  H44 non d ame     -13.367  12.348  64.722  0.00  0.00     0.129 H 
ATOM     87  H37 non d ame     -12.518  11.288  65.617  0.00  0.00     0.046 H 
BRANCH  83  88
ATOM     88  O6  non d ame     -12.481  14.083  65.234  0.00  0.00    -0.369 OA
ATOM     89  H45 non d ame     -11.614  14.375  65.527  0.00  0.00     0.212 HD
ENDBRANCH  83  88
ENDBRANCH  72  75
ENDBRANCH  47  72
ENDBRANCH  45  47
ENDBRANCH   1  43
BRANCH   1  90
ATOM     90  C16 non d ame      -6.161   9.495  68.415  0.00  0.00    -0.035 C 
ATOM     91  H21 non d ame      -6.013   8.502  68.842  0.00  0.00     0.037 H 
ATOM     92  H22 non d ame      -5.991   9.662  67.352  0.00  0.00     0.037 H 
BRANCH  90  93
ATOM     93  C17 non d ame      -5.184  10.450  69.173  0.00  0.00    -0.059 C 
ATOM     94  H23 non d ame      -4.409   9.834  69.630  0.00  0.00     0.038 H 
BRANCH  93  95
ATOM     95  C18 non d ame      -4.482  11.461  68.211  0.00  0.00    -0.073 C 
ATOM     96  H24 non d ame      -3.636  10.973  67.726  0.00  0.00     0.028 H 
ATOM     97  H25 non d ame      -5.192  11.793  67.454  0.00  0.00     0.028 H 
ATOM     98  H26 non d ame      -4.130  12.320  68.781  0.00  0.00     0.028 H 
ENDBRANCH  93  95
BRANCH  93  99
ATOM     99  C19 non d ame      -5.906  11.186  70.305  0.00  0.00    -0.073 C 
ATOM    100  H27 non d ame      -6.971  10.955  70.267  0.00  0.00     0.028 H 
ATOM    101  H28 non d ame      -5.497  10.866  71.263  0.00  0.00     0.028 H 
ATOM    102  H29 non d ame      -5.762  12.260  70.190  0.00  0.00     0.028 H 
ENDBRANCH  93  99
ENDBRANCH  90  93
ENDBRANCH   1  90
TORSDOF 26
ENDMDL
MODEL 17
REMARK VINA RESULT:      -6.2      2.610      7.771
REMARK  26 active torsions:
REMARK  status: ('A' for Active; 'I' for Inactive)
REMARK    1  A    between atoms: C2_2  and  C3_3 
REMARK    2  A    between atoms: C4_6  and  C5_7 
REMARK       I    between atoms: C5_7  and  N2_9 
REMARK    3  A    between atoms: N2_9  and  C6_10 
REMARK    4  A    between atoms: C6_10  and  C7_11 
REMARK    5  A    between atoms: C6_10  and  C8_13 
REMARK       I    between atoms: C7_11  and  N3_14 
REMARK    6  A    between atoms: N3_14  and  C9_15 
REMARK    7  A    between atoms: C9_15  and  C10_16 
REMARK    8  A    between atoms: C9_15  and  C11_18 
REMARK       I    between atoms: C10_16  and  N4_21 
REMARK    9  A    between atoms: C11_18  and  C12_19 
REMARK   10  A    between atoms: C11_18  and  C13_20 
REMARK   11  A    between atoms: N4_21  and  C14_22 
REMARK   12  A    between atoms: C14_22  and  C15_23 
REMARK   13  A    between atoms: C14_22  and  C16_25 
REMARK       I    between atoms: C15_23  and  N6_40 
REMARK   14  A    between atoms: C16_25  and  C17_26 
REMARK   15  A    between atoms: C17_26  and  C18_27 
REMARK   16  A    between atoms: C17_26  and  C19_28 
REMARK   17  A    between atoms: C20_29  and  C21_30 
REMARK   18  A    between atoms: C20_29  and  C24_33 
REMARK   19  A    between atoms: C20_29  and  N6_40 
REMARK   20  A    between atoms: C21_30  and  C22_31 
REMARK   21  A    between atoms: C22_31  and  C23_32 
REMARK   22  A    between atoms: C23_32  and  O8_43 
REMARK   23  A    between atoms: C24_33  and  C25_34 
REMARK   24  A    between atoms: C28_38  and  O6_39 
REMARK   25  A    between atoms: C29_42  and  O8_43 
REMARK   26  A    between atoms: C29_42  and  C35_49 
ROOT
ATOM      1  C14 non d ame      -9.180   6.073  68.121  0.00  0.00     0.089 C 
ATOM      2  H20 non d ame     -10.124   5.926  67.594  0.00  0.00     0.087 H 
ENDROOT
BRANCH   1   3
ATOM      3  N4  non d ame      -8.624   7.342  67.679  0.00  0.00    -0.346 N 
ATOM      4  C10 non d ame      -9.503   8.366  67.005  0.00  0.00     0.241 C 
ATOM      5  O4  non d ame     -10.656   8.144  66.827  0.00  0.00    -0.271 OA
ATOM      6  H19 non d ame      -7.640   7.512  67.836  0.00  0.00     0.163 HD
BRANCH   4   7
ATOM      7  C9  non d ame      -8.912   9.678  66.558  0.00  0.00     0.092 C 
ATOM      8  H11 non d ame      -8.425   9.541  65.592  0.00  0.00     0.088 H 
BRANCH   7   9
ATOM      9  N3  non d ame      -9.986  10.658  66.366  0.00  0.00    -0.346 N 
ATOM     10  C7  non d ame     -10.300  11.133  65.042  0.00  0.00     0.240 C 
ATOM     11  O3  non d ame      -9.699  10.739  64.118  0.00  0.00    -0.271 OA
ATOM     12  H10 non d ame     -10.513  11.008  67.154  0.00  0.00     0.163 HD
BRANCH  10  13
ATOM     13  C6  non d ame     -11.442  12.179  64.845  0.00  0.00     0.086 C 
ATOM     14  H6  non d ame     -12.241  12.075  65.579  0.00  0.00     0.086 H 
BRANCH  13  15
ATOM     15  N2  non d ame     -10.892  13.514  65.016  0.00  0.00    -0.343 N 
ATOM     16  C5  non d ame     -11.427  14.386  66.064  0.00  0.00     0.273 C 
ATOM     17  O2  non d ame     -12.301  14.005  66.762  0.00  0.00    -0.266 OA
ATOM     18  H5  non d ame     -10.147  13.832  64.412  0.00  0.00     0.163 HD
BRANCH  16  19
ATOM     19  C4  non d ame     -10.855  15.799  66.256  0.00  0.00     0.154 A 
ATOM     20  C1  non d ame     -10.609  16.472  67.495  0.00  0.00    -0.017 A 
ATOM     21  C2  non d ame     -10.085  17.731  67.127  0.00  0.00     0.077 A 
ATOM     22  H1  non d ame     -10.783  16.103  68.506  0.00  0.00     0.091 H 
ATOM     23  O1  non d ame     -10.038  17.767  65.827  0.00  0.00    -0.218 OA
ATOM     24  N1  non d ame     -10.482  16.650  65.296  0.00  0.00    -0.123 NA
BRANCH  21  25
ATOM     25  C3  non d ame      -9.654  18.841  68.077  0.00  0.00    -0.029 C 
ATOM     26  H2  non d ame      -9.513  18.429  69.077  0.00  0.00     0.036 H 
ATOM     27  H3  non d ame      -8.718  19.275  67.728  0.00  0.00     0.036 H 
ATOM     28  H4  non d ame     -10.424  19.613  68.108  0.00  0.00     0.036 H 
ENDBRANCH  21  25
ENDBRANCH  16  19
ENDBRANCH  13  15
BRANCH  13  29
ATOM     29  C8  non d ame     -12.027  12.034  63.464  0.00  0.00    -0.049 C 
ATOM     30  H7  non d ame     -13.069  11.723  63.542  0.00  0.00     0.030 H 
ATOM     31  H8  non d ame     -11.970  12.989  62.942  0.00  0.00     0.030 H 
ATOM     32  H9  non d ame     -11.466  11.283  62.908  0.00  0.00     0.030 H 
ENDBRANCH  13  29
ENDBRANCH  10  13
ENDBRANCH   7   9
BRANCH   7  33
ATOM     33  C11 non d ame      -7.926  10.198  67.643  0.00  0.00    -0.033 C 
ATOM     34  H12 non d ame      -7.291   9.364  67.938  0.00  0.00     0.042 H 
BRANCH  33  35
ATOM     35  C12 non d ame      -6.997  11.318  67.077  0.00  0.00    -0.071 C 
ATOM     36  H13 non d ame      -6.422  10.924  66.239  0.00  0.00     0.028 H 
ATOM     37  H14 non d ame      -7.605  12.157  66.739  0.00  0.00     0.028 H 
ATOM     38  H15 non d ame      -6.317  11.653  67.859  0.00  0.00     0.028 H 
ENDBRANCH  33  35
BRANCH  33  39
ATOM     39  C13 non d ame      -8.697  10.690  68.911  0.00  0.00    -0.071 C 
ATOM     40  H16 non d ame      -8.546   9.982  69.725  0.00  0.00     0.028 H 
ATOM     41  H17 non d ame      -8.321  11.670  69.207  0.00  0.00     0.028 H 
ATOM     42  H18 non d ame      -9.760  10.763  68.684  0.00  0.00     0.028 H 
ENDBRANCH  33  39
ENDBRANCH   7  33
ENDBRANCH   4   7
ENDBRANCH   1   3
BRANCH   1  43
ATOM     43  C15 non d ame      -9.371   6.127  69.663  0.00  0.00     0.240 C 
ATOM     44  O5  non d ame      -9.362   5.122  70.296  0.00  0.00    -0.271 OA
ATOM     45  N6  non d ame      -9.555   7.436  70.354  0.00  0.00    -0.355 N 
ATOM     46  H46 non d ame      -9.560   8.297  69.827  0.00  0.00     0.162 HD
BRANCH  45  47
ATOM     47  C20 non d ame      -9.734   7.471  71.821  0.00  0.00     0.013 C 
ATOM     48  H30 non d ame     -10.090   6.492  72.140  0.00  0.00     0.072 H 
BRANCH  47  49
ATOM     49  C21 non d ame     -10.754   8.530  72.175  0.00  0.00    -0.038 C 
ATOM     50  H31 non d ame     -11.245   8.175  73.081  0.00  0.00     0.036 H 
ATOM     51  H32 non d ame     -10.207   9.474  72.186  0.00  0.00     0.036 H 
BRANCH  49  52
ATOM     52  C22 non d ame     -11.860   8.678  71.108  0.00  0.00     0.018 C 
ATOM     53  H33 non d ame     -11.401   9.220  70.280  0.00  0.00     0.048 H 
ATOM     54  H34 non d ame     -12.254   7.675  70.950  0.00  0.00     0.048 H 
BRANCH  52  55
ATOM     55  C23 non d ame     -13.064   9.545  71.570  0.00  0.00     0.259 C 
ATOM     56  O7  non d ame     -14.145   9.064  71.681  0.00  0.00    -0.265 OA
BRANCH  55  57
ATOM     57  O8  non d ame     -12.864  10.926  71.846  0.00  0.00    -0.317 OA
BRANCH  57  58
ATOM     58  C29 non d ame     -12.689  11.733  70.677  0.00  0.00     0.052 C 
ATOM     59  H47 non d ame     -11.688  11.509  70.311  0.00  0.00     0.082 H 
ATOM     60  H48 non d ame     -13.557  11.533  70.049  0.00  0.00     0.082 H 
BRANCH  58  61
ATOM     61  C35 non d ame     -12.732  13.222  71.113  0.00  0.00    -0.034 A 
ATOM     62  C30 non d ame     -11.984  14.172  70.426  0.00  0.00    -0.075 A 
ATOM     63  C31 non d ame     -12.023  15.509  70.818  0.00  0.00    -0.082 A 
ATOM     64  H49 non d ame     -11.367  13.868  69.579  0.00  0.00     0.084 H 
ATOM     65  C32 non d ame     -12.811  15.894  71.905  0.00  0.00    -0.083 A 
ATOM     66  H50 non d ame     -11.437  16.251  70.275  0.00  0.00     0.083 H 
ATOM     67  C33 non d ame     -13.554  14.942  72.591  0.00  0.00    -0.082 A 
ATOM     68  H51 non d ame     -12.848  16.938  72.218  0.00  0.00     0.083 H 
ATOM     69  C34 non d ame     -13.519  13.605  72.200  0.00  0.00    -0.075 A 
ATOM     70  H52 non d ame     -14.167  15.247  73.440  0.00  0.00     0.083 H 
ATOM     71  H53 non d ame     -14.107  12.864  72.744  0.00  0.00     0.084 H 
ENDBRANCH  58  61
ENDBRANCH  57  58
ENDBRANCH  55  57
ENDBRANCH  52  55
ENDBRANCH  49  52
ENDBRANCH  47  49
BRANCH  47  72
ATOM     72  C24 non d ame      -8.403   7.798  72.495  0.00  0.00    -0.039 C 
ATOM     73  H35 non d ame      -7.648   7.674  71.719  0.00  0.00     0.036 H 
ATOM     74  H36 non d ame      -8.547   8.771  72.965  0.00  0.00     0.036 H 
BRANCH  72  75
ATOM     75  C25 non d ame      -8.058   6.756  73.662  0.00  0.00    -0.001 C 
ATOM     76  C26 non d ame      -9.296   5.690  73.845  0.00  0.00    -0.035 C 
ATOM     77  C27 non d ame      -9.647   5.650  75.153  0.00  0.00     0.085 C 
ATOM     78  H38 non d ame     -10.192   6.068  73.353  0.00  0.00     0.036 H 
ATOM     79  H39 non d ame      -8.951   4.676  73.643  0.00  0.00     0.036 H 
ATOM     80  N5  non d ame      -8.984   6.829  75.824  0.00  0.00    -0.049 N 
ATOM     81  H40 non d ame     -10.728   5.793  75.170  0.00  0.00     0.075 H 
ATOM     82  H41 non d ame      -9.213   4.730  75.543  0.00  0.00     0.075 H 
ATOM     83  C28 non d ame      -7.866   7.359  74.787  0.00  0.00     0.193 C 
ATOM     84  H42 non d ame      -9.694   7.539  75.923  0.00  0.00     0.280 HD
ATOM     85  H43 non d ame      -8.516   6.466  76.643  0.00  0.00     0.280 HD
ATOM     86  H44 non d ame      -6.811   7.144  74.951  0.00  0.00     0.129 H 
ATOM     87  H37 non d ame      -7.056   6.339  73.559  0.00  0.00     0.046 H 
BRANCH  83  88
ATOM     88  O6  non d ame      -7.949   8.780  74.657  0.00  0.00    -0.369 OA
ATOM     89  H45 non d ame      -7.452   9.195  75.366  0.00  0.00     0.212 HD
ENDBRANCH  83  88
ENDBRANCH  72  75
ENDBRANCH  47  72
ENDBRANCH  45  47
ENDBRANCH   1  43
BRANCH   1  90
ATOM     90  C16 non d ame      -8.213   4.956  67.764  0.00  0.00    -0.035 C 
ATOM     91  H21 non d ame      -7.440   5.427  67.155  0.00  0.00     0.037 H 
ATOM     92  H22 non d ame      -7.949   4.488  68.712  0.00  0.00     0.037 H 
BRANCH  90  93
ATOM     93  C17 non d ame      -8.847   3.835  66.880  0.00  0.00    -0.059 C 
ATOM     94  H23 non d ame      -8.079   3.483  66.192  0.00  0.00     0.038 H 
BRANCH  93  95
ATOM     95  C18 non d ame      -9.322   2.613  67.730  0.00  0.00    -0.073 C 
ATOM     96  H24 non d ame     -10.306   2.294  67.388  0.00  0.00     0.028 H 
ATOM     97  H25 non d ame      -8.613   1.793  67.612  0.00  0.00     0.028 H 
ATOM     98  H26 non d ame      -9.376   2.899  68.780  0.00  0.00     0.028 H 
ENDBRANCH  93  95
BRANCH  93  99
ATOM     99  C19 non d ame      -9.997   4.390  66.034  0.00  0.00    -0.073 C 
ATOM    100  H27 non d ame     -10.887   4.494  66.656  0.00  0.00     0.028 H 
ATOM    101  H28 non d ame      -9.715   5.364  65.635  0.00  0.00     0.028 H 
ATOM    102  H29 non d ame     -10.205   3.706  65.211  0.00  0.00     0.028 H 
ENDBRANCH  93  99
ENDBRANCH  90  93
ENDBRANCH   1  90
TORSDOF 26
ENDMDL
MODEL 18
REMARK VINA RESULT:      -6.2      2.402      8.003
REMARK  26 active torsions:
REMARK  status: ('A' for Active; 'I' for Inactive)
REMARK    1  A    between atoms: C2_2  and  C3_3 
REMARK    2  A    between atoms: C4_6  and  C5_7 
REMARK       I    between atoms: C5_7  and  N2_9 
REMARK    3  A    between atoms: N2_9  and  C6_10 
REMARK    4  A    between atoms: C6_10  and  C7_11 
REMARK    5  A    between atoms: C6_10  and  C8_13 
REMARK       I    between atoms: C7_11  and  N3_14 
REMARK    6  A    between atoms: N3_14  and  C9_15 
REMARK    7  A    between atoms: C9_15  and  C10_16 
REMARK    8  A    between atoms: C9_15  and  C11_18 
REMARK       I    between atoms: C10_16  and  N4_21 
REMARK    9  A    between atoms: C11_18  and  C12_19 
REMARK   10  A    between atoms: C11_18  and  C13_20 
REMARK   11  A    between atoms: N4_21  and  C14_22 
REMARK   12  A    between atoms: C14_22  and  C15_23 
REMARK   13  A    between atoms: C14_22  and  C16_25 
REMARK       I    between atoms: C15_23  and  N6_40 
REMARK   14  A    between atoms: C16_25  and  C17_26 
REMARK   15  A    between atoms: C17_26  and  C18_27 
REMARK   16  A    between atoms: C17_26  and  C19_28 
REMARK   17  A    between atoms: C20_29  and  C21_30 
REMARK   18  A    between atoms: C20_29  and  C24_33 
REMARK   19  A    between atoms: C20_29  and  N6_40 
REMARK   20  A    between atoms: C21_30  and  C22_31 
REMARK   21  A    between atoms: C22_31  and  C23_32 
REMARK   22  A    between atoms: C23_32  and  O8_43 
REMARK   23  A    between atoms: C24_33  and  C25_34 
REMARK   24  A    between atoms: C28_38  and  O6_39 
REMARK   25  A    between atoms: C29_42  and  O8_43 
REMARK   26  A    between atoms: C29_42  and  C35_49 
ROOT
ATOM      1  C14 non d ame      -8.876   5.984  70.698  0.00  0.00     0.089 C 
ATOM      2  H20 non d ame      -8.134   5.839  71.484  0.00  0.00     0.087 H 
ENDROOT
BRANCH   1   3
ATOM      3  N4  non d ame      -9.343   7.359  70.784  0.00  0.00    -0.346 N 
ATOM      4  C10 non d ame     -10.619   7.775  70.094  0.00  0.00     0.241 C 
ATOM      5  O4  non d ame     -11.251   6.984  69.473  0.00  0.00    -0.271 OA
ATOM      6  H19 non d ame      -8.791   8.017  71.315  0.00  0.00     0.163 HD
BRANCH   4   7
ATOM      7  C9  non d ame     -11.091   9.201  70.198  0.00  0.00     0.092 C 
ATOM      8  H11 non d ame     -10.285   9.818  70.594  0.00  0.00     0.088 H 
BRANCH   7   9
ATOM      9  N3  non d ame     -11.407   9.710  68.859  0.00  0.00    -0.346 N 
ATOM     10  C7  non d ame     -10.344  10.069  67.955  0.00  0.00     0.240 C 
ATOM     11  O3  non d ame      -9.227   9.956  68.287  0.00  0.00    -0.271 OA
ATOM     12  H10 non d ame     -12.366   9.814  68.559  0.00  0.00     0.163 HD
BRANCH  10  13
ATOM     13  C6  non d ame     -10.687  10.613  66.533  0.00  0.00     0.086 C 
ATOM     14  H6  non d ame     -11.747  10.531  66.295  0.00  0.00     0.086 H 
BRANCH  13  15
ATOM     15  N2  non d ame     -10.356  12.028  66.478  0.00  0.00    -0.343 N 
ATOM     16  C5  non d ame     -11.325  12.974  65.921  0.00  0.00     0.273 C 
ATOM     17  O2  non d ame     -12.365  12.587  65.517  0.00  0.00    -0.266 OA
ATOM     18  H5  non d ame      -9.462  12.349  66.822  0.00  0.00     0.163 HD
BRANCH  16  19
ATOM     19  C4  non d ame     -10.988  14.472  65.857  0.00  0.00     0.154 A 
ATOM     20  C1  non d ame     -10.760  15.355  66.960  0.00  0.00    -0.017 A 
ATOM     21  C2  non d ame     -10.491  16.610  66.371  0.00  0.00     0.077 A 
ATOM     22  H1  non d ame     -10.785  15.121  68.024  0.00  0.00     0.091 H 
ATOM     23  O1  non d ame     -10.557  16.455  65.081  0.00  0.00    -0.218 OA
ATOM     24  N1  non d ame     -10.846  15.216  64.756  0.00  0.00    -0.123 NA
BRANCH  21  25
ATOM     25  C3  non d ame     -10.180  17.905  67.110  0.00  0.00    -0.029 C 
ATOM     26  H2  non d ame     -10.545  18.752  66.530  0.00  0.00     0.036 H 
ATOM     27  H3  non d ame     -10.668  17.894  68.084  0.00  0.00     0.036 H 
ATOM     28  H4  non d ame      -9.101  17.995  67.246  0.00  0.00     0.036 H 
ENDBRANCH  21  25
ENDBRANCH  16  19
ENDBRANCH  13  15
BRANCH  13  29
ATOM     29  C8  non d ame      -9.894   9.857  65.498  0.00  0.00    -0.049 C 
ATOM     30  H7  non d ame      -8.829  10.027  65.660  0.00  0.00     0.030 H 
ATOM     31  H8  non d ame     -10.109   8.792  65.581  0.00  0.00     0.030 H 
ATOM     32  H9  non d ame     -10.169  10.207  64.503  0.00  0.00     0.030 H 
ENDBRANCH  13  29
ENDBRANCH  10  13
ENDBRANCH   7   9
BRANCH   7  33
ATOM     33  C11 non d ame     -12.367   9.261  71.088  0.00  0.00    -0.033 C 
ATOM     34  H12 non d ame     -13.186   8.822  70.520  0.00  0.00     0.042 H 
BRANCH  33  35
ATOM     35  C12 non d ame     -12.193   8.418  72.389  0.00  0.00    -0.071 C 
ATOM     36  H13 non d ame     -11.261   7.855  72.336  0.00  0.00     0.028 H 
ATOM     37  H14 non d ame     -12.166   9.083  73.252  0.00  0.00     0.028 H 
ATOM     38  H15 non d ame     -13.029   7.727  72.487  0.00  0.00     0.028 H 
ENDBRANCH  33  35
BRANCH  33  39
ATOM     39  C13 non d ame     -12.748  10.740  71.419  0.00  0.00    -0.071 C 
ATOM     40  H16 non d ame     -13.825  10.870  71.315  0.00  0.00     0.028 H 
ATOM     41  H17 non d ame     -12.452  10.971  72.443  0.00  0.00     0.028 H 
ATOM     42  H18 non d ame     -12.233  11.411  70.732  0.00  0.00     0.028 H 
ENDBRANCH  33  39
ENDBRANCH   7  33
ENDBRANCH   4   7
ENDBRANCH   1   3
BRANCH   1  43
ATOM     43  C15 non d ame      -8.281   5.752  69.280  0.00  0.00     0.240 C 
ATOM     44  O5  non d ame      -7.832   4.690  68.993  0.00  0.00    -0.271 OA
ATOM     45  N6  non d ame      -8.280   6.853  68.274  0.00  0.00    -0.355 N 
ATOM     46  H46 non d ame      -8.663   7.758  68.505  0.00  0.00     0.162 HD
BRANCH  45  47
ATOM     47  C20 non d ame      -7.712   6.617  66.930  0.00  0.00     0.013 C 
ATOM     48  H30 non d ame      -7.121   5.702  66.971  0.00  0.00     0.072 H 
BRANCH  47  49
ATOM     49  C21 non d ame      -6.830   7.784  66.547  0.00  0.00    -0.038 C 
ATOM     50  H31 non d ame      -6.873   7.841  65.460  0.00  0.00     0.036 H 
ATOM     51  H32 non d ame      -7.175   8.624  67.151  0.00  0.00     0.036 H 
BRANCH  49  52
ATOM     52  C22 non d ame      -5.348   7.560  66.915  0.00  0.00     0.018 C 
ATOM     53  H33 non d ame      -4.920   8.556  67.040  0.00  0.00     0.048 H 
ATOM     54  H34 non d ame      -5.353   6.861  67.750  0.00  0.00     0.048 H 
BRANCH  52  55
ATOM     55  C23 non d ame      -4.519   6.878  65.791  0.00  0.00     0.259 C 
ATOM     56  O7  non d ame      -3.331   6.879  65.832  0.00  0.00    -0.265 OA
BRANCH  55  57
ATOM     57  O8  non d ame      -5.196   6.264  64.701  0.00  0.00    -0.317 OA
BRANCH  57  58
ATOM     58  C29 non d ame      -4.842   6.797  63.421  0.00  0.00     0.052 C 
ATOM     59  H47 non d ame      -3.904   7.329  63.573  0.00  0.00     0.082 H 
ATOM     60  H48 non d ame      -4.885   5.956  62.730  0.00  0.00     0.082 H 
BRANCH  58  61
ATOM     61  C35 non d ame      -5.931   7.824  63.013  0.00  0.00    -0.034 A 
ATOM     62  C30 non d ame      -5.594   9.162  62.829  0.00  0.00    -0.075 A 
ATOM     63  C31 non d ame      -6.572  10.084  62.462  0.00  0.00    -0.082 A 
ATOM     64  H49 non d ame      -4.563   9.486  62.971  0.00  0.00     0.084 H 
ATOM     65  C32 non d ame      -7.893   9.666  62.282  0.00  0.00    -0.083 A 
ATOM     66  H50 non d ame      -6.304  11.131  62.315  0.00  0.00     0.083 H 
ATOM     67  C33 non d ame      -8.226   8.331  62.470  0.00  0.00    -0.082 A 
ATOM     68  H51 non d ame      -8.664  10.381  61.994  0.00  0.00     0.083 H 
ATOM     69  C34 non d ame      -7.250   7.405  62.835  0.00  0.00    -0.075 A 
ATOM     70  H52 non d ame      -9.259   8.009  62.331  0.00  0.00     0.083 H 
ATOM     71  H53 non d ame      -7.520   6.358  62.979  0.00  0.00     0.084 H 
ENDBRANCH  58  61
ENDBRANCH  57  58
ENDBRANCH  55  57
ENDBRANCH  52  55
ENDBRANCH  49  52
ENDBRANCH  47  49
BRANCH  47  72
ATOM     72  C24 non d ame      -8.841   6.474  65.911  0.00  0.00    -0.039 C 
ATOM     73  H35 non d ame      -9.684   7.020  66.334  0.00  0.00     0.036 H 
ATOM     74  H36 non d ame      -8.413   6.788  64.958  0.00  0.00     0.036 H 
BRANCH  72  75
ATOM     75  C25 non d ame      -9.301   4.949  65.744  0.00  0.00    -0.001 C 
ATOM     76  C26 non d ame      -9.276   4.528  64.154  0.00  0.00    -0.035 C 
ATOM     77  C27 non d ame     -10.470   3.975  63.831  0.00  0.00     0.085 C 
ATOM     78  H38 non d ame      -9.232   5.421  63.531  0.00  0.00     0.036 H 
ATOM     79  H39 non d ame      -8.567   3.716  63.993  0.00  0.00     0.036 H 
ATOM     80  N5  non d ame     -11.418   4.278  64.967  0.00  0.00    -0.049 N 
ATOM     81  H40 non d ame     -10.804   4.504  62.938  0.00  0.00     0.075 H 
ATOM     82  H41 non d ame     -10.292   2.901  63.795  0.00  0.00     0.075 H 
ATOM     83  C28 non d ame     -10.496   4.767  66.198  0.00  0.00     0.193 C 
ATOM     84  H42 non d ame     -11.988   5.054  64.663  0.00  0.00     0.280 HD
ATOM     85  H43 non d ame     -11.851   3.401  65.219  0.00  0.00     0.280 HD
ATOM     86  H44 non d ame     -10.291   4.102  67.036  0.00  0.00     0.129 H 
ATOM     87  H37 non d ame      -8.788   4.285  66.440  0.00  0.00     0.046 H 
BRANCH  83  88
ATOM     88  O6  non d ame     -11.037   5.956  66.778  0.00  0.00    -0.369 OA
ATOM     89  H45 non d ame     -11.146   6.623  66.096  0.00  0.00     0.212 HD
ENDBRANCH  83  88
ENDBRANCH  72  75
ENDBRANCH  47  72
ENDBRANCH  45  47
ENDBRANCH   1  43
BRANCH   1  90
ATOM     90  C16 non d ame     -10.051   5.046  70.920  0.00  0.00    -0.035 C 
ATOM     91  H21 non d ame     -10.938   5.679  70.876  0.00  0.00     0.037 H 
ATOM     92  H22 non d ame      -9.920   4.242  70.195  0.00  0.00     0.037 H 
BRANCH  90  93
ATOM     93  C17 non d ame     -10.059   4.372  72.329  0.00  0.00    -0.059 C 
ATOM     94  H23 non d ame      -9.122   4.629  72.823  0.00  0.00     0.038 H 
BRANCH  93  95
ATOM     95  C18 non d ame     -11.228   4.893  73.225  0.00  0.00    -0.073 C 
ATOM     96  H24 non d ame     -12.179   4.552  72.814  0.00  0.00     0.028 H 
ATOM     97  H25 non d ame     -11.109   4.506  74.237  0.00  0.00     0.028 H 
ATOM     98  H26 non d ame     -11.210   5.983  73.247  0.00  0.00     0.028 H 
ENDBRANCH  93  95
BRANCH  93  99
ATOM     99  C19 non d ame     -10.104   2.847  72.207  0.00  0.00    -0.073 C 
ATOM    100  H27 non d ame     -10.441   2.572  71.206  0.00  0.00     0.028 H 
ATOM    101  H28 non d ame      -9.107   2.440  72.380  0.00  0.00     0.028 H 
ATOM    102  H29 non d ame     -10.794   2.443  72.947  0.00  0.00     0.028 H 
ENDBRANCH  93  99
ENDBRANCH  90  93
ENDBRANCH   1  90
TORSDOF 26
ENDMDL
MODEL 19
REMARK VINA RESULT:      -6.2      2.152      4.638
REMARK  26 active torsions:
REMARK  status: ('A' for Active; 'I' for Inactive)
REMARK    1  A    between atoms: C2_2  and  C3_3 
REMARK    2  A    between atoms: C4_6  and  C5_7 
REMARK       I    between atoms: C5_7  and  N2_9 
REMARK    3  A    between atoms: N2_9  and  C6_10 
REMARK    4  A    between atoms: C6_10  and  C7_11 
REMARK    5  A    between atoms: C6_10  and  C8_13 
REMARK       I    between atoms: C7_11  and  N3_14 
REMARK    6  A    between atoms: N3_14  and  C9_15 
REMARK    7  A    between atoms: C9_15  and  C10_16 
REMARK    8  A    between atoms: C9_15  and  C11_18 
REMARK       I    between atoms: C10_16  and  N4_21 
REMARK    9  A    between atoms: C11_18  and  C12_19 
REMARK   10  A    between atoms: C11_18  and  C13_20 
REMARK   11  A    between atoms: N4_21  and  C14_22 
REMARK   12  A    between atoms: C14_22  and  C15_23 
REMARK   13  A    between atoms: C14_22  and  C16_25 
REMARK       I    between atoms: C15_23  and  N6_40 
REMARK   14  A    between atoms: C16_25  and  C17_26 
REMARK   15  A    between atoms: C17_26  and  C18_27 
REMARK   16  A    between atoms: C17_26  and  C19_28 
REMARK   17  A    between atoms: C20_29  and  C21_30 
REMARK   18  A    between atoms: C20_29  and  C24_33 
REMARK   19  A    between atoms: C20_29  and  N6_40 
REMARK   20  A    between atoms: C21_30  and  C22_31 
REMARK   21  A    between atoms: C22_31  and  C23_32 
REMARK   22  A    between atoms: C23_32  and  O8_43 
REMARK   23  A    between atoms: C24_33  and  C25_34 
REMARK   24  A    between atoms: C28_38  and  O6_39 
REMARK   25  A    between atoms: C29_42  and  O8_43 
REMARK   26  A    between atoms: C29_42  and  C35_49 
ROOT
ATOM      1  C14 non d ame     -11.044   9.674  68.974  0.00  0.00     0.089 C 
ATOM      2  H20 non d ame     -11.876   8.968  68.977  0.00  0.00     0.087 H 
ENDROOT
BRANCH   1   3
ATOM      3  N4  non d ame      -9.935   9.042  68.277  0.00  0.00    -0.346 N 
ATOM      4  C10 non d ame      -9.924   7.550  68.056  0.00  0.00     0.241 C 
ATOM      5  O4  non d ame     -10.820   6.878  68.452  0.00  0.00    -0.271 OA
ATOM      6  H19 non d ame      -9.181   9.630  67.950  0.00  0.00     0.163 HD
BRANCH   4   7
ATOM      7  C9  non d ame      -8.770   6.912  67.328  0.00  0.00     0.092 C 
ATOM      8  H11 non d ame      -9.070   5.926  66.974  0.00  0.00     0.088 H 
BRANCH   7   9
ATOM      9  N3  non d ame      -8.436   7.713  66.145  0.00  0.00    -0.346 N 
ATOM     10  C7  non d ame      -8.286   7.074  64.862  0.00  0.00     0.240 C 
ATOM     11  O3  non d ame      -8.429   5.917  64.760  0.00  0.00    -0.271 OA
ATOM     12  H10 non d ame      -8.309   8.713  66.217  0.00  0.00     0.163 HD
BRANCH  10  13
ATOM     13  C6  non d ame      -7.928   7.931  63.608  0.00  0.00     0.086 C 
ATOM     14  H6  non d ame      -7.857   7.337  62.696  0.00  0.00     0.086 H 
BRANCH  13  15
ATOM     15  N2  non d ame      -8.983   8.907  63.386  0.00  0.00    -0.343 N 
ATOM     16  C5  non d ame      -9.027  10.121  64.205  0.00  0.00     0.273 C 
ATOM     17  O2  non d ame      -8.211  10.301  65.040  0.00  0.00    -0.266 OA
ATOM     18  H5  non d ame      -9.678   8.743  62.672  0.00  0.00     0.163 HD
BRANCH  16  19
ATOM     19  C4  non d ame     -10.136  11.160  63.981  0.00  0.00     0.154 A 
ATOM     20  C1  non d ame     -10.226  12.467  64.558  0.00  0.00    -0.017 A 
ATOM     21  C2  non d ame     -11.420  13.012  64.037  0.00  0.00     0.077 A 
ATOM     22  H1  non d ame      -9.531  12.945  65.248  0.00  0.00     0.091 H 
ATOM     23  O1  non d ame     -11.945  12.118  63.252  0.00  0.00    -0.218 OA
ATOM     24  N1  non d ame     -11.214  11.028  63.203  0.00  0.00    -0.123 NA
BRANCH  21  25
ATOM     25  C3  non d ame     -11.986  14.394  64.337  0.00  0.00    -0.029 C 
ATOM     26  H2  non d ame     -11.619  15.106  63.597  0.00  0.00     0.036 H 
ATOM     27  H3  non d ame     -13.074  14.358  64.298  0.00  0.00     0.036 H 
ATOM     28  H4  non d ame     -11.668  14.709  65.332  0.00  0.00     0.036 H 
ENDBRANCH  21  25
ENDBRANCH  16  19
ENDBRANCH  13  15
BRANCH  13  29
ATOM     29  C8  non d ame      -6.614   8.634  63.834  0.00  0.00    -0.049 C 
ATOM     30  H7  non d ame      -6.524   9.469  63.139  0.00  0.00     0.030 H 
ATOM     31  H8  non d ame      -6.572   9.007  64.857  0.00  0.00     0.030 H 
ATOM     32  H9  non d ame      -5.794   7.935  63.668  0.00  0.00     0.030 H 
ENDBRANCH  13  29
ENDBRANCH  10  13
ENDBRANCH   7   9
BRANCH   7  33
ATOM     33  C11 non d ame      -7.535   6.846  68.272  0.00  0.00    -0.033 C 
ATOM     34  H12 non d ame      -7.023   7.806  68.213  0.00  0.00     0.042 H 
BRANCH  33  35
ATOM     35  C12 non d ame      -7.965   6.632  69.757  0.00  0.00    -0.071 C 
ATOM     36  H13 non d ame      -7.951   5.568  69.990  0.00  0.00     0.028 H 
ATOM     37  H14 non d ame      -7.273   7.157  70.414  0.00  0.00     0.028 H 
ATOM     38  H15 non d ame      -8.971   7.023  69.902  0.00  0.00     0.028 H 
ENDBRANCH  33  35
BRANCH  33  39
ATOM     39  C13 non d ame      -6.536   5.737  67.808  0.00  0.00    -0.071 C 
ATOM     40  H16 non d ame      -6.504   5.709  66.719  0.00  0.00     0.028 H 
ATOM     41  H17 non d ame      -5.540   5.960  68.195  0.00  0.00     0.028 H 
ATOM     42  H18 non d ame      -6.864   4.770  68.187  0.00  0.00     0.028 H 
ENDBRANCH  33  39
ENDBRANCH   7  33
ENDBRANCH   4   7
ENDBRANCH   1   3
BRANCH   1  43
ATOM     43  C15 non d ame     -11.400  10.998  68.239  0.00  0.00     0.240 C 
ATOM     44  O5  non d ame     -11.898  10.960  67.161  0.00  0.00    -0.271 OA
ATOM     45  N6  non d ame     -11.129  12.314  68.885  0.00  0.00    -0.355 N 
ATOM     46  H46 non d ame     -10.710  12.358  69.803  0.00  0.00     0.162 HD
BRANCH  45  47
ATOM     47  C20 non d ame     -11.474  13.564  68.174  0.00  0.00     0.013 C 
ATOM     48  H30 non d ame     -12.116  13.305  67.332  0.00  0.00     0.072 H 
BRANCH  47  49
ATOM     49  C21 non d ame     -10.207  14.220  67.673  0.00  0.00    -0.038 C 
ATOM     50  H31 non d ame     -10.142  13.966  66.616  0.00  0.00     0.036 H 
ATOM     51  H32 non d ame     -10.275  15.265  67.980  0.00  0.00     0.036 H 
BRANCH  49  52
ATOM     52  C22 non d ame      -8.934  13.652  68.338  0.00  0.00     0.018 C 
ATOM     53  H33 non d ame      -9.283  13.047  69.176  0.00  0.00     0.048 H 
ATOM     54  H34 non d ame      -8.363  13.190  67.534  0.00  0.00     0.048 H 
BRANCH  52  55
ATOM     55  C23 non d ame      -8.009  14.739  68.952  0.00  0.00     0.259 C 
ATOM     56  O7  non d ame      -6.878  14.489  69.216  0.00  0.00    -0.265 OA
BRANCH  55  57
ATOM     57  O8  non d ame      -8.533  16.036  69.209  0.00  0.00    -0.317 OA
BRANCH  57  58
ATOM     58  C29 non d ame      -7.832  17.090  68.541  0.00  0.00     0.052 C 
ATOM     59  H47 non d ame      -7.339  17.660  69.327  0.00  0.00     0.082 H 
ATOM     60  H48 non d ame      -7.239  16.604  67.766  0.00  0.00     0.082 H 
BRANCH  58  61
ATOM     61  C35 non d ame      -8.882  18.004  67.855  0.00  0.00    -0.034 A 
ATOM     62  C30 non d ame      -9.535  17.574  66.704  0.00  0.00    -0.075 A 
ATOM     63  C31 non d ame     -10.479  18.395  66.088  0.00  0.00    -0.082 A 
ATOM     64  H49 non d ame      -9.309  16.592  66.286  0.00  0.00     0.084 H 
ATOM     65  C32 non d ame     -10.765  19.653  66.625  0.00  0.00    -0.083 A 
ATOM     66  H50 non d ame     -10.991  18.053  65.189  0.00  0.00     0.083 H 
ATOM     67  C33 non d ame     -10.107  20.080  67.771  0.00  0.00    -0.082 A 
ATOM     68  H51 non d ame     -11.501  20.301  66.150  0.00  0.00     0.083 H 
ATOM     69  C34 non d ame      -9.166  19.261  68.391  0.00  0.00    -0.075 A 
ATOM     70  H52 non d ame     -10.332  21.063  68.186  0.00  0.00     0.083 H 
ATOM     71  H53 non d ame      -8.655  19.604  69.292  0.00  0.00     0.084 H 
ENDBRANCH  58  61
ENDBRANCH  57  58
ENDBRANCH  55  57
ENDBRANCH  52  55
ENDBRANCH  49  52
ENDBRANCH  47  49
BRANCH  47  72
ATOM     72  C24 non d ame     -12.200  14.514  69.124  0.00  0.00    -0.039 C 
ATOM     73  H35 non d ame     -11.818  15.508  68.888  0.00  0.00     0.036 H 
ATOM     74  H36 non d ame     -13.261  14.295  68.998  0.00  0.00     0.036 H 
BRANCH  72  75
ATOM     75  C25 non d ame     -11.834  14.218  70.655  0.00  0.00    -0.001 C 
ATOM     76  C26 non d ame     -13.178  13.729  71.467  0.00  0.00    -0.035 C 
ATOM     77  C27 non d ame     -13.307  14.479  72.588  0.00  0.00     0.085 C 
ATOM     78  H38 non d ame     -14.071  13.973  70.893  0.00  0.00     0.036 H 
ATOM     79  H39 non d ame     -13.037  12.719  71.851  0.00  0.00     0.036 H 
ATOM     80  N5  non d ame     -12.362  15.649  72.447  0.00  0.00    -0.049 N 
ATOM     81  H40 non d ame     -14.333  14.848  72.575  0.00  0.00     0.075 H 
ATOM     82  H41 non d ame     -12.966  13.844  73.404  0.00  0.00     0.075 H 
ATOM     83  C28 non d ame     -11.364  15.270  71.236  0.00  0.00     0.193 C 
ATOM     84  H42 non d ame     -12.924  16.438  72.166  0.00  0.00     0.280 HD
ATOM     85  H43 non d ame     -11.827  15.689  73.303  0.00  0.00     0.280 HD
ATOM     86  H44 non d ame     -10.344  14.945  71.440  0.00  0.00     0.129 H 
ATOM     87  H37 non d ame     -10.943  13.598  70.753  0.00  0.00     0.046 H 
BRANCH  83  88
ATOM     88  O6  non d ame     -11.240  16.373  70.336  0.00  0.00    -0.369 OA
ATOM     89  H45 non d ame     -11.367  17.194  70.817  0.00  0.00     0.212 HD
ENDBRANCH  83  88
ENDBRANCH  72  75
ENDBRANCH  47  72
ENDBRANCH  45  47
ENDBRANCH   1  43
BRANCH   1  90
ATOM     90  C16 non d ame     -10.623   9.979  70.402  0.00  0.00    -0.035 C 
ATOM     91  H21 non d ame      -9.707   9.409  70.561  0.00  0.00     0.037 H 
ATOM     92  H22 non d ame     -10.607  11.066  70.473  0.00  0.00     0.037 H 
BRANCH  90  93
ATOM     93  C17 non d ame     -11.643   9.483  71.476  0.00  0.00    -0.059 C 
ATOM     94  H23 non d ame     -11.365   9.933  72.429  0.00  0.00     0.038 H 
BRANCH  93  95
ATOM     95  C18 non d ame     -13.105   9.924  71.150  0.00  0.00    -0.073 C 
ATOM     96  H24 non d ame     -13.089  10.895  70.655  0.00  0.00     0.028 H 
ATOM     97  H25 non d ame     -13.568   9.189  70.492  0.00  0.00     0.028 H 
ATOM     98  H26 non d ame     -13.678   9.997  72.075  0.00  0.00     0.028 H 
ENDBRANCH  93  95
BRANCH  93  99
ATOM     99  C19 non d ame     -11.559   7.964  71.650  0.00  0.00    -0.073 C 
ATOM    100  H27 non d ame     -12.391   7.622  72.267  0.00  0.00     0.028 H 
ATOM    101  H28 non d ame     -11.609   7.484  70.673  0.00  0.00     0.028 H 
ATOM    102  H29 non d ame     -10.617   7.704  72.133  0.00  0.00     0.028 H 
ENDBRANCH  93  99
ENDBRANCH  90  93
ENDBRANCH   1  90
TORSDOF 26
ENDMDL
MODEL 20
REMARK VINA RESULT:      -6.1      2.550      9.170
REMARK  26 active torsions:
REMARK  status: ('A' for Active; 'I' for Inactive)
REMARK    1  A    between atoms: C2_2  and  C3_3 
REMARK    2  A    between atoms: C4_6  and  C5_7 
REMARK       I    between atoms: C5_7  and  N2_9 
REMARK    3  A    between atoms: N2_9  and  C6_10 
REMARK    4  A    between atoms: C6_10  and  C7_11 
REMARK    5  A    between atoms: C6_10  and  C8_13 
REMARK       I    between atoms: C7_11  and  N3_14 
REMARK    6  A    between atoms: N3_14  and  C9_15 
REMARK    7  A    between atoms: C9_15  and  C10_16 
REMARK    8  A    between atoms: C9_15  and  C11_18 
REMARK       I    between atoms: C10_16  and  N4_21 
REMARK    9  A    between atoms: C11_18  and  C12_19 
REMARK   10  A    between atoms: C11_18  and  C13_20 
REMARK   11  A    between atoms: N4_21  and  C14_22 
REMARK   12  A    between atoms: C14_22  and  C15_23 
REMARK   13  A    between atoms: C14_22  and  C16_25 
REMARK       I    between atoms: C15_23  and  N6_40 
REMARK   14  A    between atoms: C16_25  and  C17_26 
REMARK   15  A    between atoms: C17_26  and  C18_27 
REMARK   16  A    between atoms: C17_26  and  C19_28 
REMARK   17  A    between atoms: C20_29  and  C21_30 
REMARK   18  A    between atoms: C20_29  and  C24_33 
REMARK   19  A    between atoms: C20_29  and  N6_40 
REMARK   20  A    between atoms: C21_30  and  C22_31 
REMARK   21  A    between atoms: C22_31  and  C23_32 
REMARK   22  A    between atoms: C23_32  and  O8_43 
REMARK   23  A    between atoms: C24_33  and  C25_34 
REMARK   24  A    between atoms: C28_38  and  O6_39 
REMARK   25  A    between atoms: C29_42  and  O8_43 
REMARK   26  A    between atoms: C29_42  and  C35_49 
ROOT
ATOM      1  C14 non d ame      -7.420   9.721  64.647  0.00  0.00     0.089 C 
ATOM      2  H20 non d ame      -7.869   8.840  64.187  0.00  0.00     0.087 H 
ENDROOT
BRANCH   1   3
ATOM      3  N4  non d ame      -8.469  10.719  64.797  0.00  0.00    -0.346 N 
ATOM      4  C10 non d ame      -9.857  10.308  65.221  0.00  0.00     0.241 C 
ATOM      5  O4  non d ame     -10.106   9.167  65.434  0.00  0.00    -0.271 OA
ATOM      6  H19 non d ame      -8.237  11.684  64.608  0.00  0.00     0.163 HD
BRANCH   4   7
ATOM      7  C9  non d ame     -10.929  11.354  65.376  0.00  0.00     0.092 C 
ATOM      8  H11 non d ame     -11.865  10.871  65.654  0.00  0.00     0.088 H 
BRANCH   7   9
ATOM      9  N3  non d ame     -10.571  12.263  66.470  0.00  0.00    -0.346 N 
ATOM     10  C7  non d ame     -11.394  12.328  67.651  0.00  0.00     0.240 C 
ATOM     11  O3  non d ame     -12.350  11.658  67.740  0.00  0.00    -0.271 OA
ATOM     12  H10 non d ame      -9.750  12.849  66.408  0.00  0.00     0.163 HD
BRANCH  10  13
ATOM     13  C6  non d ame     -11.010  13.300  68.811  0.00  0.00     0.086 C 
ATOM     14  H6  non d ame      -9.998  13.134  69.182  0.00  0.00     0.086 H 
BRANCH  13  15
ATOM     15  N2  non d ame     -11.051  14.665  68.315  0.00  0.00    -0.343 N 
ATOM     16  C5  non d ame      -9.851  15.253  67.715  0.00  0.00     0.273 C 
ATOM     17  O2  non d ame      -8.857  14.619  67.640  0.00  0.00    -0.266 OA
ATOM     18  H5  non d ame     -11.905  15.201  68.386  0.00  0.00     0.163 HD
BRANCH  16  19
ATOM     19  C4  non d ame      -9.882  16.695  67.186  0.00  0.00     0.154 A 
ATOM     20  C1  non d ame      -9.833  17.900  67.956  0.00  0.00    -0.017 A 
ATOM     21  C2  non d ame      -9.889  18.942  67.004  0.00  0.00     0.077 A 
ATOM     22  H1  non d ame      -9.765  18.003  69.039  0.00  0.00     0.091 H 
ATOM     23  O1  non d ame      -9.960  18.390  65.828  0.00  0.00    -0.218 OA
ATOM     24  N1  non d ame      -9.957  17.079  65.909  0.00  0.00    -0.123 NA
BRANCH  21  25
ATOM     25  C3  non d ame      -9.868  20.436  67.300  0.00  0.00    -0.029 C 
ATOM     26  H2  non d ame     -10.886  20.786  67.476  0.00  0.00     0.036 H 
ATOM     27  H3  non d ame      -9.262  20.622  68.186  0.00  0.00     0.036 H 
ATOM     28  H4  non d ame      -9.442  20.970  66.450  0.00  0.00     0.036 H 
ENDBRANCH  21  25
ENDBRANCH  16  19
ENDBRANCH  13  15
BRANCH  13  29
ATOM     29  C8  non d ame     -11.981  13.135  69.952  0.00  0.00    -0.049 C 
ATOM     30  H7  non d ame     -11.724  12.241  70.521  0.00  0.00     0.030 H 
ATOM     31  H8  non d ame     -11.930  14.008  70.602  0.00  0.00     0.030 H 
ATOM     32  H9  non d ame     -12.992  13.034  69.556  0.00  0.00     0.030 H 
ENDBRANCH  13  29
ENDBRANCH  10  13
ENDBRANCH   7   9
BRANCH   7  33
ATOM     33  C11 non d ame     -11.057  12.165  64.053  0.00  0.00    -0.033 C 
ATOM     34  H12 non d ame     -10.210  11.900  63.422  0.00  0.00     0.042 H 
BRANCH  33  35
ATOM     35  C12 non d ame     -12.357  11.784  63.278  0.00  0.00    -0.071 C 
ATOM     36  H13 non d ame     -12.113  11.582  62.235  0.00  0.00     0.028 H 
ATOM     37  H14 non d ame     -12.801  10.896  63.726  0.00  0.00     0.028 H 
ATOM     38  H15 non d ame     -13.065  12.611  63.331  0.00  0.00     0.028 H 
ENDBRANCH  33  35
BRANCH  33  39
ATOM     39  C13 non d ame     -10.993  13.701  64.330  0.00  0.00    -0.071 C 
ATOM     40  H16 non d ame     -10.691  14.221  63.422  0.00  0.00     0.028 H 
ATOM     41  H17 non d ame     -11.976  14.056  64.642  0.00  0.00     0.028 H 
ATOM     42  H18 non d ame     -10.269  13.898  65.120  0.00  0.00     0.028 H 
ENDBRANCH  33  39
ENDBRANCH   7  33
ENDBRANCH   4   7
ENDBRANCH   1   3
BRANCH   1  43
ATOM     43  C15 non d ame      -6.827   9.413  66.052  0.00  0.00     0.240 C 
ATOM     44  O5  non d ame      -5.654   9.476  66.225  0.00  0.00    -0.271 OA
ATOM     45  N6  non d ame      -7.726   9.047  67.185  0.00  0.00    -0.355 N 
ATOM     46  H46 non d ame      -8.725   8.995  67.050  0.00  0.00     0.162 HD
BRANCH  45  47
ATOM     47  C20 non d ame      -7.147   8.758  68.514  0.00  0.00     0.013 C 
ATOM     48  H30 non d ame      -6.084   8.556  68.381  0.00  0.00     0.072 H 
BRANCH  47  49
ATOM     49  C21 non d ame      -7.833   7.548  69.106  0.00  0.00    -0.038 C 
ATOM     50  H31 non d ame      -7.845   6.800  68.314  0.00  0.00     0.036 H 
ATOM     51  H32 non d ame      -7.312   7.342  70.042  0.00  0.00     0.036 H 
BRANCH  49  52
ATOM     52  C22 non d ame      -9.307   7.816  69.477  0.00  0.00     0.018 C 
ATOM     53  H33 non d ame      -9.359   7.734  70.563  0.00  0.00     0.048 H 
ATOM     54  H34 non d ame      -9.569   8.755  68.989  0.00  0.00     0.048 H 
BRANCH  52  55
ATOM     55  C23 non d ame     -10.297   6.754  68.921  0.00  0.00     0.259 C 
ATOM     56  O7  non d ame     -10.785   5.948  69.644  0.00  0.00    -0.265 OA
BRANCH  55  57
ATOM     57  O8  non d ame     -10.603   6.747  67.532  0.00  0.00    -0.317 OA
BRANCH  57  58
ATOM     58  C29 non d ame     -10.480   5.461  66.916  0.00  0.00     0.052 C 
ATOM     59  H47 non d ame     -10.733   4.738  67.690  0.00  0.00     0.082 H 
ATOM     60  H48 non d ame     -11.074   5.514  66.004  0.00  0.00     0.082 H 
BRANCH  58  61
ATOM     61  C35 non d ame      -8.993   5.260  66.521  0.00  0.00    -0.034 A 
ATOM     62  C30 non d ame      -8.202   4.353  67.219  0.00  0.00    -0.075 A 
ATOM     63  C31 non d ame      -6.866   4.173  66.864  0.00  0.00    -0.082 A 
ATOM     64  H49 non d ame      -8.629   3.783  68.045  0.00  0.00     0.084 H 
ATOM     65  C32 non d ame      -6.320   4.906  65.808  0.00  0.00    -0.083 A 
ATOM     66  H50 non d ame      -6.250   3.459  67.412  0.00  0.00     0.083 H 
ATOM     67  C33 non d ame      -7.111   5.813  65.115  0.00  0.00    -0.082 A 
ATOM     68  H51 non d ame      -5.276   4.771  65.523  0.00  0.00     0.083 H 
ATOM     69  C34 non d ame      -8.448   5.994  65.466  0.00  0.00    -0.075 A 
ATOM     70  H52 non d ame      -6.681   6.385  64.293  0.00  0.00     0.083 H 
ATOM     71  H53 non d ame      -9.063   6.708  64.916  0.00  0.00     0.084 H 
ENDBRANCH  58  61
ENDBRANCH  57  58
ENDBRANCH  55  57
ENDBRANCH  52  55
ENDBRANCH  49  52
ENDBRANCH  47  49
BRANCH  47  72
ATOM     72  C24 non d ame      -7.347   9.959  69.436  0.00  0.00    -0.039 C 
ATOM     73  H35 non d ame      -8.285  10.416  69.118  0.00  0.00     0.036 H 
ATOM     74  H36 non d ame      -7.248   9.568  70.449  0.00  0.00     0.036 H 
BRANCH  72  75
ATOM     75  C25 non d ame      -6.197  11.057  69.239  0.00  0.00    -0.001 C 
ATOM     76  C26 non d ame      -5.609  11.520  70.704  0.00  0.00    -0.035 C 
ATOM     77  C27 non d ame      -5.629  12.873  70.774  0.00  0.00     0.085 C 
ATOM     78  H38 non d ame      -6.291  11.213  71.495  0.00  0.00     0.036 H 
ATOM     79  H39 non d ame      -4.548  11.278  70.774  0.00  0.00     0.036 H 
ATOM     80  N5  non d ame      -6.480  13.361  69.625  0.00  0.00    -0.049 N 
ATOM     81  H40 non d ame      -6.131  13.108  71.713  0.00  0.00     0.075 H 
ATOM     82  H41 non d ame      -4.599  13.188  70.612  0.00  0.00     0.075 H 
ATOM     83  C28 non d ame      -6.646  12.102  68.629  0.00  0.00     0.193 C 
ATOM     84  H42 non d ame      -7.384  13.585  70.014  0.00  0.00     0.280 HD
ATOM     85  H43 non d ame      -5.942  14.074  69.154  0.00  0.00     0.280 HD
ATOM     86  H44 non d ame      -6.076  12.050  67.701  0.00  0.00     0.129 H 
ATOM     87  H37 non d ame      -5.469  10.760  68.484  0.00  0.00     0.046 H 
BRANCH  83  88
ATOM     88  O6  non d ame      -8.014  11.954  68.244  0.00  0.00    -0.369 OA
ATOM     89  H45 non d ame      -8.560  11.873  69.030  0.00  0.00     0.212 HD
ENDBRANCH  83  88
ENDBRANCH  72  75
ENDBRANCH  47  72
ENDBRANCH  45  47
ENDBRANCH   1  43
BRANCH   1  90
ATOM     90  C16 non d ame      -6.332  10.276  63.743  0.00  0.00    -0.035 C 
ATOM     91  H21 non d ame      -6.716  11.231  63.382  0.00  0.00     0.037 H 
ATOM     92  H22 non d ame      -5.419  10.247  64.338  0.00  0.00     0.037 H 
BRANCH  90  93
ATOM     93  C17 non d ame      -6.062   9.402  62.477  0.00  0.00    -0.059 C 
ATOM     94  H23 non d ame      -5.403   9.968  61.820  0.00  0.00     0.038 H 
BRANCH  93  95
ATOM     95  C18 non d ame      -5.345   8.059  62.830  0.00  0.00    -0.073 C 
ATOM     96  H24 non d ame      -5.705   7.271  62.168  0.00  0.00     0.028 H 
ATOM     97  H25 non d ame      -4.269   8.178  62.702  0.00  0.00     0.028 H 
ATOM     98  H26 non d ame      -5.561   7.793  63.864  0.00  0.00     0.028 H 
ENDBRANCH  93  95
BRANCH  93  99
ATOM     99  C19 non d ame      -7.358   9.141  61.705  0.00  0.00    -0.073 C 
ATOM    100  H27 non d ame      -7.351   9.717  60.779  0.00  0.00     0.028 H 
ATOM    101  H28 non d ame      -7.434   8.079  61.473  0.00  0.00     0.028 H 
ATOM    102  H29 non d ame      -8.211   9.441  62.314  0.00  0.00     0.028 H 
ENDBRANCH  93  99
ENDBRANCH  90  93
ENDBRANCH   1  90
TORSDOF 26
ENDMDL
