MODEL 1
REMARK VINA RESULT:      -7.0      0.000      0.000
REMARK  26 active torsions:
REMARK  status: ('A' for Active; 'I' for Inactive)
REMARK    1  A    between atoms: C2_2  and  C3_3 
REMARK    2  A    between atoms: C4_6  and  C5_7 
REMARK       I    between atoms: C5_7  and  N2_9 
REMARK    3  A    between atoms: N2_9  and  C6_10 
REMARK    4  A    between atoms: C6_10  and  C7_11 
REMARK    5  A    between atoms: C6_10  and  C8_13 
REMARK       I    between atoms: C7_11  and  N3_14 
REMARK    6  A    between atoms: N3_14  and  C9_15 
REMARK    7  A    between atoms: C9_15  and  C10_16 
REMARK    8  A    between atoms: C9_15  and  C11_18 
REMARK       I    between atoms: C10_16  and  N4_21 
REMARK    9  A    between atoms: C11_18  and  C12_19 
REMARK   10  A    between atoms: C11_18  and  C13_20 
REMARK   11  A    between atoms: N4_21  and  C14_22 
REMARK   12  A    between atoms: C14_22  and  C15_23 
REMARK   13  A    between atoms: C14_22  and  C16_25 
REMARK       I    between atoms: C15_23  and  N6_40 
REMARK   14  A    between atoms: C16_25  and  C17_26 
REMARK   15  A    between atoms: C17_26  and  C18_27 
REMARK   16  A    between atoms: C17_26  and  C19_28 
REMARK   17  A    between atoms: C20_29  and  C21_30 
REMARK   18  A    between atoms: C20_29  and  C24_33 
REMARK   19  A    between atoms: C20_29  and  N6_40 
REMARK   20  A    between atoms: C21_30  and  C22_31 
REMARK   21  A    between atoms: C22_31  and  C23_32 
REMARK   22  A    between atoms: C23_32  and  O8_43 
REMARK   23  A    between atoms: C24_33  and  C25_34 
REMARK   24  A    between atoms: C28_38  and  O6_39 
REMARK   25  A    between atoms: C29_42  and  O8_43 
REMARK   26  A    between atoms: C29_42  and  C35_49 
ROOT
ATOM      1  C14 non d ame     -12.314  14.370  70.319  0.00  0.00     0.089 C 
ATOM      2  H20 non d ame     -13.399  14.392  70.429  0.00  0.00     0.087 H 
ENDROOT
BRANCH   1   3
ATOM      3  N4  non d ame     -11.929  12.993  70.044  0.00  0.00    -0.346 N 
ATOM      4  C10 non d ame     -12.499  11.865  70.868  0.00  0.00     0.241 C 
ATOM      5  O4  non d ame     -13.263  12.091  71.749  0.00  0.00    -0.271 OA
ATOM      6  H19 non d ame     -11.276  12.822  69.293  0.00  0.00     0.163 HD
BRANCH   4   7
ATOM      7  C9  non d ame     -12.094  10.446  70.568  0.00  0.00     0.092 C 
ATOM      8  H11 non d ame     -12.623  10.102  69.679  0.00  0.00     0.088 H 
BRANCH   7   9
ATOM      9  N3  non d ame     -10.660  10.400  70.263  0.00  0.00    -0.346 N 
ATOM     10  C7  non d ame     -10.218  10.102  68.924  0.00  0.00     0.240 C 
ATOM     11  O3  non d ame     -11.000   9.896  68.078  0.00  0.00    -0.271 OA
ATOM     12  H10 non d ame      -9.973  10.575  70.982  0.00  0.00     0.163 HD
BRANCH  10  13
ATOM     13  C6  non d ame      -8.690  10.052  68.607  0.00  0.00     0.086 C 
ATOM     14  H6  non d ame      -8.483   9.954  67.541  0.00  0.00     0.086 H 
BRANCH  13  15
ATOM     15  N2  non d ame      -8.079  11.299  69.036  0.00  0.00    -0.343 N 
ATOM     16  C5  non d ame      -7.342  12.113  68.067  0.00  0.00     0.273 C 
ATOM     17  O2  non d ame      -7.245  11.755  66.945  0.00  0.00    -0.266 OA
ATOM     18  H5  non d ame      -8.165  11.596  69.998  0.00  0.00     0.163 HD
BRANCH  16  19
ATOM     19  C4  non d ame      -6.692  13.434  68.507  0.00  0.00     0.154 A 
ATOM     20  C1  non d ame      -5.433  13.964  68.078  0.00  0.00    -0.017 A 
ATOM     21  C2  non d ame      -5.300  15.188  68.770  0.00  0.00     0.077 A 
ATOM     22  H1  non d ame      -4.727  13.528  67.372  0.00  0.00     0.091 H 
ATOM     23  O1  non d ame      -6.362  15.335  69.506  0.00  0.00    -0.218 OA
ATOM     24  N1  non d ame      -7.189  14.324  69.370  0.00  0.00    -0.123 NA
BRANCH  21  25
ATOM     25  C3  non d ame      -4.128  16.156  68.670  0.00  0.00    -0.029 C 
ATOM     26  H2  non d ame      -3.714  16.330  69.664  0.00  0.00     0.036 H 
ATOM     27  H3  non d ame      -3.360  15.732  68.026  0.00  0.00     0.036 H 
ATOM     28  H4  non d ame      -4.473  17.102  68.250  0.00  0.00     0.036 H 
ENDBRANCH  21  25
ENDBRANCH  16  19
ENDBRANCH  13  15
BRANCH  13  29
ATOM     29  C8  non d ame      -8.061   8.891  69.334  0.00  0.00    -0.049 C 
ATOM     30  H7  non d ame      -8.570   8.740  70.286  0.00  0.00     0.030 H 
ATOM     31  H8  non d ame      -8.149   7.990  68.727  0.00  0.00     0.030 H 
ATOM     32  H9  non d ame      -7.007   9.105  69.516  0.00  0.00     0.030 H 
ENDBRANCH  13  29
ENDBRANCH  10  13
ENDBRANCH   7   9
BRANCH   7  33
ATOM     33  C11 non d ame     -12.387   9.550  71.806  0.00  0.00    -0.033 C 
ATOM     34  H12 non d ame     -12.494  10.206  72.669  0.00  0.00     0.042 H 
BRANCH  33  35
ATOM     35  C12 non d ame     -13.730   8.771  71.639  0.00  0.00    -0.071 C 
ATOM     36  H13 non d ame     -13.617   8.014  70.864  0.00  0.00     0.028 H 
ATOM     37  H14 non d ame     -13.990   8.290  72.581  0.00  0.00     0.028 H 
ATOM     38  H15 non d ame     -14.518   9.467  71.355  0.00  0.00     0.028 H 
ENDBRANCH  33  35
BRANCH  33  39
ATOM     39  C13 non d ame     -11.199   8.574  72.085  0.00  0.00    -0.071 C 
ATOM     40  H16 non d ame     -11.056   8.474  73.160  0.00  0.00     0.028 H 
ATOM     41  H17 non d ame     -11.423   7.597  71.655  0.00  0.00     0.028 H 
ATOM     42  H18 non d ame     -10.290   8.969  71.632  0.00  0.00     0.028 H 
ENDBRANCH  33  39
ENDBRANCH   7  33
ENDBRANCH   4   7
ENDBRANCH   1   3
BRANCH   1  43
ATOM     43  C15 non d ame     -11.825  15.263  69.143  0.00  0.00     0.240 C 
ATOM     44  O5  non d ame     -11.913  16.445  69.222  0.00  0.00    -0.271 OA
ATOM     45  N6  non d ame     -11.237  14.643  67.921  0.00  0.00    -0.355 N 
ATOM     46  H46 non d ame     -11.153  13.640  67.844  0.00  0.00     0.162 HD
BRANCH  45  47
ATOM     47  C20 non d ame     -10.776  15.506  66.812  0.00  0.00     0.013 C 
ATOM     48  H30 non d ame     -11.287  16.465  66.897  0.00  0.00     0.072 H 
BRANCH  47  49
ATOM     49  C21 non d ame     -11.121  14.853  65.493  0.00  0.00    -0.038 C 
ATOM     50  H31 non d ame     -12.181  14.610  65.553  0.00  0.00     0.036 H 
ATOM     51  H32 non d ame     -10.760  15.536  64.723  0.00  0.00     0.036 H 
BRANCH  49  52
ATOM     52  C22 non d ame     -10.379  13.516  65.274  0.00  0.00     0.018 C 
ATOM     53  H33 non d ame      -9.953  13.575  64.272  0.00  0.00     0.048 H 
ATOM     54  H34 non d ame      -9.725  13.397  66.137  0.00  0.00     0.048 H 
BRANCH  52  55
ATOM     55  C23 non d ame     -11.313  12.274  65.269  0.00  0.00     0.259 C 
ATOM     56  O7  non d ame     -12.217  12.196  66.037  0.00  0.00    -0.265 OA
BRANCH  55  57
ATOM     57  O8  non d ame     -11.068  11.222  64.344  0.00  0.00    -0.317 OA
BRANCH  57  58
ATOM     58  C29 non d ame     -10.042  10.313  64.754  0.00  0.00     0.052 C 
ATOM     59  H47 non d ame      -9.466  10.843  65.512  0.00  0.00     0.082 H 
ATOM     60  H48 non d ame     -10.555   9.386  65.008  0.00  0.00     0.082 H 
BRANCH  58  61
ATOM     61  C35 non d ame      -9.122  10.047  63.534  0.00  0.00    -0.034 A 
ATOM     62  C30 non d ame      -8.580   8.782  63.331  0.00  0.00    -0.075 A 
ATOM     63  C31 non d ame      -7.754   8.543  62.234  0.00  0.00    -0.082 A 
ATOM     64  H49 non d ame      -8.805   7.977  64.031  0.00  0.00     0.084 H 
ATOM     65  C32 non d ame      -7.466   9.577  61.340  0.00  0.00    -0.083 A 
ATOM     66  H50 non d ame      -7.334   7.550  62.077  0.00  0.00     0.083 H 
ATOM     67  C33 non d ame      -8.005  10.840  61.547  0.00  0.00    -0.082 A 
ATOM     68  H51 non d ame      -6.821   9.399  60.479  0.00  0.00     0.083 H 
ATOM     69  C34 non d ame      -8.834  11.082  62.641  0.00  0.00    -0.075 A 
ATOM     70  H52 non d ame      -7.777  11.645  60.848  0.00  0.00     0.083 H 
ATOM     71  H53 non d ame      -9.255  12.076  62.797  0.00  0.00     0.084 H 
ENDBRANCH  58  61
ENDBRANCH  57  58
ENDBRANCH  55  57
ENDBRANCH  52  55
ENDBRANCH  49  52
ENDBRANCH  47  49
BRANCH  47  72
ATOM     72  C24 non d ame      -9.264  15.701  66.905  0.00  0.00    -0.039 C 
ATOM     73  H35 non d ame      -8.974  15.271  67.864  0.00  0.00     0.036 H 
ATOM     74  H36 non d ame      -8.860  15.288  65.980  0.00  0.00     0.036 H 
BRANCH  72  75
ATOM     75  C25 non d ame      -8.866  17.252  66.942  0.00  0.00    -0.001 C 
ATOM     76  C26 non d ame      -7.503  17.502  66.057  0.00  0.00    -0.035 C 
ATOM     77  C27 non d ame      -6.612  18.188  66.813  0.00  0.00     0.085 C 
ATOM     78  H38 non d ame      -7.000  16.554  65.869  0.00  0.00     0.036 H 
ATOM     79  H39 non d ame      -7.712  18.181  65.231  0.00  0.00     0.036 H 
ATOM     80  N5  non d ame      -7.115  18.143  68.237  0.00  0.00    -0.049 N 
ATOM     81  H40 non d ame      -5.680  17.626  66.748  0.00  0.00     0.075 H 
ATOM     82  H41 non d ame      -6.656  19.216  66.454  0.00  0.00     0.075 H 
ATOM     83  C28 non d ame      -8.650  17.652  68.151  0.00  0.00     0.193 C 
ATOM     84  H42 non d ame      -6.575  17.433  68.708  0.00  0.00     0.280 HD
ATOM     85  H43 non d ame      -7.102  19.095  68.575  0.00  0.00     0.280 HD
ATOM     86  H44 non d ame      -9.468  18.361  68.275  0.00  0.00     0.129 H 
ATOM     87  H37 non d ame      -9.718  17.901  66.735  0.00  0.00     0.046 H 
BRANCH  83  88
ATOM     88  O6  non d ame      -8.892  16.620  69.110  0.00  0.00    -0.369 OA
ATOM     89  H45 non d ame      -8.487  15.803  68.809  0.00  0.00     0.212 HD
ENDBRANCH  83  88
ENDBRANCH  72  75
ENDBRANCH  47  72
ENDBRANCH  45  47
ENDBRANCH   1  43
BRANCH   1  90
ATOM     90  C16 non d ame     -11.655  14.821  71.612  0.00  0.00    -0.035 C 
ATOM     91  H21 non d ame     -11.393  13.901  72.138  0.00  0.00     0.037 H 
ATOM     92  H22 non d ame     -10.872  15.516  71.310  0.00  0.00     0.037 H 
BRANCH  90  93
ATOM     93  C17 non d ame     -12.610  15.614  72.559  0.00  0.00    -0.059 C 
ATOM     94  H23 non d ame     -12.374  16.673  72.455  0.00  0.00     0.038 H 
BRANCH  93  95
ATOM     95  C18 non d ame     -14.113  15.422  72.177  0.00  0.00    -0.073 C 
ATOM     96  H24 non d ame     -14.696  16.256  72.568  0.00  0.00     0.028 H 
ATOM     97  H25 non d ame     -14.210  15.388  71.092  0.00  0.00     0.028 H 
ATOM     98  H26 non d ame     -14.479  14.489  72.605  0.00  0.00     0.028 H 
ENDBRANCH  93  95
BRANCH  93  99
ATOM     99  C19 non d ame     -12.367  15.236  74.023  0.00  0.00    -0.073 C 
ATOM    100  H27 non d ame     -12.035  14.199  74.080  0.00  0.00     0.028 H 
ATOM    101  H28 non d ame     -11.601  15.888  74.443  0.00  0.00     0.028 H 
ATOM    102  H29 non d ame     -13.292  15.354  74.587  0.00  0.00     0.028 H 
ENDBRANCH  93  99
ENDBRANCH  90  93
ENDBRANCH   1  90
TORSDOF 26
ENDMDL
MODEL 2
REMARK VINA RESULT:      -6.7      3.225      6.543
REMARK  26 active torsions:
REMARK  status: ('A' for Active; 'I' for Inactive)
REMARK    1  A    between atoms: C2_2  and  C3_3 
REMARK    2  A    between atoms: C4_6  and  C5_7 
REMARK       I    between atoms: C5_7  and  N2_9 
REMARK    3  A    between atoms: N2_9  and  C6_10 
REMARK    4  A    between atoms: C6_10  and  C7_11 
REMARK    5  A    between atoms: C6_10  and  C8_13 
REMARK       I    between atoms: C7_11  and  N3_14 
REMARK    6  A    between atoms: N3_14  and  C9_15 
REMARK    7  A    between atoms: C9_15  and  C10_16 
REMARK    8  A    between atoms: C9_15  and  C11_18 
REMARK       I    between atoms: C10_16  and  N4_21 
REMARK    9  A    between atoms: C11_18  and  C12_19 
REMARK   10  A    between atoms: C11_18  and  C13_20 
REMARK   11  A    between atoms: N4_21  and  C14_22 
REMARK   12  A    between atoms: C14_22  and  C15_23 
REMARK   13  A    between atoms: C14_22  and  C16_25 
REMARK       I    between atoms: C15_23  and  N6_40 
REMARK   14  A    between atoms: C16_25  and  C17_26 
REMARK   15  A    between atoms: C17_26  and  C18_27 
REMARK   16  A    between atoms: C17_26  and  C19_28 
REMARK   17  A    between atoms: C20_29  and  C21_30 
REMARK   18  A    between atoms: C20_29  and  C24_33 
REMARK   19  A    between atoms: C20_29  and  N6_40 
REMARK   20  A    between atoms: C21_30  and  C22_31 
REMARK   21  A    between atoms: C22_31  and  C23_32 
REMARK   22  A    between atoms: C23_32  and  O8_43 
REMARK   23  A    between atoms: C24_33  and  C25_34 
REMARK   24  A    between atoms: C28_38  and  O6_39 
REMARK   25  A    between atoms: C29_42  and  O8_43 
REMARK   26  A    between atoms: C29_42  and  C35_49 
ROOT
ATOM      1  C14 non d ame     -10.215  10.687  68.622  0.00  0.00     0.089 C 
ATOM      2  H20 non d ame      -9.278  10.649  69.180  0.00  0.00     0.087 H 
ENDROOT
BRANCH   1   3
ATOM      3  N4  non d ame     -10.825   9.368  68.701  0.00  0.00    -0.346 N 
ATOM      4  C10 non d ame     -10.103   8.234  69.385  0.00  0.00     0.241 C 
ATOM      5  O4  non d ame      -9.030   8.407  69.862  0.00  0.00    -0.271 OA
ATOM      6  H19 non d ame     -11.737   9.240  68.286  0.00  0.00     0.163 HD
BRANCH   4   7
ATOM      7  C9  non d ame     -10.751   6.877  69.462  0.00  0.00     0.092 C 
ATOM      8  H11 non d ame     -11.798   6.961  69.168  0.00  0.00     0.088 H 
BRANCH   7   9
ATOM      9  N3  non d ame     -10.106   5.971  68.506  0.00  0.00    -0.346 N 
ATOM     10  C7  non d ame     -10.449   6.035  67.108  0.00  0.00     0.240 C 
ATOM     11  O3  non d ame     -11.244   6.808  66.732  0.00  0.00    -0.271 OA
ATOM     12  H10 non d ame      -9.418   5.298  68.815  0.00  0.00     0.163 HD
BRANCH  10  13
ATOM     13  C6  non d ame      -9.761   5.066  66.096  0.00  0.00     0.086 C 
ATOM     14  H6  non d ame     -10.378   4.860  65.222  0.00  0.00     0.086 H 
BRANCH  13  15
ATOM     15  N2  non d ame      -8.540   5.685  65.607  0.00  0.00    -0.343 N 
ATOM     16  C5  non d ame      -8.175   5.546  64.196  0.00  0.00     0.273 C 
ATOM     17  O2  non d ame      -8.869   4.931  63.463  0.00  0.00    -0.266 OA
ATOM     18  H5  non d ame      -7.952   6.207  66.241  0.00  0.00     0.163 HD
BRANCH  16  19
ATOM     19  C4  non d ame      -6.888   6.197  63.665  0.00  0.00     0.154 A 
ATOM     20  C1  non d ame      -6.574   7.593  63.635  0.00  0.00    -0.017 A 
ATOM     21  C2  non d ame      -5.286   7.663  63.059  0.00  0.00     0.077 A 
ATOM     22  H1  non d ame      -7.186   8.427  63.979  0.00  0.00     0.091 H 
ATOM     23  O1  non d ame      -4.913   6.445  62.795  0.00  0.00    -0.218 OA
ATOM     24  N1  non d ame      -5.831   5.572  63.140  0.00  0.00    -0.123 NA
BRANCH  21  25
ATOM     25  C3  non d ame      -4.483   8.930  62.798  0.00  0.00    -0.029 C 
ATOM     26  H2  non d ame      -3.445   8.770  63.090  0.00  0.00     0.036 H 
ATOM     27  H3  non d ame      -4.528   9.177  61.738  0.00  0.00     0.036 H 
ATOM     28  H4  non d ame      -4.902   9.752  63.380  0.00  0.00     0.036 H 
ENDBRANCH  21  25
ENDBRANCH  16  19
ENDBRANCH  13  15
BRANCH  13  29
ATOM     29  C8  non d ame      -9.439   3.763  66.783  0.00  0.00    -0.049 C 
ATOM     30  H7  non d ame      -8.557   3.318  66.322  0.00  0.00     0.030 H 
ATOM     31  H8  non d ame      -9.244   3.946  67.839  0.00  0.00     0.030 H 
ATOM     32  H9  non d ame     -10.284   3.081  66.682  0.00  0.00     0.030 H 
ENDBRANCH  13  29
ENDBRANCH  10  13
ENDBRANCH   7   9
BRANCH   7  33
ATOM     33  C11 non d ame     -10.592   6.307  70.902  0.00  0.00    -0.033 C 
ATOM     34  H12 non d ame      -9.847   6.913  71.415  0.00  0.00     0.042 H 
BRANCH  33  35
ATOM     35  C12 non d ame     -11.924   6.419  71.708  0.00  0.00    -0.071 C 
ATOM     36  H13 non d ame     -11.891   7.304  72.343  0.00  0.00     0.028 H 
ATOM     37  H14 non d ame     -12.762   6.499  71.016  0.00  0.00     0.028 H 
ATOM     38  H15 non d ame     -12.047   5.531  72.327  0.00  0.00     0.028 H 
ENDBRANCH  33  35
BRANCH  33  39
ATOM     39  C13 non d ame     -10.075   4.833  70.866  0.00  0.00    -0.071 C 
ATOM     40  H16 non d ame     -10.655   4.262  70.141  0.00  0.00     0.028 H 
ATOM     41  H17 non d ame      -9.023   4.824  70.578  0.00  0.00     0.028 H 
ATOM     42  H18 non d ame     -10.185   4.385  71.853  0.00  0.00     0.028 H 
ENDBRANCH  33  39
ENDBRANCH   7  33
ENDBRANCH   4   7
ENDBRANCH   1   3
BRANCH   1  43
ATOM     43  C15 non d ame     -11.208  11.727  69.211  0.00  0.00     0.240 C 
ATOM     44  O5  non d ame     -12.224  11.360  69.708  0.00  0.00    -0.271 OA
ATOM     45  N6  non d ame     -10.890  13.183  69.165  0.00  0.00    -0.355 N 
ATOM     46  H46 non d ame     -10.029  13.506  68.749  0.00  0.00     0.162 HD
BRANCH  45  47
ATOM     47  C20 non d ame     -11.845  14.160  69.730  0.00  0.00     0.013 C 
ATOM     48  H30 non d ame     -12.827  13.689  69.764  0.00  0.00     0.072 H 
BRANCH  47  49
ATOM     49  C21 non d ame     -11.891  15.385  68.845  0.00  0.00    -0.038 C 
ATOM     50  H31 non d ame     -11.821  15.013  67.823  0.00  0.00     0.036 H 
ATOM     51  H32 non d ame     -12.770  15.946  69.163  0.00  0.00     0.036 H 
BRANCH  49  52
ATOM     52  C22 non d ame     -10.679  16.320  69.053  0.00  0.00     0.018 C 
ATOM     53  H33 non d ame     -11.079  17.334  69.022  0.00  0.00     0.048 H 
ATOM     54  H34 non d ame     -10.179  15.960  69.951  0.00  0.00     0.048 H 
BRANCH  52  55
ATOM     55  C23 non d ame      -9.624  16.241  67.914  0.00  0.00     0.259 C 
ATOM     56  O7  non d ame      -8.968  17.191  67.634  0.00  0.00    -0.265 OA
BRANCH  55  57
ATOM     57  O8  non d ame      -9.461  15.023  67.199  0.00  0.00    -0.317 OA
BRANCH  57  58
ATOM     58  C29 non d ame      -9.527  15.170  65.777  0.00  0.00     0.052 C 
ATOM     59  H47 non d ame      -9.962  16.153  65.602  0.00  0.00     0.082 H 
ATOM     60  H48 non d ame      -8.525  14.944  65.411  0.00  0.00     0.082 H 
BRANCH  58  61
ATOM     61  C35 non d ame     -10.503  14.095  65.229  0.00  0.00    -0.034 A 
ATOM     62  C30 non d ame     -10.078  13.197  64.256  0.00  0.00    -0.075 A 
ATOM     63  C31 non d ame     -10.956  12.232  63.764  0.00  0.00    -0.082 A 
ATOM     64  H49 non d ame      -9.056  13.249  63.879  0.00  0.00     0.084 H 
ATOM     65  C32 non d ame     -12.265  12.169  64.248  0.00  0.00    -0.083 A 
ATOM     66  H50 non d ame     -10.617  11.527  63.004  0.00  0.00     0.083 H 
ATOM     67  C33 non d ame     -12.687  13.070  65.217  0.00  0.00    -0.082 A 
ATOM     68  H51 non d ame     -12.957  11.417  63.869  0.00  0.00     0.083 H 
ATOM     69  C34 non d ame     -11.812  14.034  65.712  0.00  0.00    -0.075 A 
ATOM     70  H52 non d ame     -13.710  13.019  65.590  0.00  0.00     0.083 H 
ATOM     71  H53 non d ame     -12.151  14.737  66.474  0.00  0.00     0.084 H 
ENDBRANCH  58  61
ENDBRANCH  57  58
ENDBRANCH  55  57
ENDBRANCH  52  55
ENDBRANCH  49  52
ENDBRANCH  47  49
BRANCH  47  72
ATOM     72  C24 non d ame     -11.400  14.562  71.135  0.00  0.00    -0.039 C 
ATOM     73  H35 non d ame     -10.638  13.835  71.417  0.00  0.00     0.036 H 
ATOM     74  H36 non d ame     -11.144  15.620  71.067  0.00  0.00     0.036 H 
BRANCH  72  75
ATOM     75  C25 non d ame     -12.594  14.432  72.195  0.00  0.00    -0.001 C 
ATOM     76  C26 non d ame     -13.976  13.978  71.429  0.00  0.00    -0.035 C 
ATOM     77  C27 non d ame     -14.969  14.829  71.781  0.00  0.00     0.085 C 
ATOM     78  H38 non d ame     -13.876  14.132  70.355  0.00  0.00     0.036 H 
ATOM     79  H39 non d ame     -14.318  13.016  71.812  0.00  0.00     0.036 H 
ATOM     80  N5  non d ame     -14.317  16.012  72.456  0.00  0.00    -0.049 N 
ATOM     81  H40 non d ame     -15.417  15.158  70.842  0.00  0.00     0.075 H 
ATOM     82  H41 non d ame     -15.570  14.290  72.512  0.00  0.00     0.075 H 
ATOM     83  C28 non d ame     -12.809  15.552  72.800  0.00  0.00     0.193 C 
ATOM     84  H42 non d ame     -14.280  16.750  71.768  0.00  0.00     0.280 HD
ATOM     85  H43 non d ame     -14.814  16.156  73.324  0.00  0.00     0.280 HD
ATOM     86  H44 non d ame     -12.529  15.286  73.818  0.00  0.00     0.129 H 
ATOM     87  H37 non d ame     -12.303  13.856  73.075  0.00  0.00     0.046 H 
BRANCH  83  88
ATOM     88  O6  non d ame     -11.882  16.564  72.402  0.00  0.00    -0.369 OA
ATOM     89  H45 non d ame     -11.865  17.260  73.063  0.00  0.00     0.212 HD
ENDBRANCH  83  88
ENDBRANCH  72  75
ENDBRANCH  47  72
ENDBRANCH  45  47
ENDBRANCH   1  43
BRANCH   1  90
ATOM     90  C16 non d ame      -9.933  11.016  67.165  0.00  0.00    -0.035 C 
ATOM     91  H21 non d ame     -10.874  10.841  66.642  0.00  0.00     0.037 H 
ATOM     92  H22 non d ame      -9.493  12.013  67.175  0.00  0.00     0.037 H 
BRANCH  90  93
ATOM     93  C17 non d ame      -8.878  10.075  66.502  0.00  0.00    -0.059 C 
ATOM     94  H23 non d ame      -8.602   9.318  67.236  0.00  0.00     0.038 H 
BRANCH  93  95
ATOM     95  C18 non d ame      -9.452   9.336  65.250  0.00  0.00    -0.073 C 
ATOM     96  H24 non d ame     -10.418   9.765  64.987  0.00  0.00     0.028 H 
ATOM     97  H25 non d ame      -8.763   9.450  64.414  0.00  0.00     0.028 H 
ATOM     98  H26 non d ame      -9.574   8.277  65.478  0.00  0.00     0.028 H 
ENDBRANCH  93  95
BRANCH  93  99
ATOM     99  C19 non d ame      -7.605  10.845  66.143  0.00  0.00    -0.073 C 
ATOM    100  H27 non d ame      -7.568  11.773  66.715  0.00  0.00     0.028 H 
ATOM    101  H28 non d ame      -6.733  10.236  66.381  0.00  0.00     0.028 H 
ATOM    102  H29 non d ame      -7.606  11.074  65.077  0.00  0.00     0.028 H 
ENDBRANCH  93  99
ENDBRANCH  90  93
ENDBRANCH   1  90
TORSDOF 26
ENDMDL
MODEL 3
REMARK VINA RESULT:      -6.6      1.765      2.605
REMARK  26 active torsions:
REMARK  status: ('A' for Active; 'I' for Inactive)
REMARK    1  A    between atoms: C2_2  and  C3_3 
REMARK    2  A    between atoms: C4_6  and  C5_7 
REMARK       I    between atoms: C5_7  and  N2_9 
REMARK    3  A    between atoms: N2_9  and  C6_10 
REMARK    4  A    between atoms: C6_10  and  C7_11 
REMARK    5  A    between atoms: C6_10  and  C8_13 
REMARK       I    between atoms: C7_11  and  N3_14 
REMARK    6  A    between atoms: N3_14  and  C9_15 
REMARK    7  A    between atoms: C9_15  and  C10_16 
REMARK    8  A    between atoms: C9_15  and  C11_18 
REMARK       I    between atoms: C10_16  and  N4_21 
REMARK    9  A    between atoms: C11_18  and  C12_19 
REMARK   10  A    between atoms: C11_18  and  C13_20 
REMARK   11  A    between atoms: N4_21  and  C14_22 
REMARK   12  A    between atoms: C14_22  and  C15_23 
REMARK   13  A    between atoms: C14_22  and  C16_25 
REMARK       I    between atoms: C15_23  and  N6_40 
REMARK   14  A    between atoms: C16_25  and  C17_26 
REMARK   15  A    between atoms: C17_26  and  C18_27 
REMARK   16  A    between atoms: C17_26  and  C19_28 
REMARK   17  A    between atoms: C20_29  and  C21_30 
REMARK   18  A    between atoms: C20_29  and  C24_33 
REMARK   19  A    between atoms: C20_29  and  N6_40 
REMARK   20  A    between atoms: C21_30  and  C22_31 
REMARK   21  A    between atoms: C22_31  and  C23_32 
REMARK   22  A    between atoms: C23_32  and  O8_43 
REMARK   23  A    between atoms: C24_33  and  C25_34 
REMARK   24  A    between atoms: C28_38  and  O6_39 
REMARK   25  A    between atoms: C29_42  and  O8_43 
REMARK   26  A    between atoms: C29_42  and  C35_49 
ROOT
ATOM      1  C14 non d ame     -11.769  14.173  69.698  0.00  0.00     0.089 C 
ATOM      2  H20 non d ame     -12.762  13.731  69.600  0.00  0.00     0.087 H 
ENDROOT
BRANCH   1   3
ATOM      3  N4  non d ame     -10.796  13.107  69.513  0.00  0.00    -0.346 N 
ATOM      4  C10 non d ame     -11.104  11.944  68.603  0.00  0.00     0.241 C 
ATOM      5  O4  non d ame     -12.144  11.887  68.033  0.00  0.00    -0.271 OA
ATOM      6  H19 non d ame      -9.918  13.173  70.008  0.00  0.00     0.163 HD
BRANCH   4   7
ATOM      7  C9  non d ame     -10.083  10.852  68.418  0.00  0.00     0.092 C 
ATOM      8  H11 non d ame      -9.786  10.812  67.370  0.00  0.00     0.088 H 
BRANCH   7   9
ATOM      9  N3  non d ame      -8.881  11.170  69.196  0.00  0.00    -0.346 N 
ATOM     10  C7  non d ame      -7.610  11.313  68.532  0.00  0.00     0.240 C 
ATOM     11  O3  non d ame      -7.533  11.175  67.372  0.00  0.00    -0.271 OA
ATOM     12  H10 non d ame      -8.930  11.291  70.198  0.00  0.00     0.163 HD
BRANCH  10  13
ATOM     13  C6  non d ame      -6.334  11.648  69.366  0.00  0.00     0.086 C 
ATOM     14  H6  non d ame      -5.414  11.548  68.789  0.00  0.00     0.086 H 
BRANCH  13  15
ATOM     15  N2  non d ame      -6.404  13.034  69.799  0.00  0.00    -0.343 N 
ATOM     16  C5  non d ame      -5.273  13.928  69.546  0.00  0.00     0.273 C 
ATOM     17  O2  non d ame      -4.309  13.522  68.996  0.00  0.00    -0.266 OA
ATOM     18  H5  non d ame      -7.231  13.372  70.271  0.00  0.00     0.163 HD
BRANCH  16  19
ATOM     19  C4  non d ame      -5.335  15.396  69.997  0.00  0.00     0.154 A 
ATOM     20  C1  non d ame      -5.844  16.508  69.255  0.00  0.00    -0.017 A 
ATOM     21  C2  non d ame      -5.675  17.621  70.108  0.00  0.00     0.077 A 
ATOM     22  H1  non d ame      -6.271  16.507  68.252  0.00  0.00     0.091 H 
ATOM     23  O1  non d ame      -5.134  17.188  71.208  0.00  0.00    -0.218 OA
ATOM     24  N1  non d ame      -4.926  15.892  71.168  0.00  0.00    -0.123 NA
BRANCH  21  25
ATOM     25  C3  non d ame      -6.059  19.062  69.795  0.00  0.00    -0.029 C 
ATOM     26  H2  non d ame      -7.036  19.082  69.313  0.00  0.00     0.036 H 
ATOM     27  H3  non d ame      -6.099  19.636  70.720  0.00  0.00     0.036 H 
ATOM     28  H4  non d ame      -5.315  19.500  69.128  0.00  0.00     0.036 H 
ENDBRANCH  21  25
ENDBRANCH  16  19
ENDBRANCH  13  15
BRANCH  13  29
ATOM     29  C8  non d ame      -6.259  10.736  70.564  0.00  0.00    -0.049 C 
ATOM     30  H7  non d ame      -5.776  11.260  71.389  0.00  0.00     0.030 H 
ATOM     31  H8  non d ame      -7.265  10.440  70.860  0.00  0.00     0.030 H 
ATOM     32  H9  non d ame      -5.678   9.849  70.309  0.00  0.00     0.030 H 
ENDBRANCH  13  29
ENDBRANCH  10  13
ENDBRANCH   7   9
BRANCH   7  33
ATOM     33  C11 non d ame     -10.675   9.500  68.911  0.00  0.00    -0.033 C 
ATOM     34  H12 non d ame     -11.759   9.598  68.917  0.00  0.00     0.042 H 
BRANCH  33  35
ATOM     35  C12 non d ame     -10.314   8.333  67.939  0.00  0.00    -0.071 C 
ATOM     36  H13 non d ame     -10.285   7.395  68.493  0.00  0.00     0.028 H 
ATOM     37  H14 non d ame     -11.066   8.269  67.154  0.00  0.00     0.028 H 
ATOM     38  H15 non d ame      -9.337   8.522  67.494  0.00  0.00     0.028 H 
ENDBRANCH  33  35
BRANCH  33  39
ATOM     39  C13 non d ame     -10.211   9.185  70.370  0.00  0.00    -0.071 C 
ATOM     40  H16 non d ame      -9.670   8.240  70.383  0.00  0.00     0.028 H 
ATOM     41  H17 non d ame      -9.556   9.983  70.723  0.00  0.00     0.028 H 
ATOM     42  H18 non d ame     -11.081   9.116  71.021  0.00  0.00     0.028 H 
ENDBRANCH  33  39
ENDBRANCH   7  33
ENDBRANCH   4   7
ENDBRANCH   1   3
BRANCH   1  43
ATOM     43  C15 non d ame     -11.508  15.273  68.631  0.00  0.00     0.240 C 
ATOM     44  O5  non d ame     -11.934  16.370  68.795  0.00  0.00    -0.271 OA
ATOM     45  N6  non d ame     -10.716  14.961  67.406  0.00  0.00    -0.355 N 
ATOM     46  H46 non d ame     -10.345  14.034  67.258  0.00  0.00     0.162 HD
BRANCH  45  47
ATOM     47  C20 non d ame     -10.475  16.018  66.401  0.00  0.00     0.013 C 
ATOM     48  H30 non d ame     -11.155  16.843  66.611  0.00  0.00     0.072 H 
BRANCH  47  49
ATOM     49  C21 non d ame     -10.745  15.466  65.019  0.00  0.00    -0.038 C 
ATOM     50  H31 non d ame     -10.846  16.334  64.370  0.00  0.00     0.036 H 
ATOM     51  H32 non d ame      -9.956  14.736  64.835  0.00  0.00     0.036 H 
BRANCH  49  52
ATOM     52  C22 non d ame     -12.081  14.696  64.933  0.00  0.00     0.018 C 
ATOM     53  H33 non d ame     -12.532  14.775  65.922  0.00  0.00     0.048 H 
ATOM     54  H34 non d ame     -12.599  15.102  64.064  0.00  0.00     0.048 H 
BRANCH  52  55
ATOM     55  C23 non d ame     -11.912  13.176  64.659  0.00  0.00     0.259 C 
ATOM     56  O7  non d ame     -12.807  12.423  64.866  0.00  0.00    -0.265 OA
BRANCH  55  57
ATOM     57  O8  non d ame     -10.667  12.690  64.172  0.00  0.00    -0.317 OA
BRANCH  57  58
ATOM     58  C29 non d ame     -10.787  11.586  63.269  0.00  0.00     0.052 C 
ATOM     59  H47 non d ame     -11.685  11.051  63.575  0.00  0.00     0.082 H 
ATOM     60  H48 non d ame     -10.723  12.016  62.269  0.00  0.00     0.082 H 
BRANCH  58  61
ATOM     61  C35 non d ame      -9.563  10.657  63.483  0.00  0.00    -0.034 A 
ATOM     62  C30 non d ame      -8.503  10.681  62.583  0.00  0.00    -0.075 A 
ATOM     63  C31 non d ame      -7.403   9.846  62.776  0.00  0.00    -0.082 A 
ATOM     64  H49 non d ame      -8.533  11.356  61.727  0.00  0.00     0.084 H 
ATOM     65  C32 non d ame      -7.369   8.981  63.873  0.00  0.00    -0.083 A 
ATOM     66  H50 non d ame      -6.573   9.870  62.071  0.00  0.00     0.083 H 
ATOM     67  C33 non d ame      -8.431   8.957  64.767  0.00  0.00    -0.082 A 
ATOM     68  H51 non d ame      -6.513   8.325  64.032  0.00  0.00     0.083 H 
ATOM     69  C34 non d ame      -9.531   9.792  64.578  0.00  0.00    -0.075 A 
ATOM     70  H52 non d ame      -8.401   8.279  65.621  0.00  0.00     0.083 H 
ATOM     71  H53 non d ame     -10.361   9.768  65.286  0.00  0.00     0.084 H 
ENDBRANCH  58  61
ENDBRANCH  57  58
ENDBRANCH  55  57
ENDBRANCH  52  55
ENDBRANCH  49  52
ENDBRANCH  47  49
BRANCH  47  72
ATOM     72  C24 non d ame      -9.025  16.491  66.487  0.00  0.00    -0.039 C 
ATOM     73  H35 non d ame      -8.530  15.787  67.158  0.00  0.00     0.036 H 
ATOM     74  H36 non d ame      -8.688  16.586  65.454  0.00  0.00     0.036 H 
BRANCH  72  75
ATOM     75  C25 non d ame      -8.912  17.941  67.157  0.00  0.00    -0.001 C 
ATOM     76  C26 non d ame     -10.351  18.727  67.034  0.00  0.00    -0.035 C 
ATOM     77  C27 non d ame     -10.134  19.954  66.501  0.00  0.00     0.085 C 
ATOM     78  H38 non d ame     -10.984  18.237  66.295  0.00  0.00     0.036 H 
ATOM     79  H39 non d ame     -10.743  18.947  68.027  0.00  0.00     0.036 H 
ATOM     80  N5  non d ame      -8.729  19.952  65.947  0.00  0.00    -0.049 N 
ATOM     81  H40 non d ame     -10.842  20.042  65.676  0.00  0.00     0.075 H 
ATOM     82  H41 non d ame     -10.184  20.648  67.339  0.00  0.00     0.075 H 
ATOM     83  C28 non d ame      -8.005  18.655  66.579  0.00  0.00     0.193 C 
ATOM     84  H42 non d ame      -8.816  19.818  64.950  0.00  0.00     0.280 HD
ATOM     85  H43 non d ame      -8.278  20.780  66.309  0.00  0.00     0.280 HD
ATOM     86  H44 non d ame      -7.288  18.762  67.393  0.00  0.00     0.129 H 
ATOM     87  H37 non d ame      -8.449  17.905  68.143  0.00  0.00     0.046 H 
BRANCH  83  88
ATOM     88  O6  non d ame      -7.317  17.928  65.559  0.00  0.00    -0.369 OA
ATOM     89  H45 non d ame      -7.896  17.248  65.206  0.00  0.00     0.212 HD
ENDBRANCH  83  88
ENDBRANCH  72  75
ENDBRANCH  47  72
ENDBRANCH  45  47
ENDBRANCH   1  43
BRANCH   1  90
ATOM     90  C16 non d ame     -11.602  14.760  71.090  0.00  0.00    -0.035 C 
ATOM     91  H21 non d ame     -10.758  14.227  71.529  0.00  0.00     0.037 H 
ATOM     92  H22 non d ame     -11.548  15.839  70.944  0.00  0.00     0.037 H 
BRANCH  90  93
ATOM     93  C17 non d ame     -12.823  14.503  72.030  0.00  0.00    -0.059 C 
ATOM     94  H23 non d ame     -12.955  13.425  72.113  0.00  0.00     0.038 H 
BRANCH  93  95
ATOM     95  C18 non d ame     -12.588  15.066  73.468  0.00  0.00    -0.073 C 
ATOM     96  H24 non d ame     -13.547  15.326  73.917  0.00  0.00     0.028 H 
ATOM     97  H25 non d ame     -12.095  14.309  74.078  0.00  0.00     0.028 H 
ATOM     98  H26 non d ame     -11.959  15.955  73.412  0.00  0.00     0.028 H 
ENDBRANCH  93  95
BRANCH  93  99
ATOM     99  C19 non d ame     -14.109  15.073  71.425  0.00  0.00    -0.073 C 
ATOM    100  H27 non d ame     -14.305  14.590  70.467  0.00  0.00     0.028 H 
ATOM    101  H28 non d ame     -14.942  14.887  72.104  0.00  0.00     0.028 H 
ATOM    102  H29 non d ame     -13.996  16.147  71.276  0.00  0.00     0.028 H 
ENDBRANCH  93  99
ENDBRANCH  90  93
ENDBRANCH   1  90
TORSDOF 26
ENDMDL
MODEL 4
REMARK VINA RESULT:      -6.5      3.106      7.255
REMARK  26 active torsions:
REMARK  status: ('A' for Active; 'I' for Inactive)
REMARK    1  A    between atoms: C2_2  and  C3_3 
REMARK    2  A    between atoms: C4_6  and  C5_7 
REMARK       I    between atoms: C5_7  and  N2_9 
REMARK    3  A    between atoms: N2_9  and  C6_10 
REMARK    4  A    between atoms: C6_10  and  C7_11 
REMARK    5  A    between atoms: C6_10  and  C8_13 
REMARK       I    between atoms: C7_11  and  N3_14 
REMARK    6  A    between atoms: N3_14  and  C9_15 
REMARK    7  A    between atoms: C9_15  and  C10_16 
REMARK    8  A    between atoms: C9_15  and  C11_18 
REMARK       I    between atoms: C10_16  and  N4_21 
REMARK    9  A    between atoms: C11_18  and  C12_19 
REMARK   10  A    between atoms: C11_18  and  C13_20 
REMARK   11  A    between atoms: N4_21  and  C14_22 
REMARK   12  A    between atoms: C14_22  and  C15_23 
REMARK   13  A    between atoms: C14_22  and  C16_25 
REMARK       I    between atoms: C15_23  and  N6_40 
REMARK   14  A    between atoms: C16_25  and  C17_26 
REMARK   15  A    between atoms: C17_26  and  C18_27 
REMARK   16  A    between atoms: C17_26  and  C19_28 
REMARK   17  A    between atoms: C20_29  and  C21_30 
REMARK   18  A    between atoms: C20_29  and  C24_33 
REMARK   19  A    between atoms: C20_29  and  N6_40 
REMARK   20  A    between atoms: C21_30  and  C22_31 
REMARK   21  A    between atoms: C22_31  and  C23_32 
REMARK   22  A    between atoms: C23_32  and  O8_43 
REMARK   23  A    between atoms: C24_33  and  C25_34 
REMARK   24  A    between atoms: C28_38  and  O6_39 
REMARK   25  A    between atoms: C29_42  and  O8_43 
REMARK   26  A    between atoms: C29_42  and  C35_49 
ROOT
ATOM      1  C14 non d ame     -11.971  13.611  70.020  0.00  0.00     0.089 C 
ATOM      2  H20 non d ame     -12.954  13.521  69.556  0.00  0.00     0.087 H 
ENDROOT
BRANCH   1   3
ATOM      3  N4  non d ame     -11.363  12.289  70.021  0.00  0.00    -0.346 N 
ATOM      4  C10 non d ame     -11.478  11.397  68.810  0.00  0.00     0.241 C 
ATOM      5  O4  non d ame     -12.066  11.765  67.847  0.00  0.00    -0.271 OA
ATOM      6  H19 non d ame     -10.869  11.993  70.851  0.00  0.00     0.163 HD
BRANCH   4   7
ATOM      7  C9  non d ame     -10.839  10.033  68.826  0.00  0.00     0.092 C 
ATOM      8  H11 non d ame      -9.914  10.076  69.401  0.00  0.00     0.088 H 
BRANCH   7   9
ATOM      9  N3  non d ame     -11.727   9.085  69.507  0.00  0.00    -0.346 N 
ATOM     10  C7  non d ame     -11.660   8.936  70.939  0.00  0.00     0.240 C 
ATOM     11  O3  non d ame     -10.897   9.569  71.561  0.00  0.00    -0.271 OA
ATOM     12  H10 non d ame     -12.391   8.531  68.984  0.00  0.00     0.163 HD
BRANCH  10  13
ATOM     13  C6  non d ame     -12.606   7.923  71.657  0.00  0.00     0.086 C 
ATOM     14  H6  non d ame     -12.997   7.160  70.983  0.00  0.00     0.086 H 
BRANCH  13  15
ATOM     15  N2  non d ame     -11.853   7.224  72.685  0.00  0.00    -0.343 N 
ATOM     16  C5  non d ame     -11.059   6.047  72.325  0.00  0.00     0.273 C 
ATOM     17  O2  non d ame     -11.036   5.669  71.206  0.00  0.00    -0.266 OA
ATOM     18  H5  non d ame     -11.882   7.552  73.640  0.00  0.00     0.163 HD
BRANCH  16  19
ATOM     19  C4  non d ame     -10.259   5.299  73.402  0.00  0.00     0.154 A 
ATOM     20  C1  non d ame      -8.875   4.937  73.356  0.00  0.00    -0.017 A 
ATOM     21  C2  non d ame      -8.632   4.274  74.579  0.00  0.00     0.077 A 
ATOM     22  H1  non d ame      -8.157   5.127  72.557  0.00  0.00     0.091 H 
ATOM     23  O1  non d ame      -9.750   4.263  75.243  0.00  0.00    -0.218 OA
ATOM     24  N1  non d ame     -10.714   4.856  74.577  0.00  0.00    -0.123 NA
BRANCH  21  25
ATOM     25  C3  non d ame      -7.304   3.682  75.035  0.00  0.00    -0.029 C 
ATOM     26  H2  non d ame      -6.504   4.044  74.389  0.00  0.00     0.036 H 
ATOM     27  H3  non d ame      -7.106   3.984  76.063  0.00  0.00     0.036 H 
ATOM     28  H4  non d ame      -7.352   2.594  74.979  0.00  0.00     0.036 H 
ENDBRANCH  21  25
ENDBRANCH  16  19
ENDBRANCH  13  15
BRANCH  13  29
ATOM     29  C8  non d ame     -13.762   8.664  72.277  0.00  0.00    -0.049 C 
ATOM     30  H7  non d ame     -14.308   9.201  71.501  0.00  0.00     0.030 H 
ATOM     31  H8  non d ame     -14.429   7.955  72.766  0.00  0.00     0.030 H 
ATOM     32  H9  non d ame     -13.385   9.375  73.013  0.00  0.00     0.030 H 
ENDBRANCH  13  29
ENDBRANCH  10  13
ENDBRANCH   7   9
BRANCH   7  33
ATOM     33  C11 non d ame     -10.598   9.556  67.364  0.00  0.00    -0.033 C 
ATOM     34  H12 non d ame     -11.402   9.959  66.750  0.00  0.00     0.042 H 
BRANCH  33  35
ATOM     35  C12 non d ame      -9.252  10.111  66.800  0.00  0.00    -0.071 C 
ATOM     36  H13 non d ame      -8.762  10.717  67.561  0.00  0.00     0.028 H 
ATOM     37  H14 non d ame      -8.605   9.280  66.524  0.00  0.00     0.028 H 
ATOM     38  H15 non d ame      -9.454  10.723  65.922  0.00  0.00     0.028 H 
ENDBRANCH  33  35
BRANCH  33  39
ATOM     39  C13 non d ame     -10.651   7.997  67.268  0.00  0.00    -0.071 C 
ATOM     40  H16 non d ame      -9.769   7.574  67.747  0.00  0.00     0.028 H 
ATOM     41  H17 non d ame     -11.548   7.633  67.771  0.00  0.00     0.028 H 
ATOM     42  H18 non d ame     -10.676   7.698  66.221  0.00  0.00     0.028 H 
ENDBRANCH  33  39
ENDBRANCH   7  33
ENDBRANCH   4   7
ENDBRANCH   1   3
BRANCH   1  43
ATOM     43  C15 non d ame     -11.039  14.582  69.239  0.00  0.00     0.240 C 
ATOM     44  O5  non d ame     -10.091  15.053  69.777  0.00  0.00    -0.271 OA
ATOM     45  N6  non d ame     -11.326  14.917  67.814  0.00  0.00    -0.355 N 
ATOM     46  H46 non d ame     -12.126  14.520  67.345  0.00  0.00     0.162 HD
BRANCH  45  47
ATOM     47  C20 non d ame     -10.430  15.841  67.085  0.00  0.00     0.013 C 
ATOM     48  H30 non d ame      -9.416  15.687  67.454  0.00  0.00     0.072 H 
BRANCH  47  49
ATOM     49  C21 non d ame     -10.863  17.266  67.345  0.00  0.00    -0.038 C 
ATOM     50  H31 non d ame     -11.948  17.266  67.252  0.00  0.00     0.036 H 
ATOM     51  H32 non d ame     -10.396  17.549  68.289  0.00  0.00     0.036 H 
BRANCH  49  52
ATOM     52  C22 non d ame     -10.334  18.255  66.283  0.00  0.00     0.018 C 
ATOM     53  H33 non d ame      -9.633  17.686  65.672  0.00  0.00     0.048 H 
ATOM     54  H34 non d ame     -11.218  18.699  65.827  0.00  0.00     0.048 H 
BRANCH  52  55
ATOM     55  C23 non d ame      -9.520  19.438  66.879  0.00  0.00     0.259 C 
ATOM     56  O7  non d ame     -10.055  20.465  67.144  0.00  0.00    -0.265 OA
BRANCH  55  57
ATOM     57  O8  non d ame      -8.122  19.283  67.092  0.00  0.00    -0.317 OA
BRANCH  57  58
ATOM     58  C29 non d ame      -7.708  19.535  68.438  0.00  0.00     0.052 C 
ATOM     59  H47 non d ame      -7.032  20.388  68.384  0.00  0.00     0.082 H 
ATOM     60  H48 non d ame      -8.626  19.603  69.021  0.00  0.00     0.082 H 
BRANCH  58  61
ATOM     61  C35 non d ame      -6.904  18.302  68.930  0.00  0.00    -0.034 A 
ATOM     62  C30 non d ame      -5.685  18.476  69.577  0.00  0.00    -0.075 A 
ATOM     63  C31 non d ame      -4.964  17.367  70.018  0.00  0.00    -0.082 A 
ATOM     64  H49 non d ame      -5.296  19.481  69.739  0.00  0.00     0.084 H 
ATOM     65  C32 non d ame      -5.464  16.080  69.807  0.00  0.00    -0.083 A 
ATOM     66  H50 non d ame      -4.011  17.508  70.528  0.00  0.00     0.083 H 
ATOM     67  C33 non d ame      -6.680  15.910  69.157  0.00  0.00    -0.082 A 
ATOM     68  H51 non d ame      -4.907  15.208  70.150  0.00  0.00     0.083 H 
ATOM     69  C34 non d ame      -7.405  17.016  68.717  0.00  0.00    -0.075 A 
ATOM     70  H52 non d ame      -7.066  14.904  68.992  0.00  0.00     0.083 H 
ATOM     71  H53 non d ame      -8.359  16.874  68.208  0.00  0.00     0.084 H 
ENDBRANCH  58  61
ENDBRANCH  57  58
ENDBRANCH  55  57
ENDBRANCH  52  55
ENDBRANCH  49  52
ENDBRANCH  47  49
BRANCH  47  72
ATOM     72  C24 non d ame     -10.500  15.551  65.587  0.00  0.00    -0.039 C 
ATOM     73  H35 non d ame     -10.891  16.462  65.134  0.00  0.00     0.036 H 
ATOM     74  H36 non d ame      -9.507  15.192  65.315  0.00  0.00     0.036 H 
BRANCH  72  75
ATOM     75  C25 non d ame     -11.536  14.375  65.257  0.00  0.00    -0.001 C 
ATOM     76  C26 non d ame     -10.718  12.999  64.881  0.00  0.00    -0.035 C 
ATOM     77  C27 non d ame     -11.194  12.517  63.708  0.00  0.00     0.085 C 
ATOM     78  H38 non d ame      -9.678  13.231  64.658  0.00  0.00     0.036 H 
ATOM     79  H39 non d ame     -10.961  12.213  65.596  0.00  0.00     0.036 H 
ATOM     80  N5  non d ame     -12.029  13.611  63.087  0.00  0.00    -0.049 N 
ATOM     81  H40 non d ame     -10.314  12.345  63.086  0.00  0.00     0.075 H 
ATOM     82  H41 non d ame     -11.842  11.684  63.976  0.00  0.00     0.075 H 
ATOM     83  C28 non d ame     -12.296  14.686  64.261  0.00  0.00     0.193 C 
ATOM     84  H42 non d ame     -11.454  14.043  62.379  0.00  0.00     0.280 HD
ATOM     85  H43 non d ame     -12.911  13.188  62.833  0.00  0.00     0.280 HD
ATOM     86  H44 non d ame     -13.264  14.736  64.758  0.00  0.00     0.129 H 
ATOM     87  H37 non d ame     -12.322  14.296  66.008  0.00  0.00     0.046 H 
BRANCH  83  88
ATOM     88  O6  non d ame     -12.044  16.010  63.784  0.00  0.00    -0.369 OA
ATOM     89  H45 non d ame     -11.136  16.253  63.982  0.00  0.00     0.212 HD
ENDBRANCH  83  88
ENDBRANCH  72  75
ENDBRANCH  47  72
ENDBRANCH  45  47
ENDBRANCH   1  43
BRANCH   1  90
ATOM     90  C16 non d ame     -12.120  14.090  71.454  0.00  0.00    -0.035 C 
ATOM     91  H21 non d ame     -12.734  13.334  71.948  0.00  0.00     0.037 H 
ATOM     92  H22 non d ame     -11.105  14.279  71.803  0.00  0.00     0.037 H 
BRANCH  90  93
ATOM     93  C17 non d ame     -12.892  15.441  71.588  0.00  0.00    -0.059 C 
ATOM     94  H23 non d ame     -12.670  16.037  70.703  0.00  0.00     0.038 H 
BRANCH  93  95
ATOM     95  C18 non d ame     -14.439  15.233  71.646  0.00  0.00    -0.073 C 
ATOM     96  H24 non d ame     -14.883  15.989  72.294  0.00  0.00     0.028 H 
ATOM     97  H25 non d ame     -14.856  15.324  70.643  0.00  0.00     0.028 H 
ATOM     98  H26 non d ame     -14.658  14.241  72.042  0.00  0.00     0.028 H 
ENDBRANCH  93  95
BRANCH  93  99
ATOM     99  C19 non d ame     -12.403  16.233  72.803  0.00  0.00    -0.073 C 
ATOM    100  H27 non d ame     -13.190  16.264  73.557  0.00  0.00     0.028 H 
ATOM    101  H28 non d ame     -11.519  15.749  73.219  0.00  0.00     0.028 H 
ATOM    102  H29 non d ame     -12.150  17.248  72.498  0.00  0.00     0.028 H 
ENDBRANCH  93  99
ENDBRANCH  90  93
ENDBRANCH   1  90
TORSDOF 26
ENDMDL
MODEL 5
REMARK VINA RESULT:      -6.4      2.408      5.490
REMARK  26 active torsions:
REMARK  status: ('A' for Active; 'I' for Inactive)
REMARK    1  A    between atoms: C2_2  and  C3_3 
REMARK    2  A    between atoms: C4_6  and  C5_7 
REMARK       I    between atoms: C5_7  and  N2_9 
REMARK    3  A    between atoms: N2_9  and  C6_10 
REMARK    4  A    between atoms: C6_10  and  C7_11 
REMARK    5  A    between atoms: C6_10  and  C8_13 
REMARK       I    between atoms: C7_11  and  N3_14 
REMARK    6  A    between atoms: N3_14  and  C9_15 
REMARK    7  A    between atoms: C9_15  and  C10_16 
REMARK    8  A    between atoms: C9_15  and  C11_18 
REMARK       I    between atoms: C10_16  and  N4_21 
REMARK    9  A    between atoms: C11_18  and  C12_19 
REMARK   10  A    between atoms: C11_18  and  C13_20 
REMARK   11  A    between atoms: N4_21  and  C14_22 
REMARK   12  A    between atoms: C14_22  and  C15_23 
REMARK   13  A    between atoms: C14_22  and  C16_25 
REMARK       I    between atoms: C15_23  and  N6_40 
REMARK   14  A    between atoms: C16_25  and  C17_26 
REMARK   15  A    between atoms: C17_26  and  C18_27 
REMARK   16  A    between atoms: C17_26  and  C19_28 
REMARK   17  A    between atoms: C20_29  and  C21_30 
REMARK   18  A    between atoms: C20_29  and  C24_33 
REMARK   19  A    between atoms: C20_29  and  N6_40 
REMARK   20  A    between atoms: C21_30  and  C22_31 
REMARK   21  A    between atoms: C22_31  and  C23_32 
REMARK   22  A    between atoms: C23_32  and  O8_43 
REMARK   23  A    between atoms: C24_33  and  C25_34 
REMARK   24  A    between atoms: C28_38  and  O6_39 
REMARK   25  A    between atoms: C29_42  and  O8_43 
REMARK   26  A    between atoms: C29_42  and  C35_49 
ROOT
ATOM      1  C14 non d ame     -11.873  14.705  70.023  0.00  0.00     0.089 C 
ATOM      2  H20 non d ame     -12.855  14.631  69.554  0.00  0.00     0.087 H 
ENDROOT
BRANCH   1   3
ATOM      3  N4  non d ame     -11.412  13.350  70.290  0.00  0.00    -0.346 N 
ATOM      4  C10 non d ame     -11.522  12.285  69.227  0.00  0.00     0.241 C 
ATOM      5  O4  non d ame     -11.987  12.542  68.165  0.00  0.00    -0.271 OA
ATOM      6  H19 non d ame     -11.022  13.151  71.200  0.00  0.00     0.163 HD
BRANCH   4   7
ATOM      7  C9  non d ame     -11.036  10.890  69.518  0.00  0.00     0.092 C 
ATOM      8  H11 non d ame     -11.298  10.237  68.685  0.00  0.00     0.088 H 
BRANCH   7   9
ATOM      9  N3  non d ame      -9.573  10.893  69.621  0.00  0.00    -0.346 N 
ATOM     10  C7  non d ame      -8.767  10.758  68.434  0.00  0.00     0.240 C 
ATOM     11  O3  non d ame      -9.277  10.644  67.386  0.00  0.00    -0.271 OA
ATOM     12  H10 non d ame      -9.118  10.989  70.518  0.00  0.00     0.163 HD
BRANCH  10  13
ATOM     13  C6  non d ame      -7.210  10.759  68.550  0.00  0.00     0.086 C 
ATOM     14  H6  non d ame      -6.731  11.374  67.789  0.00  0.00     0.086 H 
BRANCH  13  15
ATOM     15  N2  non d ame      -6.835  11.321  69.837  0.00  0.00    -0.343 N 
ATOM     16  C5  non d ame      -5.675  12.211  69.925  0.00  0.00     0.273 C 
ATOM     17  O2  non d ame      -5.049  12.465  68.956  0.00  0.00    -0.266 OA
ATOM     18  H5  non d ame      -7.374  11.096  70.661  0.00  0.00     0.163 HD
BRANCH  16  19
ATOM     19  C4  non d ame      -5.268  12.813  71.279  0.00  0.00     0.154 A 
ATOM     20  C1  non d ame      -4.155  12.433  72.095  0.00  0.00    -0.017 A 
ATOM     21  C2  non d ame      -4.223  13.284  73.220  0.00  0.00     0.077 A 
ATOM     22  H1  non d ame      -3.411  11.660  71.899  0.00  0.00     0.091 H 
ATOM     23  O1  non d ame      -5.255  14.058  73.059  0.00  0.00    -0.218 OA
ATOM     24  N1  non d ame      -5.881  13.803  71.933  0.00  0.00    -0.123 NA
BRANCH  21  25
ATOM     25  C3  non d ame      -3.263  13.292  74.403  0.00  0.00    -0.029 C 
ATOM     26  H2  non d ame      -3.821  13.458  75.324  0.00  0.00     0.036 H 
ATOM     27  H3  non d ame      -2.746  12.335  74.458  0.00  0.00     0.036 H 
ATOM     28  H4  non d ame      -2.532  14.092  74.272  0.00  0.00     0.036 H 
ENDBRANCH  21  25
ENDBRANCH  16  19
ENDBRANCH  13  15
BRANCH  13  29
ATOM     29  C8  non d ame      -6.694   9.347  68.433  0.00  0.00    -0.049 C 
ATOM     30  H7  non d ame      -5.632   9.328  68.681  0.00  0.00     0.030 H 
ATOM     31  H8  non d ame      -7.240   8.701  69.120  0.00  0.00     0.030 H 
ATOM     32  H9  non d ame      -6.834   8.993  67.412  0.00  0.00     0.030 H 
ENDBRANCH  13  29
ENDBRANCH  10  13
ENDBRANCH   7   9
BRANCH   7  33
ATOM     33  C11 non d ame     -11.647  10.398  70.863  0.00  0.00    -0.033 C 
ATOM     34  H12 non d ame     -11.538  11.203  71.588  0.00  0.00     0.042 H 
BRANCH  33  35
ATOM     35  C12 non d ame     -13.172  10.099  70.718  0.00  0.00    -0.071 C 
ATOM     36  H13 non d ame     -13.723  11.039  70.662  0.00  0.00     0.028 H 
ATOM     37  H14 non d ame     -13.345   9.522  69.811  0.00  0.00     0.028 H 
ATOM     38  H15 non d ame     -13.513   9.530  71.582  0.00  0.00     0.028 H 
ENDBRANCH  33  35
BRANCH  33  39
ATOM     39  C13 non d ame     -10.876   9.151  71.404  0.00  0.00    -0.071 C 
ATOM     40  H16 non d ame     -11.417   8.245  71.135  0.00  0.00     0.028 H 
ATOM     41  H17 non d ame      -9.878   9.123  70.966  0.00  0.00     0.028 H 
ATOM     42  H18 non d ame     -10.794   9.217  72.489  0.00  0.00     0.028 H 
ENDBRANCH  33  39
ENDBRANCH   7  33
ENDBRANCH   4   7
ENDBRANCH   1   3
BRANCH   1  43
ATOM     43  C15 non d ame     -10.834  15.408  69.103  0.00  0.00     0.240 C 
ATOM     44  O5  non d ame      -9.777  15.729  69.541  0.00  0.00    -0.271 OA
ATOM     45  N6  non d ame     -11.154  15.672  67.671  0.00  0.00    -0.355 N 
ATOM     46  H46 non d ame     -12.046  15.400  67.286  0.00  0.00     0.162 HD
BRANCH  45  47
ATOM     47  C20 non d ame     -10.155  16.340  66.809  0.00  0.00     0.013 C 
ATOM     48  H30 non d ame      -9.175  16.215  67.270  0.00  0.00     0.072 H 
BRANCH  47  49
ATOM     49  C21 non d ame     -10.491  17.811  66.701  0.00  0.00    -0.038 C 
ATOM     50  H31 non d ame     -10.241  18.096  65.680  0.00  0.00     0.036 H 
ATOM     51  H32 non d ame     -11.516  17.905  67.059  0.00  0.00     0.036 H 
BRANCH  49  52
ATOM     52  C22 non d ame      -9.623  18.692  67.625  0.00  0.00     0.018 C 
ATOM     53  H33 non d ame     -10.238  19.558  67.872  0.00  0.00     0.048 H 
ATOM     54  H34 non d ame      -9.269  18.032  68.417  0.00  0.00     0.048 H 
BRANCH  52  55
ATOM     55  C23 non d ame      -8.348  19.256  66.937  0.00  0.00     0.259 C 
ATOM     56  O7  non d ame      -8.137  19.038  65.788  0.00  0.00    -0.265 OA
BRANCH  55  57
ATOM     57  O8  non d ame      -7.427  20.026  67.700  0.00  0.00    -0.317 OA
BRANCH  57  58
ATOM     58  C29 non d ame      -7.189  19.512  69.014  0.00  0.00     0.052 C 
ATOM     59  H47 non d ame      -6.715  20.323  69.566  0.00  0.00     0.082 H 
ATOM     60  H48 non d ame      -8.144  19.110  69.351  0.00  0.00     0.082 H 
BRANCH  58  61
ATOM     61  C35 non d ame      -6.178  18.342  68.895  0.00  0.00    -0.034 A 
ATOM     62  C30 non d ame      -6.562  17.050  69.239  0.00  0.00    -0.075 A 
ATOM     63  C31 non d ame      -5.653  15.998  69.132  0.00  0.00    -0.082 A 
ATOM     64  H49 non d ame      -7.576  16.861  69.592  0.00  0.00     0.084 H 
ATOM     65  C32 non d ame      -4.353  16.243  68.682  0.00  0.00    -0.083 A 
ATOM     66  H50 non d ame      -5.959  14.987  69.399  0.00  0.00     0.083 H 
ATOM     67  C33 non d ame      -3.972  17.535  68.343  0.00  0.00    -0.082 A 
ATOM     68  H51 non d ame      -3.636  15.427  68.594  0.00  0.00     0.083 H 
ATOM     69  C34 non d ame      -4.879  18.588  68.447  0.00  0.00    -0.075 A 
ATOM     70  H52 non d ame      -2.956  17.722  67.994  0.00  0.00     0.083 H 
ATOM     71  H53 non d ame      -4.572  19.600  68.177  0.00  0.00     0.084 H 
ENDBRANCH  58  61
ENDBRANCH  57  58
ENDBRANCH  55  57
ENDBRANCH  52  55
ENDBRANCH  49  52
ENDBRANCH  47  49
BRANCH  47  72
ATOM     72  C24 non d ame     -10.171  15.710  65.418  0.00  0.00    -0.039 C 
ATOM     73  H35 non d ame     -10.463  16.512  64.739  0.00  0.00     0.036 H 
ATOM     74  H36 non d ame      -9.198  15.231  65.305  0.00  0.00     0.036 H 
BRANCH  72  75
ATOM     75  C25 non d ame     -11.281  14.562  65.298  0.00  0.00    -0.001 C 
ATOM     76  C26 non d ame     -10.565  13.129  64.923  0.00  0.00    -0.035 C 
ATOM     77  C27 non d ame     -11.199  12.593  63.852  0.00  0.00     0.085 C 
ATOM     78  H38 non d ame      -9.553  13.300  64.560  0.00  0.00     0.036 H 
ATOM     79  H39 non d ame     -10.745  12.402  65.715  0.00  0.00     0.036 H 
ATOM     80  N5  non d ame     -12.066  13.680  63.262  0.00  0.00    -0.049 N 
ATOM     81  H40 non d ame     -10.410  12.343  63.142  0.00  0.00     0.075 H 
ATOM     82  H41 non d ame     -11.839  11.809  64.255  0.00  0.00     0.075 H 
ATOM     83  C28 non d ame     -12.147  14.840  64.382  0.00  0.00     0.193 C 
ATOM     84  H42 non d ame     -11.568  14.040  62.462  0.00  0.00     0.280 HD
ATOM     85  H43 non d ame     -12.986  13.281  63.147  0.00  0.00     0.280 HD
ATOM     86  H44 non d ame     -13.044  14.965  64.988  0.00  0.00     0.129 H 
ATOM     87  H37 non d ame     -11.970  14.565  66.143  0.00  0.00     0.046 H 
BRANCH  83  88
ATOM     88  O6  non d ame     -11.909  16.117  63.787  0.00  0.00    -0.369 OA
ATOM     89  H45 non d ame     -11.000  16.382  63.952  0.00  0.00     0.212 HD
ENDBRANCH  83  88
ENDBRANCH  72  75
ENDBRANCH  47  72
ENDBRANCH  45  47
ENDBRANCH   1  43
BRANCH   1  90
ATOM     90  C16 non d ame     -11.984  15.459  71.338  0.00  0.00    -0.035 C 
ATOM     91  H21 non d ame     -10.971  15.488  71.741  0.00  0.00     0.037 H 
ATOM     92  H22 non d ame     -12.500  16.387  71.095  0.00  0.00     0.037 H 
BRANCH  90  93
ATOM     93  C17 non d ame     -12.862  14.732  72.405  0.00  0.00    -0.059 C 
ATOM     94  H23 non d ame     -12.595  13.675  72.388  0.00  0.00     0.038 H 
BRANCH  93  95
ATOM     95  C18 non d ame     -12.599  15.267  73.849  0.00  0.00    -0.073 C 
ATOM     96  H24 non d ame     -12.135  16.251  73.792  0.00  0.00     0.028 H 
ATOM     97  H25 non d ame     -13.545  15.341  74.386  0.00  0.00     0.028 H 
ATOM     98  H26 non d ame     -11.935  14.580  74.375  0.00  0.00     0.028 H 
ENDBRANCH  93  95
BRANCH  93  99
ATOM     99  C19 non d ame     -14.349  14.830  72.050  0.00  0.00    -0.073 C 
ATOM    100  H27 non d ame     -14.863  15.429  72.802  0.00  0.00     0.028 H 
ATOM    101  H28 non d ame     -14.457  15.300  71.072  0.00  0.00     0.028 H 
ATOM    102  H29 non d ame     -14.783  13.830  72.022  0.00  0.00     0.028 H 
ENDBRANCH  93  99
ENDBRANCH  90  93
ENDBRANCH   1  90
TORSDOF 26
ENDMDL
MODEL 6
REMARK VINA RESULT:      -6.4      2.612      6.580
REMARK  26 active torsions:
REMARK  status: ('A' for Active; 'I' for Inactive)
REMARK    1  A    between atoms: C2_2  and  C3_3 
REMARK    2  A    between atoms: C4_6  and  C5_7 
REMARK       I    between atoms: C5_7  and  N2_9 
REMARK    3  A    between atoms: N2_9  and  C6_10 
REMARK    4  A    between atoms: C6_10  and  C7_11 
REMARK    5  A    between atoms: C6_10  and  C8_13 
REMARK       I    between atoms: C7_11  and  N3_14 
REMARK    6  A    between atoms: N3_14  and  C9_15 
REMARK    7  A    between atoms: C9_15  and  C10_16 
REMARK    8  A    between atoms: C9_15  and  C11_18 
REMARK       I    between atoms: C10_16  and  N4_21 
REMARK    9  A    between atoms: C11_18  and  C12_19 
REMARK   10  A    between atoms: C11_18  and  C13_20 
REMARK   11  A    between atoms: N4_21  and  C14_22 
REMARK   12  A    between atoms: C14_22  and  C15_23 
REMARK   13  A    between atoms: C14_22  and  C16_25 
REMARK       I    between atoms: C15_23  and  N6_40 
REMARK   14  A    between atoms: C16_25  and  C17_26 
REMARK   15  A    between atoms: C17_26  and  C18_27 
REMARK   16  A    between atoms: C17_26  and  C19_28 
REMARK   17  A    between atoms: C20_29  and  C21_30 
REMARK   18  A    between atoms: C20_29  and  C24_33 
REMARK   19  A    between atoms: C20_29  and  N6_40 
REMARK   20  A    between atoms: C21_30  and  C22_31 
REMARK   21  A    between atoms: C22_31  and  C23_32 
REMARK   22  A    between atoms: C23_32  and  O8_43 
REMARK   23  A    between atoms: C24_33  and  C25_34 
REMARK   24  A    between atoms: C28_38  and  O6_39 
REMARK   25  A    between atoms: C29_42  and  O8_43 
REMARK   26  A    between atoms: C29_42  and  C35_49 
ROOT
ATOM      1  C14 non d ame     -11.937  13.594  69.564  0.00  0.00     0.089 C 
ATOM      2  H20 non d ame     -12.962  13.486  69.205  0.00  0.00     0.087 H 
ENDROOT
BRANCH   1   3
ATOM      3  N4  non d ame     -11.540  12.320  70.144  0.00  0.00    -0.346 N 
ATOM      4  C10 non d ame     -11.760  11.035  69.384  0.00  0.00     0.241 C 
ATOM      5  O4  non d ame     -12.262  11.053  68.308  0.00  0.00    -0.271 OA
ATOM      6  H19 non d ame     -11.117  12.326  71.061  0.00  0.00     0.163 HD
BRANCH   4   7
ATOM      7  C9  non d ame     -11.338   9.726  69.996  0.00  0.00     0.092 C 
ATOM      8  H11 non d ame     -11.717   8.906  69.387  0.00  0.00     0.088 H 
BRANCH   7   9
ATOM      9  N3  non d ame      -9.875   9.631  69.988  0.00  0.00    -0.346 N 
ATOM     10  C7  non d ame      -9.222   8.635  69.177  0.00  0.00     0.240 C 
ATOM     11  O3  non d ame      -9.857   7.900  68.524  0.00  0.00    -0.271 OA
ATOM     12  H10 non d ame      -9.313  10.258  70.547  0.00  0.00     0.163 HD
BRANCH  10  13
ATOM     13  C6  non d ame      -7.664   8.538  69.175  0.00  0.00     0.086 C 
ATOM     14  H6  non d ame      -7.300   7.587  69.566  0.00  0.00     0.086 H 
BRANCH  13  15
ATOM     15  N2  non d ame      -7.187   8.634  67.805  0.00  0.00    -0.343 N 
ATOM     16  C5  non d ame      -6.687   7.435  67.129  0.00  0.00     0.273 C 
ATOM     17  O2  non d ame      -6.669   6.399  67.697  0.00  0.00    -0.266 OA
ATOM     18  H5  non d ame      -7.204   9.524  67.328  0.00  0.00     0.163 HD
BRANCH  16  19
ATOM     19  C4  non d ame      -6.182   7.522  65.680  0.00  0.00     0.154 A 
ATOM     20  C1  non d ame      -5.321   8.521  65.123  0.00  0.00    -0.017 A 
ATOM     21  C2  non d ame      -5.161   8.149  63.770  0.00  0.00     0.077 A 
ATOM     22  H1  non d ame      -4.880   9.383  65.624  0.00  0.00     0.091 H 
ATOM     23  O1  non d ame      -5.850   7.061  63.583  0.00  0.00    -0.218 OA
ATOM     24  N1  non d ame      -6.455   6.676  64.683  0.00  0.00    -0.123 NA
BRANCH  21  25
ATOM     25  C3  non d ame      -4.332   8.884  62.725  0.00  0.00    -0.029 C 
ATOM     26  H2  non d ame      -4.990   9.479  62.092  0.00  0.00     0.036 H 
ATOM     27  H3  non d ame      -3.618   9.539  63.223  0.00  0.00     0.036 H 
ATOM     28  H4  non d ame      -3.794   8.160  62.112  0.00  0.00     0.036 H 
ENDBRANCH  21  25
ENDBRANCH  16  19
ENDBRANCH  13  15
BRANCH  13  29
ATOM     29  C8  non d ame      -7.086   9.658  70.002  0.00  0.00    -0.049 C 
ATOM     30  H7  non d ame      -6.666   9.250  70.922  0.00  0.00     0.030 H 
ATOM     31  H8  non d ame      -6.303  10.162  69.436  0.00  0.00     0.030 H 
ATOM     32  H9  non d ame      -7.874  10.370  70.248  0.00  0.00     0.030 H 
ENDBRANCH  13  29
ENDBRANCH  10  13
ENDBRANCH   7   9
BRANCH   7  33
ATOM     33  C11 non d ame     -11.853   9.651  71.464  0.00  0.00    -0.033 C 
ATOM     34  H12 non d ame     -11.545  10.565  71.968  0.00  0.00     0.042 H 
BRANCH  33  35
ATOM     35  C12 non d ame     -13.411   9.586  71.517  0.00  0.00    -0.071 C 
ATOM     36  H13 non d ame     -13.720   8.675  72.029  0.00  0.00     0.028 H 
ATOM     37  H14 non d ame     -13.792  10.453  72.056  0.00  0.00     0.028 H 
ATOM     38  H15 non d ame     -13.808   9.585  70.503  0.00  0.00     0.028 H 
ENDBRANCH  33  35
BRANCH  33  39
ATOM     39  C13 non d ame     -11.211   8.443  72.220  0.00  0.00    -0.071 C 
ATOM     40  H16 non d ame     -11.793   7.543  72.027  0.00  0.00     0.028 H 
ATOM     41  H17 non d ame     -10.188   8.296  71.869  0.00  0.00     0.028 H 
ATOM     42  H18 non d ame     -11.201   8.647  73.290  0.00  0.00     0.028 H 
ENDBRANCH  33  39
ENDBRANCH   7  33
ENDBRANCH   4   7
ENDBRANCH   1   3
BRANCH   1  43
ATOM     43  C15 non d ame     -10.947  13.946  68.418  0.00  0.00     0.240 C 
ATOM     44  O5  non d ame      -9.784  13.744  68.557  0.00  0.00    -0.271 OA
ATOM     45  N6  non d ame     -11.449  14.527  67.140  0.00  0.00    -0.355 N 
ATOM     46  H46 non d ame     -12.435  14.699  67.008  0.00  0.00     0.162 HD
BRANCH  45  47
ATOM     47  C20 non d ame     -10.495  14.856  66.059  0.00  0.00     0.013 C 
ATOM     48  H30 non d ame      -9.533  14.410  66.313  0.00  0.00     0.072 H 
BRANCH  47  49
ATOM     49  C21 non d ame     -10.356  16.357  65.953  0.00  0.00    -0.038 C 
ATOM     50  H31 non d ame      -9.878  16.542  64.992  0.00  0.00     0.036 H 
ATOM     51  H32 non d ame     -11.349  16.760  66.156  0.00  0.00     0.036 H 
BRANCH  49  52
ATOM     52  C22 non d ame      -9.417  16.949  67.028  0.00  0.00     0.018 C 
ATOM     53  H33 non d ame      -8.999  16.093  67.559  0.00  0.00     0.048 H 
ATOM     54  H34 non d ame      -8.758  17.636  66.498  0.00  0.00     0.048 H 
BRANCH  52  55
ATOM     55  C23 non d ame     -10.152  17.801  68.101  0.00  0.00     0.259 C 
ATOM     56  O7  non d ame     -11.075  17.351  68.699  0.00  0.00    -0.265 OA
BRANCH  55  57
ATOM     57  O8  non d ame      -9.717  19.132  68.351  0.00  0.00    -0.317 OA
BRANCH  57  58
ATOM     58  C29 non d ame      -8.954  19.704  67.284  0.00  0.00     0.052 C 
ATOM     59  H47 non d ame      -8.829  18.909  66.551  0.00  0.00     0.082 H 
ATOM     60  H48 non d ame      -9.473  20.622  67.010  0.00  0.00     0.082 H 
BRANCH  58  61
ATOM     61  C35 non d ame      -7.556  20.081  67.844  0.00  0.00    -0.034 A 
ATOM     62  C30 non d ame      -7.147  19.596  69.082  0.00  0.00    -0.075 A 
ATOM     63  C31 non d ame      -5.891  19.934  69.585  0.00  0.00    -0.082 A 
ATOM     64  H49 non d ame      -7.809  18.949  69.658  0.00  0.00     0.084 H 
ATOM     65  C32 non d ame      -5.045  20.765  68.846  0.00  0.00    -0.083 A 
ATOM     66  H50 non d ame      -5.573  19.549  70.553  0.00  0.00     0.083 H 
ATOM     67  C33 non d ame      -5.459  21.250  67.612  0.00  0.00    -0.082 A 
ATOM     68  H51 non d ame      -4.061  21.034  69.231  0.00  0.00     0.083 H 
ATOM     69  C34 non d ame      -6.712  20.912  67.106  0.00  0.00    -0.075 A 
ATOM     70  H52 non d ame      -4.796  21.900  67.039  0.00  0.00     0.083 H 
ATOM     71  H53 non d ame      -7.029  21.296  66.135  0.00  0.00     0.084 H 
ENDBRANCH  58  61
ENDBRANCH  57  58
ENDBRANCH  55  57
ENDBRANCH  52  55
ENDBRANCH  49  52
ENDBRANCH  47  49
BRANCH  47  72
ATOM     72  C24 non d ame     -11.005  14.296  64.733  0.00  0.00    -0.039 C 
ATOM     73  H35 non d ame     -11.870  14.908  64.473  0.00  0.00     0.036 H 
ATOM     74  H36 non d ame     -10.137  14.274  64.074  0.00  0.00     0.036 H 
BRANCH  72  75
ATOM     75  C25 non d ame     -11.522  12.787  64.884  0.00  0.00    -0.001 C 
ATOM     76  C26 non d ame     -10.255  11.793  65.214  0.00  0.00    -0.035 C 
ATOM     77  C27 non d ame     -10.278  10.754  64.344  0.00  0.00     0.085 C 
ATOM     78  H38 non d ame      -9.316  12.295  64.986  0.00  0.00     0.036 H 
ATOM     79  H39 non d ame     -10.396  11.316  66.184  0.00  0.00     0.036 H 
ATOM     80  N5  non d ame     -11.249  11.119  63.247  0.00  0.00    -0.049 N 
ATOM     81  H40 non d ame      -9.272  10.701  63.926  0.00  0.00     0.075 H 
ATOM     82  H41 non d ame     -10.679   9.912  64.907  0.00  0.00     0.075 H 
ATOM     83  C28 non d ame     -12.095  12.377  63.802  0.00  0.00     0.193 C 
ATOM     84  H42 non d ame     -10.692  11.427  62.463  0.00  0.00     0.280 HD
ATOM     85  H43 non d ame     -11.874  10.333  63.144  0.00  0.00     0.280 HD
ATOM     86  H44 non d ame     -13.117  12.245  64.156  0.00  0.00     0.129 H 
ATOM     87  H37 non d ame     -12.393  12.713  65.536  0.00  0.00     0.046 H 
BRANCH  83  88
ATOM     88  O6  non d ame     -12.165  13.402  62.809  0.00  0.00    -0.369 OA
ATOM     89  H45 non d ame     -13.076  13.690  62.711  0.00  0.00     0.212 HD
ENDBRANCH  83  88
ENDBRANCH  72  75
ENDBRANCH  47  72
ENDBRANCH  45  47
ENDBRANCH   1  43
BRANCH   1  90
ATOM     90  C16 non d ame     -11.879  14.668  70.638  0.00  0.00    -0.035 C 
ATOM     91  H21 non d ame     -10.860  14.631  71.027  0.00  0.00     0.037 H 
ATOM     92  H22 non d ame     -12.246  15.575  70.160  0.00  0.00     0.037 H 
BRANCH  90  93
ATOM     93  C17 non d ame     -12.824  14.394  71.851  0.00  0.00    -0.059 C 
ATOM     94  H23 non d ame     -12.830  13.319  72.028  0.00  0.00     0.038 H 
BRANCH  93  95
ATOM     95  C18 non d ame     -12.324  15.090  73.157  0.00  0.00    -0.073 C 
ATOM     96  H24 non d ame     -12.906  14.730  74.005  0.00  0.00     0.028 H 
ATOM     97  H25 non d ame     -11.271  14.855  73.313  0.00  0.00     0.028 H 
ATOM     98  H26 non d ame     -12.446  16.169  73.063  0.00  0.00     0.028 H 
ENDBRANCH  93  95
BRANCH  93  99
ATOM     99  C19 non d ame     -14.262  14.809  71.528  0.00  0.00    -0.073 C 
ATOM    100  H27 non d ame     -14.595  15.555  72.251  0.00  0.00     0.028 H 
ATOM    101  H28 non d ame     -14.301  15.232  70.524  0.00  0.00     0.028 H 
ATOM    102  H29 non d ame     -14.913  13.936  71.580  0.00  0.00     0.028 H 
ENDBRANCH  93  99
ENDBRANCH  90  93
ENDBRANCH   1  90
TORSDOF 26
ENDMDL
MODEL 7
REMARK VINA RESULT:      -6.4      2.067      4.002
REMARK  26 active torsions:
REMARK  status: ('A' for Active; 'I' for Inactive)
REMARK    1  A    between atoms: C2_2  and  C3_3 
REMARK    2  A    between atoms: C4_6  and  C5_7 
REMARK       I    between atoms: C5_7  and  N2_9 
REMARK    3  A    between atoms: N2_9  and  C6_10 
REMARK    4  A    between atoms: C6_10  and  C7_11 
REMARK    5  A    between atoms: C6_10  and  C8_13 
REMARK       I    between atoms: C7_11  and  N3_14 
REMARK    6  A    between atoms: N3_14  and  C9_15 
REMARK    7  A    between atoms: C9_15  and  C10_16 
REMARK    8  A    between atoms: C9_15  and  C11_18 
REMARK       I    between atoms: C10_16  and  N4_21 
REMARK    9  A    between atoms: C11_18  and  C12_19 
REMARK   10  A    between atoms: C11_18  and  C13_20 
REMARK   11  A    between atoms: N4_21  and  C14_22 
REMARK   12  A    between atoms: C14_22  and  C15_23 
REMARK   13  A    between atoms: C14_22  and  C16_25 
REMARK       I    between atoms: C15_23  and  N6_40 
REMARK   14  A    between atoms: C16_25  and  C17_26 
REMARK   15  A    between atoms: C17_26  and  C18_27 
REMARK   16  A    between atoms: C17_26  and  C19_28 
REMARK   17  A    between atoms: C20_29  and  C21_30 
REMARK   18  A    between atoms: C20_29  and  C24_33 
REMARK   19  A    between atoms: C20_29  and  N6_40 
REMARK   20  A    between atoms: C21_30  and  C22_31 
REMARK   21  A    between atoms: C22_31  and  C23_32 
REMARK   22  A    between atoms: C23_32  and  O8_43 
REMARK   23  A    between atoms: C24_33  and  C25_34 
REMARK   24  A    between atoms: C28_38  and  O6_39 
REMARK   25  A    between atoms: C29_42  and  O8_43 
REMARK   26  A    between atoms: C29_42  and  C35_49 
ROOT
ATOM      1  C14 non d ame     -12.283  14.460  70.350  0.00  0.00     0.089 C 
ATOM      2  H20 non d ame     -13.365  14.549  70.448  0.00  0.00     0.087 H 
ENDROOT
BRANCH   1   3
ATOM      3  N4  non d ame     -11.980  13.060  70.092  0.00  0.00    -0.346 N 
ATOM      4  C10 non d ame     -12.617  11.976  70.926  0.00  0.00     0.241 C 
ATOM      5  O4  non d ame     -13.368  12.257  71.802  0.00  0.00    -0.271 OA
ATOM      6  H19 non d ame     -11.336  12.842  69.345  0.00  0.00     0.163 HD
BRANCH   4   7
ATOM      7  C9  non d ame     -12.296  10.532  70.643  0.00  0.00     0.092 C 
ATOM      8  H11 non d ame     -12.942  10.171  69.843  0.00  0.00     0.088 H 
BRANCH   7   9
ATOM      9  N3  non d ame     -10.914  10.423  70.165  0.00  0.00    -0.346 N 
ATOM     10  C7  non d ame     -10.637  10.442  68.751  0.00  0.00     0.240 C 
ATOM     11  O3  non d ame     -11.513  10.544  67.981  0.00  0.00    -0.271 OA
ATOM     12  H10 non d ame     -10.147  10.334  70.817  0.00  0.00     0.163 HD
BRANCH  10  13
ATOM     13  C6  non d ame      -9.164  10.323  68.248  0.00  0.00     0.086 C 
ATOM     14  H6  non d ame      -8.437  10.363  69.060  0.00  0.00     0.086 H 
BRANCH  13  15
ATOM     15  N2  non d ame      -8.991   9.034  67.598  0.00  0.00    -0.343 N 
ATOM     16  C5  non d ame      -8.753   7.840  68.413  0.00  0.00     0.273 C 
ATOM     17  O2  non d ame      -8.700   7.928  69.590  0.00  0.00    -0.266 OA
ATOM     18  H5  non d ame      -9.036   8.969  66.591  0.00  0.00     0.163 HD
BRANCH  16  19
ATOM     19  C4  non d ame      -8.570   6.472  67.739  0.00  0.00     0.154 A 
ATOM     20  C1  non d ame      -9.280   5.263  68.028  0.00  0.00    -0.017 A 
ATOM     21  C2  non d ame      -8.743   4.305  67.140  0.00  0.00     0.077 A 
ATOM     22  H1  non d ame     -10.065   5.106  68.768  0.00  0.00     0.091 H 
ATOM     23  O1  non d ame      -7.834   4.904  66.427  0.00  0.00    -0.218 OA
ATOM     24  N1  non d ame      -7.715   6.169  66.759  0.00  0.00    -0.123 NA
BRANCH  21  25
ATOM     25  C3  non d ame      -9.154   2.843  67.035  0.00  0.00    -0.029 C 
ATOM     26  H2  non d ame     -10.137   2.774  66.567  0.00  0.00     0.036 H 
ATOM     27  H3  non d ame      -8.426   2.302  66.432  0.00  0.00     0.036 H 
ATOM     28  H4  non d ame      -9.196   2.404  68.033  0.00  0.00     0.036 H 
ENDBRANCH  21  25
ENDBRANCH  16  19
ENDBRANCH  13  15
BRANCH  13  29
ATOM     29  C8  non d ame      -8.870  11.435  67.275  0.00  0.00    -0.049 C 
ATOM     30  H7  non d ame      -8.832  12.385  67.810  0.00  0.00     0.030 H 
ATOM     31  H8  non d ame      -7.911  11.252  66.791  0.00  0.00     0.030 H 
ATOM     32  H9  non d ame      -9.656  11.475  66.521  0.00  0.00     0.030 H 
ENDBRANCH  13  29
ENDBRANCH  10  13
ENDBRANCH   7   9
BRANCH   7  33
ATOM     33  C11 non d ame     -12.459   9.699  71.948  0.00  0.00    -0.033 C 
ATOM     34  H12 non d ame     -12.417  10.392  72.787  0.00  0.00     0.042 H 
BRANCH  33  35
ATOM     35  C12 non d ame     -13.846   8.985  71.997  0.00  0.00    -0.071 C 
ATOM     36  H13 non d ame     -13.845   8.142  71.306  0.00  0.00     0.028 H 
ATOM     37  H14 non d ame     -14.033   8.626  73.008  0.00  0.00     0.028 H 
ATOM     38  H15 non d ame     -14.625   9.689  71.709  0.00  0.00     0.028 H 
ENDBRANCH  33  35
BRANCH  33  39
ATOM     39  C13 non d ame     -11.289   8.675  72.106  0.00  0.00    -0.071 C 
ATOM     40  H16 non d ame     -10.818   8.509  71.138  0.00  0.00     0.028 H 
ATOM     41  H17 non d ame     -10.552   9.071  72.806  0.00  0.00     0.028 H 
ATOM     42  H18 non d ame     -11.681   7.732  72.487  0.00  0.00     0.028 H 
ENDBRANCH  33  39
ENDBRANCH   7  33
ENDBRANCH   4   7
ENDBRANCH   1   3
BRANCH   1  43
ATOM     43  C15 non d ame     -11.727  15.310  69.173  0.00  0.00     0.240 C 
ATOM     44  O5  non d ame     -11.962  16.474  69.121  0.00  0.00    -0.271 OA
ATOM     45  N6  non d ame     -10.893  14.675  68.112  0.00  0.00    -0.355 N 
ATOM     46  H46 non d ame     -10.683  13.688  68.148  0.00  0.00     0.162 HD
BRANCH  45  47
ATOM     47  C20 non d ame     -10.371  15.497  67.000  0.00  0.00     0.013 C 
ATOM     48  H30 non d ame     -11.135  16.229  66.736  0.00  0.00     0.072 H 
BRANCH  47  49
ATOM     49  C21 non d ame     -10.078  14.607  65.814  0.00  0.00    -0.038 C 
ATOM     50  H31 non d ame      -9.415  15.183  65.169  0.00  0.00     0.036 H 
ATOM     51  H32 non d ame      -9.742  13.658  66.233  0.00  0.00     0.036 H 
BRANCH  49  52
ATOM     52  C22 non d ame     -11.336  14.292  64.975  0.00  0.00     0.018 C 
ATOM     53  H33 non d ame     -12.166  14.772  65.495  0.00  0.00     0.048 H 
ATOM     54  H34 non d ame     -11.092  14.584  63.955  0.00  0.00     0.048 H 
BRANCH  52  55
ATOM     55  C23 non d ame     -11.687  12.779  64.916  0.00  0.00     0.259 C 
ATOM     56  O7  non d ame     -12.787  12.405  65.167  0.00  0.00    -0.265 OA
BRANCH  55  57
ATOM     57  O8  non d ame     -10.674  11.842  64.573  0.00  0.00    -0.317 OA
BRANCH  57  58
ATOM     58  C29 non d ame     -10.203  11.962  63.227  0.00  0.00     0.052 C 
ATOM     59  H47 non d ame     -11.077  11.808  62.594  0.00  0.00     0.082 H 
ATOM     60  H48 non d ame      -9.662  12.907  63.188  0.00  0.00     0.082 H 
BRANCH  58  61
ATOM     61  C35 non d ame      -9.198  10.809  62.967  0.00  0.00    -0.034 A 
ATOM     62  C30 non d ame      -8.308  10.886  61.900  0.00  0.00    -0.075 A 
ATOM     63  C31 non d ame      -7.405   9.849  61.668  0.00  0.00    -0.082 A 
ATOM     64  H49 non d ame      -8.318  11.759  61.248  0.00  0.00     0.084 H 
ATOM     65  C32 non d ame      -7.397   8.730  62.504  0.00  0.00    -0.083 A 
ATOM     66  H50 non d ame      -6.707   9.915  60.833  0.00  0.00     0.083 H 
ATOM     67  C33 non d ame      -8.289   8.655  63.566  0.00  0.00    -0.082 A 
ATOM     68  H51 non d ame      -6.693   7.916  62.330  0.00  0.00     0.083 H 
ATOM     69  C34 non d ame      -9.192   9.690  63.803  0.00  0.00    -0.075 A 
ATOM     70  H52 non d ame      -8.281   7.780  64.215  0.00  0.00     0.083 H 
ATOM     71  H53 non d ame      -9.889   9.624  64.640  0.00  0.00     0.084 H 
ENDBRANCH  58  61
ENDBRANCH  57  58
ENDBRANCH  55  57
ENDBRANCH  52  55
ENDBRANCH  49  52
ENDBRANCH  47  49
BRANCH  47  72
ATOM     72  C24 non d ame      -9.089  16.203  67.437  0.00  0.00    -0.039 C 
ATOM     73  H35 non d ame      -9.270  16.520  68.465  0.00  0.00     0.036 H 
ATOM     74  H36 non d ame      -8.283  15.503  67.217  0.00  0.00     0.036 H 
BRANCH  72  75
ATOM     75  C25 non d ame      -8.816  17.526  66.575  0.00  0.00    -0.001 C 
ATOM     76  C26 non d ame      -7.242  17.569  66.102  0.00  0.00    -0.035 C 
ATOM     77  C27 non d ame      -6.720  18.774  66.437  0.00  0.00     0.085 C 
ATOM     78  H38 non d ame      -6.655  16.865  66.690  0.00  0.00     0.036 H 
ATOM     79  H39 non d ame      -7.178  17.558  65.014  0.00  0.00     0.036 H 
ATOM     80  N5  non d ame      -7.695  19.430  67.385  0.00  0.00    -0.049 N 
ATOM     81  H40 non d ame      -5.797  18.552  66.974  0.00  0.00     0.075 H 
ATOM     82  H41 non d ame      -6.687  19.345  65.510  0.00  0.00     0.075 H 
ATOM     83  C28 non d ame      -9.069  18.591  67.259  0.00  0.00     0.193 C 
ATOM     84  H42 non d ame      -7.323  19.300  68.314  0.00  0.00     0.280 HD
ATOM     85  H43 non d ame      -7.855  20.362  67.030  0.00  0.00     0.280 HD
ATOM     86  H44 non d ame      -9.913  18.991  66.699  0.00  0.00     0.129 H 
ATOM     87  H37 non d ame      -9.570  17.677  65.803  0.00  0.00     0.046 H 
BRANCH  83  88
ATOM     88  O6  non d ame      -9.582  18.288  68.558  0.00  0.00    -0.369 OA
ATOM     89  H45 non d ame      -8.990  18.642  69.226  0.00  0.00     0.212 HD
ENDBRANCH  83  88
ENDBRANCH  72  75
ENDBRANCH  47  72
ENDBRANCH  45  47
ENDBRANCH   1  43
BRANCH   1  90
ATOM     90  C16 non d ame     -11.612  14.882  71.647  0.00  0.00    -0.035 C 
ATOM     91  H21 non d ame     -11.375  13.951  72.165  0.00  0.00     0.037 H 
ATOM     92  H22 non d ame     -10.812  15.559  71.351  0.00  0.00     0.037 H 
BRANCH  90  93
ATOM     93  C17 non d ame     -12.546  15.692  72.601  0.00  0.00    -0.059 C 
ATOM     94  H23 non d ame     -12.259  16.741  72.532  0.00  0.00     0.038 H 
BRANCH  93  95
ATOM     95  C18 non d ame     -14.049  15.581  72.189  0.00  0.00    -0.073 C 
ATOM     96  H24 non d ame     -14.118  15.266  71.148  0.00  0.00     0.028 H 
ATOM     97  H25 non d ame     -14.546  14.848  72.824  0.00  0.00     0.028 H 
ATOM     98  H26 non d ame     -14.531  16.552  72.309  0.00  0.00     0.028 H 
ENDBRANCH  93  95
BRANCH  93  99
ATOM     99  C19 non d ame     -12.348  15.261  74.057  0.00  0.00    -0.073 C 
ATOM    100  H27 non d ame     -13.305  15.290  74.578  0.00  0.00     0.028 H 
ATOM    101  H28 non d ame     -11.949  14.247  74.084  0.00  0.00     0.028 H 
ATOM    102  H29 non d ame     -11.647  15.939  74.544  0.00  0.00     0.028 H 
ENDBRANCH  93  99
ENDBRANCH  90  93
ENDBRANCH   1  90
TORSDOF 26
ENDMDL
MODEL 8
REMARK VINA RESULT:      -6.4      2.248      8.807
REMARK  26 active torsions:
REMARK  status: ('A' for Active; 'I' for Inactive)
REMARK    1  A    between atoms: C2_2  and  C3_3 
REMARK    2  A    between atoms: C4_6  and  C5_7 
REMARK       I    between atoms: C5_7  and  N2_9 
REMARK    3  A    between atoms: N2_9  and  C6_10 
REMARK    4  A    between atoms: C6_10  and  C7_11 
REMARK    5  A    between atoms: C6_10  and  C8_13 
REMARK       I    between atoms: C7_11  and  N3_14 
REMARK    6  A    between atoms: N3_14  and  C9_15 
REMARK    7  A    between atoms: C9_15  and  C10_16 
REMARK    8  A    between atoms: C9_15  and  C11_18 
REMARK       I    between atoms: C10_16  and  N4_21 
REMARK    9  A    between atoms: C11_18  and  C12_19 
REMARK   10  A    between atoms: C11_18  and  C13_20 
REMARK   11  A    between atoms: N4_21  and  C14_22 
REMARK   12  A    between atoms: C14_22  and  C15_23 
REMARK   13  A    between atoms: C14_22  and  C16_25 
REMARK       I    between atoms: C15_23  and  N6_40 
REMARK   14  A    between atoms: C16_25  and  C17_26 
REMARK   15  A    between atoms: C17_26  and  C18_27 
REMARK   16  A    between atoms: C17_26  and  C19_28 
REMARK   17  A    between atoms: C20_29  and  C21_30 
REMARK   18  A    between atoms: C20_29  and  C24_33 
REMARK   19  A    between atoms: C20_29  and  N6_40 
REMARK   20  A    between atoms: C21_30  and  C22_31 
REMARK   21  A    between atoms: C22_31  and  C23_32 
REMARK   22  A    between atoms: C23_32  and  O8_43 
REMARK   23  A    between atoms: C24_33  and  C25_34 
REMARK   24  A    between atoms: C28_38  and  O6_39 
REMARK   25  A    between atoms: C29_42  and  O8_43 
REMARK   26  A    between atoms: C29_42  and  C35_49 
ROOT
ATOM      1  C14 non d ame      -5.685  14.554  68.982  0.00  0.00     0.089 C 
ATOM      2  H20 non d ame      -4.603  14.639  68.879  0.00  0.00     0.087 H 
ENDROOT
BRANCH   1   3
ATOM      3  N4  non d ame      -6.275  15.759  68.420  0.00  0.00    -0.346 N 
ATOM      4  C10 non d ame      -5.449  17.013  68.270  0.00  0.00     0.241 C 
ATOM      5  O4  non d ame      -4.312  17.027  68.612  0.00  0.00    -0.271 OA
ATOM      6  H19 non d ame      -7.244  15.728  68.137  0.00  0.00     0.163 HD
BRANCH   4   7
ATOM      7  C9  non d ame      -6.074  18.250  67.681  0.00  0.00     0.092 C 
ATOM      8  H11 non d ame      -5.773  18.342  66.637  0.00  0.00     0.088 H 
BRANCH   7   9
ATOM      9  N3  non d ame      -7.534  18.118  67.700  0.00  0.00    -0.346 N 
ATOM     10  C7  non d ame      -8.271  18.082  66.462  0.00  0.00     0.240 C 
ATOM     11  O3  non d ame      -7.706  18.159  65.439  0.00  0.00    -0.271 OA
ATOM     12  H10 non d ame      -8.036  18.050  68.575  0.00  0.00     0.163 HD
BRANCH  10  13
ATOM     13  C6  non d ame      -9.825  17.944  66.489  0.00  0.00     0.086 C 
ATOM     14  H6  non d ame     -10.312  18.486  65.678  0.00  0.00     0.086 H 
BRANCH  13  15
ATOM     15  N2  non d ame     -10.177  16.543  66.322  0.00  0.00    -0.343 N 
ATOM     16  C5  non d ame     -10.918  16.122  65.131  0.00  0.00     0.273 C 
ATOM     17  O2  non d ame     -11.230  16.918  64.316  0.00  0.00    -0.266 OA
ATOM     18  H5  non d ame      -9.908  15.870  67.026  0.00  0.00     0.163 HD
BRANCH  16  19
ATOM     19  C4  non d ame     -11.295  14.644  64.942  0.00  0.00     0.154 A 
ATOM     20  C1  non d ame     -10.435  13.579  64.524  0.00  0.00    -0.017 A 
ATOM     21  C2  non d ame     -11.259  12.432  64.510  0.00  0.00     0.077 A 
ATOM     22  H1  non d ame      -9.376  13.631  64.272  0.00  0.00     0.091 H 
ATOM     23  O1  non d ame     -12.450  12.805  64.879  0.00  0.00    -0.218 OA
ATOM     24  N1  non d ame     -12.496  14.092  65.137  0.00  0.00    -0.123 NA
BRANCH  21  25
ATOM     25  C3  non d ame     -10.831  11.020  64.133  0.00  0.00    -0.029 C 
ATOM     26  H2  non d ame     -10.175  10.620  64.907  0.00  0.00     0.036 H 
ATOM     27  H3  non d ame     -11.712  10.385  64.041  0.00  0.00     0.036 H 
ATOM     28  H4  non d ame     -10.298  11.043  63.182  0.00  0.00     0.036 H 
ENDBRANCH  21  25
ENDBRANCH  16  19
ENDBRANCH  13  15
BRANCH  13  29
ATOM     29  C8  non d ame     -10.355  18.455  67.804  0.00  0.00    -0.049 C 
ATOM     30  H7  non d ame     -11.428  18.268  67.861  0.00  0.00     0.030 H 
ATOM     31  H8  non d ame      -9.853  17.942  68.624  0.00  0.00     0.030 H 
ATOM     32  H9  non d ame     -10.170  19.527  67.878  0.00  0.00     0.030 H 
ENDBRANCH  13  29
ENDBRANCH  10  13
ENDBRANCH   7   9
BRANCH   7  33
ATOM     33  C11 non d ame      -5.657  19.492  68.521  0.00  0.00    -0.033 C 
ATOM     34  H12 non d ame      -4.645  19.318  68.885  0.00  0.00     0.042 H 
BRANCH  33  35
ATOM     35  C12 non d ame      -5.627  20.786  67.649  0.00  0.00    -0.071 C 
ATOM     36  H13 non d ame      -6.259  21.547  68.106  0.00  0.00     0.028 H 
ATOM     37  H14 non d ame      -4.604  21.155  67.581  0.00  0.00     0.028 H 
ATOM     38  H15 non d ame      -5.998  20.557  66.651  0.00  0.00     0.028 H 
ENDBRANCH  33  35
BRANCH  33  39
ATOM     39  C13 non d ame      -6.592  19.668  69.761  0.00  0.00    -0.071 C 
ATOM     40  H16 non d ame      -7.575  20.000  69.429  0.00  0.00     0.028 H 
ATOM     41  H17 non d ame      -6.687  18.715  70.283  0.00  0.00     0.028 H 
ATOM     42  H18 non d ame      -6.166  20.410  70.436  0.00  0.00     0.028 H 
ENDBRANCH  33  39
ENDBRANCH   7  33
ENDBRANCH   4   7
ENDBRANCH   1   3
BRANCH   1  43
ATOM     43  C15 non d ame      -6.254  13.323  68.220  0.00  0.00     0.240 C 
ATOM     44  O5  non d ame      -5.766  12.988  67.190  0.00  0.00    -0.271 OA
ATOM     45  N6  non d ame      -7.404  12.556  68.780  0.00  0.00    -0.355 N 
ATOM     46  H46 non d ame      -7.824  12.829  69.656  0.00  0.00     0.162 HD
BRANCH  45  47
ATOM     47  C20 non d ame      -7.933  11.388  68.044  0.00  0.00     0.013 C 
ATOM     48  H30 non d ame      -7.261  11.184  67.210  0.00  0.00     0.072 H 
BRANCH  47  49
ATOM     49  C21 non d ame      -9.317  11.708  67.525  0.00  0.00    -0.038 C 
ATOM     50  H31 non d ame      -9.180  12.006  66.486  0.00  0.00     0.036 H 
ATOM     51  H32 non d ame      -9.930  10.840  67.768  0.00  0.00     0.036 H 
BRANCH  49  52
ATOM     52  C22 non d ame      -9.962  12.913  68.244  0.00  0.00     0.018 C 
ATOM     53  H33 non d ame      -9.599  12.874  69.271  0.00  0.00     0.048 H 
ATOM     54  H34 non d ame      -9.742  13.780  67.622  0.00  0.00     0.048 H 
BRANCH  52  55
ATOM     55  C23 non d ame     -11.511  12.833  68.334  0.00  0.00     0.259 C 
ATOM     56  O7  non d ame     -12.074  11.805  68.138  0.00  0.00    -0.265 OA
BRANCH  55  57
ATOM     57  O8  non d ame     -12.253  14.007  68.641  0.00  0.00    -0.317 OA
BRANCH  57  58
ATOM     58  C29 non d ame     -11.499  15.007  69.332  0.00  0.00     0.052 C 
ATOM     59  H47 non d ame     -10.531  14.554  69.543  0.00  0.00     0.082 H 
ATOM     60  H48 non d ame     -11.559  15.902  68.713  0.00  0.00     0.082 H 
BRANCH  58  61
ATOM     61  C35 non d ame     -12.211  15.296  70.681  0.00  0.00    -0.034 A 
ATOM     62  C30 non d ame     -11.543  15.986  71.688  0.00  0.00    -0.075 A 
ATOM     63  C31 non d ame     -12.183  16.245  72.899  0.00  0.00    -0.082 A 
ATOM     64  H49 non d ame     -10.519  16.324  71.528  0.00  0.00     0.084 H 
ATOM     65  C32 non d ame     -13.495  15.808  73.103  0.00  0.00    -0.083 A 
ATOM     66  H50 non d ame     -11.658  16.789  73.685  0.00  0.00     0.083 H 
ATOM     67  C33 non d ame     -14.156  15.116  72.096  0.00  0.00    -0.082 A 
ATOM     68  H51 non d ame     -14.003  16.007  74.046  0.00  0.00     0.083 H 
ATOM     69  C34 non d ame     -13.520  14.858  70.883  0.00  0.00    -0.075 A 
ATOM     70  H52 non d ame     -15.179  14.776  72.260  0.00  0.00     0.083 H 
ATOM     71  H53 non d ame     -14.047  14.315  70.097  0.00  0.00     0.084 H 
ENDBRANCH  58  61
ENDBRANCH  57  58
ENDBRANCH  55  57
ENDBRANCH  52  55
ENDBRANCH  49  52
ENDBRANCH  47  49
BRANCH  47  72
ATOM     72  C24 non d ame      -8.004  10.180  68.976  0.00  0.00    -0.039 C 
ATOM     73  H35 non d ame      -7.233   9.495  68.621  0.00  0.00     0.036 H 
ATOM     74  H36 non d ame      -7.947  10.588  69.985  0.00  0.00     0.036 H 
BRANCH  72  75
ATOM     75  C25 non d ame      -9.407   9.417  68.852  0.00  0.00    -0.001 C 
ATOM     76  C26 non d ame     -10.252   9.571  70.254  0.00  0.00    -0.035 C 
ATOM     77  C27 non d ame     -10.651   8.341  70.660  0.00  0.00     0.085 C 
ATOM     78  H38 non d ame      -9.592   9.902  71.055  0.00  0.00     0.036 H 
ATOM     79  H39 non d ame     -11.190  10.094  70.070  0.00  0.00     0.036 H 
ATOM     80  N5  non d ame      -9.877   7.334  69.843  0.00  0.00    -0.049 N 
ATOM     81  H40 non d ame     -10.341   8.264  71.703  0.00  0.00     0.075 H 
ATOM     82  H41 non d ame     -11.706   8.276  70.398  0.00  0.00     0.075 H 
ATOM     83  C28 non d ame      -9.237   8.160  68.612  0.00  0.00     0.193 C 
ATOM     84  H42 non d ame      -9.128   7.003  70.432  0.00  0.00     0.280 HD
ATOM     85  H43 non d ame     -10.555   6.684  69.474  0.00  0.00     0.280 HD
ATOM     86  H44 non d ame      -9.667   8.089  67.613  0.00  0.00     0.129 H 
ATOM     87  H37 non d ame      -9.930   9.663  67.928  0.00  0.00     0.046 H 
BRANCH  83  88
ATOM     88  O6  non d ame      -7.856   7.823  68.457  0.00  0.00    -0.369 OA
ATOM     89  H45 non d ame      -7.578   7.273  69.192  0.00  0.00     0.212 HD
ENDBRANCH  83  88
ENDBRANCH  72  75
ENDBRANCH  47  72
ENDBRANCH  45  47
ENDBRANCH   1  43
BRANCH   1  90
ATOM     90  C16 non d ame      -6.056  14.460  70.453  0.00  0.00    -0.035 C 
ATOM     91  H21 non d ame      -6.253  15.487  70.767  0.00  0.00     0.037 H 
ATOM     92  H22 non d ame      -6.848  13.714  70.505  0.00  0.00     0.037 H 
BRANCH  90  93
ATOM     93  C17 non d ame      -4.897  13.938  71.360  0.00  0.00    -0.059 C 
ATOM     94  H23 non d ame      -3.958  14.290  70.933  0.00  0.00     0.038 H 
BRANCH  93  95
ATOM     95  C18 non d ame      -4.993  14.491  72.818  0.00  0.00    -0.073 C 
ATOM     96  H24 non d ame      -4.013  14.847  73.137  0.00  0.00     0.028 H 
ATOM     97  H25 non d ame      -5.706  15.315  72.847  0.00  0.00     0.028 H 
ATOM     98  H26 non d ame      -5.327  13.697  73.486  0.00  0.00     0.028 H 
ENDBRANCH  93  95
BRANCH  93  99
ATOM     99  C19 non d ame      -4.849  12.407  71.361  0.00  0.00    -0.073 C 
ATOM    100  H27 non d ame      -4.234  12.063  70.528  0.00  0.00     0.028 H 
ATOM    101  H28 non d ame      -4.419  12.059  72.300  0.00  0.00     0.028 H 
ATOM    102  H29 non d ame      -5.859  12.012  71.255  0.00  0.00     0.028 H 
ENDBRANCH  93  99
ENDBRANCH  90  93
ENDBRANCH   1  90
TORSDOF 26
ENDMDL
MODEL 9
REMARK VINA RESULT:      -6.2      2.063      5.877
REMARK  26 active torsions:
REMARK  status: ('A' for Active; 'I' for Inactive)
REMARK    1  A    between atoms: C2_2  and  C3_3 
REMARK    2  A    between atoms: C4_6  and  C5_7 
REMARK       I    between atoms: C5_7  and  N2_9 
REMARK    3  A    between atoms: N2_9  and  C6_10 
REMARK    4  A    between atoms: C6_10  and  C7_11 
REMARK    5  A    between atoms: C6_10  and  C8_13 
REMARK       I    between atoms: C7_11  and  N3_14 
REMARK    6  A    between atoms: N3_14  and  C9_15 
REMARK    7  A    between atoms: C9_15  and  C10_16 
REMARK    8  A    between atoms: C9_15  and  C11_18 
REMARK       I    between atoms: C10_16  and  N4_21 
REMARK    9  A    between atoms: C11_18  and  C12_19 
REMARK   10  A    between atoms: C11_18  and  C13_20 
REMARK   11  A    between atoms: N4_21  and  C14_22 
REMARK   12  A    between atoms: C14_22  and  C15_23 
REMARK   13  A    between atoms: C14_22  and  C16_25 
REMARK       I    between atoms: C15_23  and  N6_40 
REMARK   14  A    between atoms: C16_25  and  C17_26 
REMARK   15  A    between atoms: C17_26  and  C18_27 
REMARK   16  A    between atoms: C17_26  and  C19_28 
REMARK   17  A    between atoms: C20_29  and  C21_30 
REMARK   18  A    between atoms: C20_29  and  C24_33 
REMARK   19  A    between atoms: C20_29  and  N6_40 
REMARK   20  A    between atoms: C21_30  and  C22_31 
REMARK   21  A    between atoms: C22_31  and  C23_32 
REMARK   22  A    between atoms: C23_32  and  O8_43 
REMARK   23  A    between atoms: C24_33  and  C25_34 
REMARK   24  A    between atoms: C28_38  and  O6_39 
REMARK   25  A    between atoms: C29_42  and  O8_43 
REMARK   26  A    between atoms: C29_42  and  C35_49 
ROOT
ATOM      1  C14 non d ame     -10.533   9.368  69.682  0.00  0.00     0.089 C 
ATOM      2  H20 non d ame     -10.813   8.539  69.030  0.00  0.00     0.087 H 
ENDROOT
BRANCH   1   3
ATOM      3  N4  non d ame      -9.146   9.702  69.394  0.00  0.00    -0.346 N 
ATOM      4  C10 non d ame      -8.622   9.629  67.981  0.00  0.00     0.241 C 
ATOM      5  O4  non d ame      -9.336   9.298  67.093  0.00  0.00    -0.271 OA
ATOM      6  H19 non d ame      -8.553   9.979  70.164  0.00  0.00     0.163 HD
BRANCH   4   7
ATOM      7  C9  non d ame      -7.185   9.983  67.700  0.00  0.00     0.092 C 
ATOM      8  H11 non d ame      -7.076  10.232  66.645  0.00  0.00     0.088 H 
BRANCH   7   9
ATOM      9  N3  non d ame      -6.817  11.178  68.466  0.00  0.00    -0.346 N 
ATOM     10  C7  non d ame      -6.310  12.343  67.785  0.00  0.00     0.240 C 
ATOM     11  O3  non d ame      -6.190  12.337  66.620  0.00  0.00    -0.271 OA
ATOM     12  H10 non d ame      -6.914  11.198  69.472  0.00  0.00     0.163 HD
BRANCH  10  13
ATOM     13  C6  non d ame      -5.917  13.611  68.606  0.00  0.00     0.086 C 
ATOM     14  H6  non d ame      -4.912  13.966  68.378  0.00  0.00     0.086 H 
BRANCH  13  15
ATOM     15  N2  non d ame      -6.828  14.692  68.267  0.00  0.00    -0.343 N 
ATOM     16  C5  non d ame      -6.350  15.808  67.448  0.00  0.00     0.273 C 
ATOM     17  O2  non d ame      -5.231  15.828  67.070  0.00  0.00    -0.266 OA
ATOM     18  H5  non d ame      -7.782  14.668  68.598  0.00  0.00     0.163 HD
BRANCH  16  19
ATOM     19  C4  non d ame      -7.302  16.957  67.082  0.00  0.00     0.154 A 
ATOM     20  C1  non d ame      -8.051  17.781  67.983  0.00  0.00    -0.017 A 
ATOM     21  C2  non d ame      -8.760  18.676  67.152  0.00  0.00     0.077 A 
ATOM     22  H1  non d ame      -8.075  17.736  69.072  0.00  0.00     0.091 H 
ATOM     23  O1  non d ame      -8.448  18.393  65.921  0.00  0.00    -0.218 OA
ATOM     24  N1  non d ame      -7.598  17.394  65.855  0.00  0.00    -0.123 NA
BRANCH  21  25
ATOM     25  C3  non d ame      -9.714  19.770  67.613  0.00  0.00    -0.029 C 
ATOM     26  H2  non d ame     -10.007  20.381  66.759  0.00  0.00     0.036 H 
ATOM     27  H3  non d ame     -10.599  19.318  68.058  0.00  0.00     0.036 H 
ATOM     28  H4  non d ame      -9.215  20.398  68.354  0.00  0.00     0.036 H 
ENDBRANCH  21  25
ENDBRANCH  16  19
ENDBRANCH  13  15
BRANCH  13  29
ATOM     29  C8  non d ame      -6.004  13.305  70.079  0.00  0.00    -0.049 C 
ATOM     30  H7  non d ame      -6.346  12.279  70.218  0.00  0.00     0.030 H 
ATOM     31  H8  non d ame      -5.021  13.426  70.535  0.00  0.00     0.030 H 
ATOM     32  H9  non d ame      -6.709  13.989  70.551  0.00  0.00     0.030 H 
ENDBRANCH  13  29
ENDBRANCH  10  13
ENDBRANCH   7   9
BRANCH   7  33
ATOM     33  C11 non d ame      -6.268   8.798  68.121  0.00  0.00    -0.033 C 
ATOM     34  H12 non d ame      -6.869   8.112  68.716  0.00  0.00     0.042 H 
BRANCH  33  35
ATOM     35  C12 non d ame      -5.751   8.010  66.876  0.00  0.00    -0.071 C 
ATOM     36  H13 non d ame      -6.170   7.004  66.884  0.00  0.00     0.028 H 
ATOM     37  H14 non d ame      -6.059   8.525  65.967  0.00  0.00     0.028 H 
ATOM     38  H15 non d ame      -4.664   7.951  66.911  0.00  0.00     0.028 H 
ENDBRANCH  33  35
BRANCH  33  39
ATOM     39  C13 non d ame      -5.081   9.296  69.007  0.00  0.00    -0.071 C 
ATOM     40  H16 non d ame      -4.145   8.895  68.620  0.00  0.00     0.028 H 
ATOM     41  H17 non d ame      -5.045  10.386  68.987  0.00  0.00     0.028 H 
ATOM     42  H18 non d ame      -5.226   8.956  70.032  0.00  0.00     0.028 H 
ENDBRANCH  33  39
ENDBRANCH   7  33
ENDBRANCH   4   7
ENDBRANCH   1   3
BRANCH   1  43
ATOM     43  C15 non d ame     -11.406  10.631  69.434  0.00  0.00     0.240 C 
ATOM     44  O5  non d ame     -11.931  10.790  68.380  0.00  0.00    -0.271 OA
ATOM     45  N6  non d ame     -11.596  11.639  70.516  0.00  0.00    -0.355 N 
ATOM     46  H46 non d ame     -11.159  11.513  71.417  0.00  0.00     0.162 HD
BRANCH  45  47
ATOM     47  C20 non d ame     -12.430  12.834  70.265  0.00  0.00     0.013 C 
ATOM     48  H30 non d ame     -13.207  12.558  69.552  0.00  0.00     0.072 H 
BRANCH  47  49
ATOM     49  C21 non d ame     -11.568  13.934  69.689  0.00  0.00    -0.038 C 
ATOM     50  H31 non d ame     -11.679  14.781  70.366  0.00  0.00     0.036 H 
ATOM     51  H32 non d ame     -10.586  13.487  69.532  0.00  0.00     0.036 H 
BRANCH  49  52
ATOM     52  C22 non d ame     -12.056  14.414  68.305  0.00  0.00     0.018 C 
ATOM     53  H33 non d ame     -11.795  13.618  67.607  0.00  0.00     0.048 H 
ATOM     54  H34 non d ame     -13.099  14.698  68.441  0.00  0.00     0.048 H 
BRANCH  52  55
ATOM     55  C23 non d ame     -11.328  15.688  67.791  0.00  0.00     0.259 C 
ATOM     56  O7  non d ame     -11.293  16.672  68.457  0.00  0.00    -0.265 OA
BRANCH  55  57
ATOM     57  O8  non d ame     -10.716  15.671  66.508  0.00  0.00    -0.317 OA
BRANCH  57  58
ATOM     58  C29 non d ame      -9.815  14.578  66.307  0.00  0.00     0.052 C 
ATOM     59  H47 non d ame      -8.939  15.003  65.820  0.00  0.00     0.082 H 
ATOM     60  H48 non d ame      -9.717  14.095  67.280  0.00  0.00     0.082 H 
BRANCH  58  61
ATOM     61  C35 non d ame     -10.486  13.578  65.329  0.00  0.00    -0.034 A 
ATOM     62  C30 non d ame     -11.480  14.014  64.458  0.00  0.00    -0.075 A 
ATOM     63  C31 non d ame     -12.082  13.115  63.579  0.00  0.00    -0.082 A 
ATOM     64  H49 non d ame     -11.786  15.060  64.464  0.00  0.00     0.084 H 
ATOM     65  C32 non d ame     -11.690  11.774  63.575  0.00  0.00    -0.083 A 
ATOM     66  H50 non d ame     -12.858  13.461  62.896  0.00  0.00     0.083 H 
ATOM     67  C33 non d ame     -10.701  11.342  64.448  0.00  0.00    -0.082 A 
ATOM     68  H51 non d ame     -12.156  11.065  62.890  0.00  0.00     0.083 H 
ATOM     69  C34 non d ame     -10.094  12.238  65.327  0.00  0.00    -0.075 A 
ATOM     70  H52 non d ame     -10.399  10.294  64.443  0.00  0.00     0.083 H 
ATOM     71  H53 non d ame      -9.317  11.890  66.008  0.00  0.00     0.084 H 
ENDBRANCH  58  61
ENDBRANCH  57  58
ENDBRANCH  55  57
ENDBRANCH  52  55
ENDBRANCH  49  52
ENDBRANCH  47  49
BRANCH  47  72
ATOM     72  C24 non d ame     -13.057  13.310  71.575  0.00  0.00    -0.039 C 
ATOM     73  H35 non d ame     -14.131  13.179  71.446  0.00  0.00     0.036 H 
ATOM     74  H36 non d ame     -12.533  12.766  72.362  0.00  0.00     0.036 H 
BRANCH  72  75
ATOM     75  C25 non d ame     -12.797  14.870  71.825  0.00  0.00    -0.001 C 
ATOM     76  C26 non d ame     -12.001  15.084  73.248  0.00  0.00    -0.035 C 
ATOM     77  C27 non d ame     -12.668  16.004  73.986  0.00  0.00     0.085 C 
ATOM     78  H38 non d ame     -12.064  14.179  73.851  0.00  0.00     0.036 H 
ATOM     79  H39 non d ame     -11.034  15.554  73.069  0.00  0.00     0.036 H 
ATOM     80  N5  non d ame     -14.019  16.194  73.339  0.00  0.00    -0.049 N 
ATOM     81  H40 non d ame     -12.805  15.547  74.967  0.00  0.00     0.075 H 
ATOM     82  H41 non d ame     -12.096  16.925  73.889  0.00  0.00     0.075 H 
ATOM     83  C28 non d ame     -13.907  15.528  71.872  0.00  0.00     0.193 C 
ATOM     84  H42 non d ame     -14.676  15.658  73.886  0.00  0.00     0.280 HD
ATOM     85  H43 non d ame     -14.147  17.190  73.230  0.00  0.00     0.280 HD
ATOM     86  H44 non d ame     -13.805  16.154  70.986  0.00  0.00     0.129 H 
ATOM     87  H37 non d ame     -12.383  15.365  70.946  0.00  0.00     0.046 H 
BRANCH  83  88
ATOM     88  O6  non d ame     -15.039  14.693  71.622  0.00  0.00    -0.369 OA
ATOM     89  H45 non d ame     -15.460  14.963  70.802  0.00  0.00     0.212 HD
ENDBRANCH  83  88
ENDBRANCH  72  75
ENDBRANCH  47  72
ENDBRANCH  45  47
ENDBRANCH   1  43
BRANCH   1  90
ATOM     90  C16 non d ame     -10.649   8.942  71.136  0.00  0.00    -0.035 C 
ATOM     91  H21 non d ame      -9.664   8.557  71.404  0.00  0.00     0.037 H 
ATOM     92  H22 non d ame     -11.056   9.808  71.658  0.00  0.00     0.037 H 
BRANCH  90  93
ATOM     93  C17 non d ame     -11.658   7.773  71.369  0.00  0.00    -0.059 C 
ATOM     94  H23 non d ame     -11.340   7.236  72.262  0.00  0.00     0.038 H 
BRANCH  93  95
ATOM     95  C18 non d ame     -13.112   8.289  71.615  0.00  0.00    -0.073 C 
ATOM     96  H24 non d ame     -13.824   7.510  71.342  0.00  0.00     0.028 H 
ATOM     97  H25 non d ame     -13.234   8.541  72.668  0.00  0.00     0.028 H 
ATOM     98  H26 non d ame     -13.291   9.175  71.005  0.00  0.00     0.028 H 
ENDBRANCH  93  95
BRANCH  93  99
ATOM     99  C19 non d ame     -11.622   6.779  70.204  0.00  0.00    -0.073 C 
ATOM    100  H27 non d ame     -11.223   5.826  70.552  0.00  0.00     0.028 H 
ATOM    101  H28 non d ame     -12.633   6.633  69.822  0.00  0.00     0.028 H 
ATOM    102  H29 non d ame     -10.988   7.173  69.410  0.00  0.00     0.028 H 
ENDBRANCH  93  99
ENDBRANCH  90  93
ENDBRANCH   1  90
TORSDOF 26
ENDMDL
MODEL 10
REMARK VINA RESULT:      -6.2      2.237      5.742
REMARK  26 active torsions:
REMARK  status: ('A' for Active; 'I' for Inactive)
REMARK    1  A    between atoms: C2_2  and  C3_3 
REMARK    2  A    between atoms: C4_6  and  C5_7 
REMARK       I    between atoms: C5_7  and  N2_9 
REMARK    3  A    between atoms: N2_9  and  C6_10 
REMARK    4  A    between atoms: C6_10  and  C7_11 
REMARK    5  A    between atoms: C6_10  and  C8_13 
REMARK       I    between atoms: C7_11  and  N3_14 
REMARK    6  A    between atoms: N3_14  and  C9_15 
REMARK    7  A    between atoms: C9_15  and  C10_16 
REMARK    8  A    between atoms: C9_15  and  C11_18 
REMARK       I    between atoms: C10_16  and  N4_21 
REMARK    9  A    between atoms: C11_18  and  C12_19 
REMARK   10  A    between atoms: C11_18  and  C13_20 
REMARK   11  A    between atoms: N4_21  and  C14_22 
REMARK   12  A    between atoms: C14_22  and  C15_23 
REMARK   13  A    between atoms: C14_22  and  C16_25 
REMARK       I    between atoms: C15_23  and  N6_40 
REMARK   14  A    between atoms: C16_25  and  C17_26 
REMARK   15  A    between atoms: C17_26  and  C18_27 
REMARK   16  A    between atoms: C17_26  and  C19_28 
REMARK   17  A    between atoms: C20_29  and  C21_30 
REMARK   18  A    between atoms: C20_29  and  C24_33 
REMARK   19  A    between atoms: C20_29  and  N6_40 
REMARK   20  A    between atoms: C21_30  and  C22_31 
REMARK   21  A    between atoms: C22_31  and  C23_32 
REMARK   22  A    between atoms: C23_32  and  O8_43 
REMARK   23  A    between atoms: C24_33  and  C25_34 
REMARK   24  A    between atoms: C28_38  and  O6_39 
REMARK   25  A    between atoms: C29_42  and  O8_43 
REMARK   26  A    between atoms: C29_42  and  C35_49 
ROOT
ATOM      1  C14 non d ame     -11.829  13.817  69.599  0.00  0.00     0.089 C 
ATOM      2  H20 non d ame     -12.859  13.880  69.248  0.00  0.00     0.087 H 
ENDROOT
BRANCH   1   3
ATOM      3  N4  non d ame     -11.609  12.458  70.072  0.00  0.00    -0.346 N 
ATOM      4  C10 non d ame     -11.787  11.288  69.136  0.00  0.00     0.241 C 
ATOM      5  O4  non d ame     -12.111  11.466  68.008  0.00  0.00    -0.271 OA
ATOM      6  H19 non d ame     -11.337  12.328  71.036  0.00  0.00     0.163 HD
BRANCH   4   7
ATOM      7  C9  non d ame     -11.551   9.889  69.640  0.00  0.00     0.092 C 
ATOM      8  H11 non d ame     -12.236   9.206  69.137  0.00  0.00     0.088 H 
BRANCH   7   9
ATOM      9  N3  non d ame     -10.189   9.468  69.295  0.00  0.00    -0.346 N 
ATOM     10  C7  non d ame      -9.949   8.729  68.082  0.00  0.00     0.240 C 
ATOM     11  O3  non d ame     -10.839   8.462  67.370  0.00  0.00    -0.271 OA
ATOM     12  H10 non d ame      -9.411   9.691  69.900  0.00  0.00     0.163 HD
BRANCH  10  13
ATOM     13  C6  non d ame      -8.498   8.281  67.722  0.00  0.00     0.086 C 
ATOM     14  H6  non d ame      -8.378   8.049  66.664  0.00  0.00     0.086 H 
BRANCH  13  15
ATOM     15  N2  non d ame      -7.582   9.372  68.014  0.00  0.00    -0.343 N 
ATOM     16  C5  non d ame      -6.913  10.068  66.913  0.00  0.00     0.273 C 
ATOM     17  O2  non d ame      -7.115   9.740  65.796  0.00  0.00    -0.266 OA
ATOM     18  H5  non d ame      -7.414   9.644  68.973  0.00  0.00     0.163 HD
BRANCH  16  19
ATOM     19  C4  non d ame      -5.944  11.223  67.208  0.00  0.00     0.154 A 
ATOM     20  C1  non d ame      -5.774  11.914  68.450  0.00  0.00    -0.017 A 
ATOM     21  C2  non d ame      -4.772  12.877  68.196  0.00  0.00     0.077 A 
ATOM     22  H1  non d ame      -6.296  11.742  69.391  0.00  0.00     0.091 H 
ATOM     23  O1  non d ame      -4.414  12.745  66.952  0.00  0.00    -0.218 OA
ATOM     24  N1  non d ame      -5.084  11.786  66.355  0.00  0.00    -0.123 NA
BRANCH  21  25
ATOM     25  C3  non d ame      -4.214  13.882  69.195  0.00  0.00    -0.029 C 
ATOM     26  H2  non d ame      -3.312  14.338  68.787  0.00  0.00     0.036 H 
ATOM     27  H3  non d ame      -4.958  14.655  69.387  0.00  0.00     0.036 H 
ATOM     28  H4  non d ame      -3.973  13.371  70.128  0.00  0.00     0.036 H 
ENDBRANCH  21  25
ENDBRANCH  16  19
ENDBRANCH  13  15
BRANCH  13  29
ATOM     29  C8  non d ame      -8.128   7.066  68.533  0.00  0.00    -0.049 C 
ATOM     30  H7  non d ame      -9.005   6.710  69.075  0.00  0.00     0.030 H 
ATOM     31  H8  non d ame      -7.768   6.281  67.869  0.00  0.00     0.030 H 
ATOM     32  H9  non d ame      -7.344   7.328  69.244  0.00  0.00     0.030 H 
ENDBRANCH  13  29
ENDBRANCH  10  13
ENDBRANCH   7   9
BRANCH   7  33
ATOM     33  C11 non d ame     -11.725   9.859  71.187  0.00  0.00    -0.033 C 
ATOM     34  H12 non d ame     -11.425  10.833  71.571  0.00  0.00     0.042 H 
BRANCH  33  35
ATOM     35  C12 non d ame     -13.217   9.635  71.587  0.00  0.00    -0.071 C 
ATOM     36  H13 non d ame     -13.270   9.311  72.626  0.00  0.00     0.028 H 
ATOM     37  H14 non d ame     -13.768  10.567  71.468  0.00  0.00     0.028 H 
ATOM     38  H15 non d ame     -13.653   8.870  70.946  0.00  0.00     0.028 H 
ENDBRANCH  33  35
BRANCH  33  39
ATOM     39  C13 non d ame     -10.799   8.778  71.833  0.00  0.00    -0.071 C 
ATOM     40  H16 non d ame     -11.052   8.665  72.886  0.00  0.00     0.028 H 
ATOM     41  H17 non d ame     -10.940   7.826  71.320  0.00  0.00     0.028 H 
ATOM     42  H18 non d ame      -9.758   9.089  71.740  0.00  0.00     0.028 H 
ENDBRANCH  33  39
ENDBRANCH   7  33
ENDBRANCH   4   7
ENDBRANCH   1   3
BRANCH   1  43
ATOM     43  C15 non d ame     -10.803  14.119  68.470  0.00  0.00     0.240 C 
ATOM     44  O5  non d ame      -9.638  14.059  68.697  0.00  0.00    -0.271 OA
ATOM     45  N6  non d ame     -11.274  14.476  67.101  0.00  0.00    -0.355 N 
ATOM     46  H46 non d ame     -12.261  14.526  66.895  0.00  0.00     0.162 HD
BRANCH  45  47
ATOM     47  C20 non d ame     -10.287  14.759  66.037  0.00  0.00     0.013 C 
ATOM     48  H30 non d ame      -9.343  14.294  66.322  0.00  0.00     0.072 H 
BRANCH  47  49
ATOM     49  C21 non d ame     -10.106  16.255  65.908  0.00  0.00    -0.038 C 
ATOM     50  H31 non d ame      -9.030  16.424  65.928  0.00  0.00     0.036 H 
ATOM     51  H32 non d ame     -10.688  16.547  65.033  0.00  0.00     0.036 H 
BRANCH  49  52
ATOM     52  C22 non d ame     -10.695  17.035  67.104  0.00  0.00     0.018 C 
ATOM     53  H33 non d ame     -11.769  17.084  66.925  0.00  0.00     0.048 H 
ATOM     54  H34 non d ame     -10.314  16.539  67.996  0.00  0.00     0.048 H 
BRANCH  52  55
ATOM     55  C23 non d ame     -10.208  18.508  67.191  0.00  0.00     0.259 C 
ATOM     56  O7  non d ame     -10.984  19.390  67.372  0.00  0.00    -0.265 OA
BRANCH  55  57
ATOM     57  O8  non d ame      -8.823  18.795  67.038  0.00  0.00    -0.317 OA
BRANCH  57  58
ATOM     58  C29 non d ame      -8.321  19.753  67.974  0.00  0.00     0.052 C 
ATOM     59  H47 non d ame      -7.850  20.532  67.375  0.00  0.00     0.082 H 
ATOM     60  H48 non d ame      -9.160  19.998  68.624  0.00  0.00     0.082 H 
BRANCH  58  61
ATOM     61  C35 non d ame      -7.226  19.059  68.828  0.00  0.00    -0.034 A 
ATOM     62  C30 non d ame      -6.355  19.822  69.600  0.00  0.00    -0.075 A 
ATOM     63  C31 non d ame      -5.372  19.199  70.366  0.00  0.00    -0.082 A 
ATOM     64  H49 non d ame      -6.445  20.909  69.605  0.00  0.00     0.084 H 
ATOM     65  C32 non d ame      -5.258  17.806  70.355  0.00  0.00    -0.083 A 
ATOM     66  H50 non d ame      -4.694  19.800  70.972  0.00  0.00     0.083 H 
ATOM     67  C33 non d ame      -6.126  17.048  69.581  0.00  0.00    -0.082 A 
ATOM     68  H51 non d ame      -4.492  17.311  70.952  0.00  0.00     0.083 H 
ATOM     69  C34 non d ame      -7.112  17.668  68.815  0.00  0.00    -0.075 A 
ATOM     70  H52 non d ame      -6.033  15.962  69.574  0.00  0.00     0.083 H 
ATOM     71  H53 non d ame      -7.791  17.066  68.210  0.00  0.00     0.084 H 
ENDBRANCH  58  61
ENDBRANCH  57  58
ENDBRANCH  55  57
ENDBRANCH  52  55
ENDBRANCH  49  52
ENDBRANCH  47  49
BRANCH  47  72
ATOM     72  C24 non d ame     -10.780  14.188  64.710  0.00  0.00    -0.039 C 
ATOM     73  H35 non d ame     -11.636  14.802  64.430  0.00  0.00     0.036 H 
ATOM     74  H36 non d ame      -9.902  14.153  64.064  0.00  0.00     0.036 H 
BRANCH  72  75
ATOM     75  C25 non d ame     -11.309  12.684  64.870  0.00  0.00    -0.001 C 
ATOM     76  C26 non d ame     -10.042  11.671  65.137  0.00  0.00    -0.035 C 
ATOM     77  C27 non d ame     -10.116  10.641  64.260  0.00  0.00     0.085 C 
ATOM     78  H38 non d ame      -9.107  12.164  64.873  0.00  0.00     0.036 H 
ATOM     79  H39 non d ame     -10.148  11.187  66.107  0.00  0.00     0.036 H 
ATOM     80  N5  non d ame     -11.128  11.028  63.208  0.00  0.00    -0.049 N 
ATOM     81  H40 non d ame      -9.129  10.579  63.799  0.00  0.00     0.075 H 
ATOM     82  H41 non d ame     -10.503   9.799  64.832  0.00  0.00     0.075 H 
ATOM     83  C28 non d ame     -11.933  12.291  63.810  0.00  0.00     0.193 C 
ATOM     84  H42 non d ame     -10.601  11.336  62.404  0.00  0.00     0.280 HD
ATOM     85  H43 non d ame     -11.767  10.250  63.126  0.00  0.00     0.280 HD
ATOM     86  H44 non d ame     -12.940  12.169  64.207  0.00  0.00     0.129 H 
ATOM     87  H37 non d ame     -12.152  12.615  65.558  0.00  0.00     0.046 H 
BRANCH  83  88
ATOM     88  O6  non d ame     -12.032  13.326  62.829  0.00  0.00    -0.369 OA
ATOM     89  H45 non d ame     -12.957  13.529  62.672  0.00  0.00     0.212 HD
ENDBRANCH  83  88
ENDBRANCH  72  75
ENDBRANCH  47  72
ENDBRANCH  45  47
ENDBRANCH   1  43
BRANCH   1  90
ATOM     90  C16 non d ame     -11.618  14.784  70.753  0.00  0.00    -0.035 C 
ATOM     91  H21 non d ame     -10.650  14.517  71.180  0.00  0.00     0.037 H 
ATOM     92  H22 non d ame     -11.772  15.776  70.331  0.00  0.00     0.037 H 
BRANCH  90  93
ATOM     93  C17 non d ame     -12.664  14.626  71.902  0.00  0.00    -0.059 C 
ATOM     94  H23 non d ame     -12.756  13.563  72.122  0.00  0.00     0.038 H 
BRANCH  93  95
ATOM     95  C18 non d ame     -12.214  15.347  73.213  0.00  0.00    -0.073 C 
ATOM     96  H24 non d ame     -11.148  15.183  73.369  0.00  0.00     0.028 H 
ATOM     97  H25 non d ame     -12.408  16.416  73.124  0.00  0.00     0.028 H 
ATOM     98  H26 non d ame     -12.773  14.945  74.059  0.00  0.00     0.028 H 
ENDBRANCH  93  95
BRANCH  93  99
ATOM     99  C19 non d ame     -14.045  15.117  71.457  0.00  0.00    -0.073 C 
ATOM    100  H27 non d ame     -13.927  15.950  70.762  0.00  0.00     0.028 H 
ATOM    101  H28 non d ame     -14.577  14.304  70.963  0.00  0.00     0.028 H 
ATOM    102  H29 non d ame     -14.612  15.446  72.327  0.00  0.00     0.028 H 
ENDBRANCH  93  99
ENDBRANCH  90  93
ENDBRANCH   1  90
TORSDOF 26
ENDMDL
MODEL 11
REMARK VINA RESULT:      -6.1      2.112      8.105
REMARK  26 active torsions:
REMARK  status: ('A' for Active; 'I' for Inactive)
REMARK    1  A    between atoms: C2_2  and  C3_3 
REMARK    2  A    between atoms: C4_6  and  C5_7 
REMARK       I    between atoms: C5_7  and  N2_9 
REMARK    3  A    between atoms: N2_9  and  C6_10 
REMARK    4  A    between atoms: C6_10  and  C7_11 
REMARK    5  A    between atoms: C6_10  and  C8_13 
REMARK       I    between atoms: C7_11  and  N3_14 
REMARK    6  A    between atoms: N3_14  and  C9_15 
REMARK    7  A    between atoms: C9_15  and  C10_16 
REMARK    8  A    between atoms: C9_15  and  C11_18 
REMARK       I    between atoms: C10_16  and  N4_21 
REMARK    9  A    between atoms: C11_18  and  C12_19 
REMARK   10  A    between atoms: C11_18  and  C13_20 
REMARK   11  A    between atoms: N4_21  and  C14_22 
REMARK   12  A    between atoms: C14_22  and  C15_23 
REMARK   13  A    between atoms: C14_22  and  C16_25 
REMARK       I    between atoms: C15_23  and  N6_40 
REMARK   14  A    between atoms: C16_25  and  C17_26 
REMARK   15  A    between atoms: C17_26  and  C18_27 
REMARK   16  A    between atoms: C17_26  and  C19_28 
REMARK   17  A    between atoms: C20_29  and  C21_30 
REMARK   18  A    between atoms: C20_29  and  C24_33 
REMARK   19  A    between atoms: C20_29  and  N6_40 
REMARK   20  A    between atoms: C21_30  and  C22_31 
REMARK   21  A    between atoms: C22_31  and  C23_32 
REMARK   22  A    between atoms: C23_32  and  O8_43 
REMARK   23  A    between atoms: C24_33  and  C25_34 
REMARK   24  A    between atoms: C28_38  and  O6_39 
REMARK   25  A    between atoms: C29_42  and  O8_43 
REMARK   26  A    between atoms: C29_42  and  C35_49 
ROOT
ATOM      1  C14 non d ame      -7.106  13.782  67.929  0.00  0.00     0.089 C 
ATOM      2  H20 non d ame      -6.265  13.600  67.257  0.00  0.00     0.087 H 
ENDROOT
BRANCH   1   3
ATOM      3  N4  non d ame      -7.187  15.218  68.149  0.00  0.00    -0.346 N 
ATOM      4  C10 non d ame      -6.092  16.129  67.651  0.00  0.00     0.241 C 
ATOM      5  O4  non d ame      -5.154  15.681  67.078  0.00  0.00    -0.271 OA
ATOM      6  H19 non d ame      -7.992  15.579  68.642  0.00  0.00     0.163 HD
BRANCH   4   7
ATOM      7  C9  non d ame      -6.195  17.613  67.884  0.00  0.00     0.092 C 
ATOM      8  H11 non d ame      -5.940  18.139  66.964  0.00  0.00     0.088 H 
BRANCH   7   9
ATOM      9  N3  non d ame      -7.581  17.963  68.211  0.00  0.00    -0.346 N 
ATOM     10  C7  non d ame      -8.531  18.206  67.155  0.00  0.00     0.240 C 
ATOM     11  O3  non d ame      -8.199  18.127  66.035  0.00  0.00    -0.271 OA
ATOM     12  H10 non d ame      -7.883  18.035  69.173  0.00  0.00     0.163 HD
BRANCH  10  13
ATOM     13  C6  non d ame     -10.004  18.581  67.510  0.00  0.00     0.086 C 
ATOM     14  H6  non d ame     -10.710  18.305  66.726  0.00  0.00     0.086 H 
BRANCH  13  15
ATOM     15  N2  non d ame     -10.401  17.850  68.703  0.00  0.00    -0.343 N 
ATOM     16  C5  non d ame     -11.035  16.537  68.568  0.00  0.00     0.273 C 
ATOM     17  O2  non d ame     -11.224  16.079  67.495  0.00  0.00    -0.266 OA
ATOM     18  H5  non d ame     -10.239  18.251  69.616  0.00  0.00     0.163 HD
BRANCH  16  19
ATOM     19  C4  non d ame     -11.459  15.754  69.820  0.00  0.00     0.154 A 
ATOM     20  C1  non d ame     -11.651  16.273  71.140  0.00  0.00    -0.017 A 
ATOM     21  C2  non d ame     -12.034  15.156  71.916  0.00  0.00     0.077 A 
ATOM     22  H1  non d ame     -11.532  17.301  71.482  0.00  0.00     0.091 H 
ATOM     23  O1  non d ame     -12.058  14.124  71.126  0.00  0.00    -0.218 OA
ATOM     24  N1  non d ame     -11.726  14.448  69.897  0.00  0.00    -0.123 NA
BRANCH  21  25
ATOM     25  C3  non d ame     -12.360  15.163  73.404  0.00  0.00    -0.029 C 
ATOM     26  H2  non d ame     -12.479  16.191  73.746  0.00  0.00     0.036 H 
ATOM     27  H3  non d ame     -13.286  14.614  73.576  0.00  0.00     0.036 H 
ATOM     28  H4  non d ame     -11.549  14.687  73.957  0.00  0.00     0.036 H 
ENDBRANCH  21  25
ENDBRANCH  16  19
ENDBRANCH  13  15
BRANCH  13  29
ATOM     29  C8  non d ame     -10.104  20.064  67.756  0.00  0.00    -0.049 C 
ATOM     30  H7  non d ame      -9.106  20.474  67.915  0.00  0.00     0.030 H 
ATOM     31  H8  non d ame     -10.562  20.547  66.893  0.00  0.00     0.030 H 
ATOM     32  H9  non d ame     -10.714  20.245  68.641  0.00  0.00     0.030 H 
ENDBRANCH  13  29
ENDBRANCH  10  13
ENDBRANCH   7   9
BRANCH   7  33
ATOM     33  C11 non d ame      -5.267  18.018  69.066  0.00  0.00    -0.033 C 
ATOM     34  H12 non d ame      -4.238  17.933  68.721  0.00  0.00     0.042 H 
BRANCH  33  35
ATOM     35  C12 non d ame      -5.500  19.503  69.488  0.00  0.00    -0.071 C 
ATOM     36  H13 non d ame      -6.337  19.914  68.925  0.00  0.00     0.028 H 
ATOM     37  H14 non d ame      -5.722  19.547  70.554  0.00  0.00     0.028 H 
ATOM     38  H15 non d ame      -4.602  20.083  69.279  0.00  0.00     0.028 H 
ENDBRANCH  33  35
BRANCH  33  39
ATOM     39  C13 non d ame      -5.452  17.050  70.279  0.00  0.00    -0.071 C 
ATOM     40  H16 non d ame      -6.478  17.113  70.640  0.00  0.00     0.028 H 
ATOM     41  H17 non d ame      -5.239  16.028  69.964  0.00  0.00     0.028 H 
ATOM     42  H18 non d ame      -4.767  17.333  71.078  0.00  0.00     0.028 H 
ENDBRANCH  33  39
ENDBRANCH   7  33
ENDBRANCH   4   7
ENDBRANCH   1   3
BRANCH   1  43
ATOM     43  C15 non d ame      -8.455  13.298  67.326  0.00  0.00     0.240 C 
ATOM     44  O5  non d ame      -9.069  14.011  66.601  0.00  0.00    -0.271 OA
ATOM     45  N6  non d ame      -8.978  11.938  67.647  0.00  0.00    -0.355 N 
ATOM     46  H46 non d ame      -8.463  11.322  68.259  0.00  0.00     0.162 HD
BRANCH  45  47
ATOM     47  C20 non d ame     -10.262  11.492  67.066  0.00  0.00     0.013 C 
ATOM     48  H30 non d ame     -10.915  12.361  66.984  0.00  0.00     0.072 H 
BRANCH  47  49
ATOM     49  C21 non d ame     -10.890  10.459  67.973  0.00  0.00    -0.038 C 
ATOM     50  H31 non d ame     -10.487  10.655  68.966  0.00  0.00     0.036 H 
ATOM     51  H32 non d ame     -11.964  10.526  67.798  0.00  0.00     0.036 H 
BRANCH  49  52
ATOM     52  C22 non d ame     -10.478   9.015  67.612  0.00  0.00     0.018 C 
ATOM     53  H33 non d ame     -11.374   8.408  67.749  0.00  0.00     0.048 H 
ATOM     54  H34 non d ame     -10.010   9.078  66.630  0.00  0.00     0.048 H 
BRANCH  52  55
ATOM     55  C23 non d ame      -9.405   8.413  68.561  0.00  0.00     0.259 C 
ATOM     56  O7  non d ame      -8.286   8.811  68.535  0.00  0.00    -0.265 OA
BRANCH  55  57
ATOM     57  O8  non d ame      -9.772   7.369  69.455  0.00  0.00    -0.317 OA
BRANCH  57  58
ATOM     58  C29 non d ame      -9.849   7.776  70.824  0.00  0.00     0.052 C 
ATOM     59  H47 non d ame      -9.525   6.914  71.406  0.00  0.00     0.082 H 
ATOM     60  H48 non d ame      -9.297   8.714  70.884  0.00  0.00     0.082 H 
BRANCH  58  61
ATOM     61  C35 non d ame     -11.338   8.061  71.155  0.00  0.00    -0.034 A 
ATOM     62  C30 non d ame     -11.750   9.355  71.458  0.00  0.00    -0.075 A 
ATOM     63  C31 non d ame     -13.088   9.611  71.755  0.00  0.00    -0.082 A 
ATOM     64  H49 non d ame     -11.025  10.169  71.460  0.00  0.00     0.084 H 
ATOM     65  C32 non d ame     -14.015   8.565  71.753  0.00  0.00    -0.083 A 
ATOM     66  H50 non d ame     -13.408  10.626  71.988  0.00  0.00     0.083 H 
ATOM     67  C33 non d ame     -13.599   7.274  71.455  0.00  0.00    -0.082 A 
ATOM     68  H51 non d ame     -15.063   8.757  71.984  0.00  0.00     0.083 H 
ATOM     69  C34 non d ame     -12.263   7.015  71.154  0.00  0.00    -0.075 A 
ATOM     70  H52 non d ame     -14.325   6.461  71.456  0.00  0.00     0.083 H 
ATOM     71  H53 non d ame     -11.945   5.999  70.920  0.00  0.00     0.084 H 
ENDBRANCH  58  61
ENDBRANCH  57  58
ENDBRANCH  55  57
ENDBRANCH  52  55
ENDBRANCH  49  52
ENDBRANCH  47  49
BRANCH  47  72
ATOM     72  C24 non d ame     -10.019  10.880  65.687  0.00  0.00    -0.039 C 
ATOM     73  H35 non d ame      -8.941  10.728  65.624  0.00  0.00     0.036 H 
ATOM     74  H36 non d ame     -10.694  10.026  65.625  0.00  0.00     0.036 H 
BRANCH  72  75
ATOM     75  C25 non d ame     -10.424  11.889  64.510  0.00  0.00    -0.001 C 
ATOM     76  C26 non d ame     -11.894  12.555  64.826  0.00  0.00    -0.035 C 
ATOM     77  C27 non d ame     -12.685  12.401  63.737  0.00  0.00     0.085 C 
ATOM     78  H38 non d ame     -12.407  11.981  65.596  0.00  0.00     0.036 H 
ATOM     79  H39 non d ame     -11.802  13.637  64.923  0.00  0.00     0.036 H 
ATOM     80  N5  non d ame     -12.000  11.405  62.831  0.00  0.00    -0.049 N 
ATOM     81  H40 non d ame     -13.612  11.964  64.109  0.00  0.00     0.075 H 
ATOM     82  H41 non d ame     -12.699  13.374  63.248  0.00  0.00     0.075 H 
ATOM     83  C28 non d ame     -10.485  11.282  63.373  0.00  0.00     0.193 C 
ATOM     84  H42 non d ame     -12.466  10.522  62.974  0.00  0.00     0.280 HD
ATOM     85  H43 non d ame     -11.979  11.823  61.912  0.00  0.00     0.280 HD
ATOM     86  H44 non d ame      -9.665  11.768  62.844  0.00  0.00     0.129 H 
ATOM     87  H37 non d ame      -9.614  12.573  64.257  0.00  0.00     0.046 H 
BRANCH  83  88
ATOM     88  O6  non d ame     -10.109   9.907  63.476  0.00  0.00    -0.369 OA
ATOM     89  H45 non d ame      -9.340   9.828  64.046  0.00  0.00     0.212 HD
ENDBRANCH  83  88
ENDBRANCH  72  75
ENDBRANCH  47  72
ENDBRANCH  45  47
ENDBRANCH   1  43
BRANCH   1  90
ATOM     90  C16 non d ame      -6.861  13.089  69.259  0.00  0.00    -0.035 C 
ATOM     91  H21 non d ame      -7.447  13.650  69.989  0.00  0.00     0.037 H 
ATOM     92  H22 non d ame      -7.077  12.036  69.080  0.00  0.00     0.037 H 
BRANCH  90  93
ATOM     93  C17 non d ame      -5.377  13.160  69.739  0.00  0.00    -0.059 C 
ATOM     94  H23 non d ame      -4.902  13.994  69.224  0.00  0.00     0.038 H 
BRANCH  93  95
ATOM     95  C18 non d ame      -5.266  13.423  71.275  0.00  0.00    -0.073 C 
ATOM     96  H24 non d ame      -5.912  12.727  71.810  0.00  0.00     0.028 H 
ATOM     97  H25 non d ame      -4.233  13.279  71.594  0.00  0.00     0.028 H 
ATOM     98  H26 non d ame      -5.574  14.446  71.491  0.00  0.00     0.028 H 
ENDBRANCH  93  95
BRANCH  93  99
ATOM     99  C19 non d ame      -4.614  11.891  69.348  0.00  0.00    -0.073 C 
ATOM    100  H27 non d ame      -5.204  11.015  69.616  0.00  0.00     0.028 H 
ATOM    101  H28 non d ame      -4.434  11.894  68.272  0.00  0.00     0.028 H 
ATOM    102  H29 non d ame      -3.660  11.863  69.874  0.00  0.00     0.028 H 
ENDBRANCH  93  99
ENDBRANCH  90  93
ENDBRANCH   1  90
TORSDOF 26
ENDMDL
MODEL 12
REMARK VINA RESULT:      -6.1      2.849      6.110
REMARK  26 active torsions:
REMARK  status: ('A' for Active; 'I' for Inactive)
REMARK    1  A    between atoms: C2_2  and  C3_3 
REMARK    2  A    between atoms: C4_6  and  C5_7 
REMARK       I    between atoms: C5_7  and  N2_9 
REMARK    3  A    between atoms: N2_9  and  C6_10 
REMARK    4  A    between atoms: C6_10  and  C7_11 
REMARK    5  A    between atoms: C6_10  and  C8_13 
REMARK       I    between atoms: C7_11  and  N3_14 
REMARK    6  A    between atoms: N3_14  and  C9_15 
REMARK    7  A    between atoms: C9_15  and  C10_16 
REMARK    8  A    between atoms: C9_15  and  C11_18 
REMARK       I    between atoms: C10_16  and  N4_21 
REMARK    9  A    between atoms: C11_18  and  C12_19 
REMARK   10  A    between atoms: C11_18  and  C13_20 
REMARK   11  A    between atoms: N4_21  and  C14_22 
REMARK   12  A    between atoms: C14_22  and  C15_23 
REMARK   13  A    between atoms: C14_22  and  C16_25 
REMARK       I    between atoms: C15_23  and  N6_40 
REMARK   14  A    between atoms: C16_25  and  C17_26 
REMARK   15  A    between atoms: C17_26  and  C18_27 
REMARK   16  A    between atoms: C17_26  and  C19_28 
REMARK   17  A    between atoms: C20_29  and  C21_30 
REMARK   18  A    between atoms: C20_29  and  C24_33 
REMARK   19  A    between atoms: C20_29  and  N6_40 
REMARK   20  A    between atoms: C21_30  and  C22_31 
REMARK   21  A    between atoms: C22_31  and  C23_32 
REMARK   22  A    between atoms: C23_32  and  O8_43 
REMARK   23  A    between atoms: C24_33  and  C25_34 
REMARK   24  A    between atoms: C28_38  and  O6_39 
REMARK   25  A    between atoms: C29_42  and  O8_43 
REMARK   26  A    between atoms: C29_42  and  C35_49 
ROOT
ATOM      1  C14 non d ame     -11.767  14.559  70.116  0.00  0.00     0.089 C 
ATOM      2  H20 non d ame     -12.781  14.667  69.730  0.00  0.00     0.087 H 
ENDROOT
BRANCH   1   3
ATOM      3  N4  non d ame     -11.489  13.135  70.226  0.00  0.00    -0.346 N 
ATOM      4  C10 non d ame     -11.812  12.204  69.084  0.00  0.00     0.241 C 
ATOM      5  O4  non d ame     -12.299  12.626  68.086  0.00  0.00    -0.271 OA
ATOM      6  H19 non d ame     -11.077  12.796  71.084  0.00  0.00     0.163 HD
BRANCH   4   7
ATOM      7  C9  non d ame     -11.513  10.734  69.213  0.00  0.00     0.092 C 
ATOM      8  H11 non d ame     -12.203  10.171  68.584  0.00  0.00     0.088 H 
BRANCH   7   9
ATOM      9  N3  non d ame     -10.159  10.465  68.719  0.00  0.00    -0.346 N 
ATOM     10  C7  non d ame      -9.963  10.006  67.367  0.00  0.00     0.240 C 
ATOM     11  O3  non d ame     -10.883   9.846  66.661  0.00  0.00    -0.271 OA
ATOM     12  H10 non d ame      -9.355  10.598  69.316  0.00  0.00     0.163 HD
BRANCH  10  13
ATOM     13  C6  non d ame      -8.519   9.718  66.848  0.00  0.00     0.086 C 
ATOM     14  H6  non d ame      -7.748  10.065  67.535  0.00  0.00     0.086 H 
BRANCH  13  15
ATOM     15  N2  non d ame      -8.344   8.281  66.716  0.00  0.00    -0.343 N 
ATOM     16  C5  non d ame      -7.020   7.693  66.931  0.00  0.00     0.273 C 
ATOM     17  O2  non d ame      -6.102   8.385  67.206  0.00  0.00    -0.266 OA
ATOM     18  H5  non d ame      -9.133   7.698  66.477  0.00  0.00     0.163 HD
BRANCH  16  19
ATOM     19  C4  non d ame      -6.820   6.176  66.795  0.00  0.00     0.154 A 
ATOM     20  C1  non d ame      -5.579   5.463  66.796  0.00  0.00    -0.017 A 
ATOM     21  C2  non d ame      -5.940   4.106  66.645  0.00  0.00     0.077 A 
ATOM     22  H1  non d ame      -4.572   5.869  66.892  0.00  0.00     0.091 H 
ATOM     23  O1  non d ame      -7.237   4.055  66.570  0.00  0.00    -0.218 OA
ATOM     24  N1  non d ame      -7.774   5.251  66.655  0.00  0.00    -0.123 NA
BRANCH  21  25
ATOM     25  C3  non d ame      -4.985   2.921  66.584  0.00  0.00    -0.029 C 
ATOM     26  H2  non d ame      -4.585   2.827  65.575  0.00  0.00     0.036 H 
ATOM     27  H3  non d ame      -4.166   3.077  67.286  0.00  0.00     0.036 H 
ATOM     28  H4  non d ame      -5.520   2.008  66.849  0.00  0.00     0.036 H 
ENDBRANCH  21  25
ENDBRANCH  16  19
ENDBRANCH  13  15
BRANCH  13  29
ATOM     29  C8  non d ame      -8.320  10.388  65.513  0.00  0.00    -0.049 C 
ATOM     30  H7  non d ame      -9.289  10.668  65.098  0.00  0.00     0.030 H 
ATOM     31  H8  non d ame      -7.708  11.280  65.640  0.00  0.00     0.030 H 
ATOM     32  H9  non d ame      -7.820   9.698  64.832  0.00  0.00     0.030 H 
ENDBRANCH  13  29
ENDBRANCH  10  13
ENDBRANCH   7   9
BRANCH   7  33
ATOM     33  C11 non d ame     -11.610  10.315  70.709  0.00  0.00    -0.033 C 
ATOM     34  H12 non d ame     -11.314  11.173  71.311  0.00  0.00     0.042 H 
BRANCH  33  35
ATOM     35  C12 non d ame     -13.075   9.949  71.103  0.00  0.00    -0.071 C 
ATOM     36  H13 non d ame     -13.395  10.574  71.937  0.00  0.00     0.028 H 
ATOM     37  H14 non d ame     -13.733  10.115  70.251  0.00  0.00     0.028 H 
ATOM     38  H15 non d ame     -13.119   8.901  71.398  0.00  0.00     0.028 H 
ENDBRANCH  33  35
BRANCH  33  39
ATOM     39  C13 non d ame     -10.629   9.141  71.025  0.00  0.00    -0.071 C 
ATOM     40  H16 non d ame     -11.181   8.319  71.481  0.00  0.00     0.028 H 
ATOM     41  H17 non d ame     -10.164   8.797  70.100  0.00  0.00     0.028 H 
ATOM     42  H18 non d ame      -9.858   9.486  71.713  0.00  0.00     0.028 H 
ENDBRANCH  33  39
ENDBRANCH   7  33
ENDBRANCH   4   7
ENDBRANCH   1   3
BRANCH   1  43
ATOM     43  C15 non d ame     -10.709  15.197  69.171  0.00  0.00     0.240 C 
ATOM     44  O5  non d ame      -9.611  15.411  69.572  0.00  0.00    -0.271 OA
ATOM     45  N6  non d ame     -11.062  15.534  67.762  0.00  0.00    -0.355 N 
ATOM     46  H46 non d ame     -11.990  15.353  67.410  0.00  0.00     0.162 HD
BRANCH  45  47
ATOM     47  C20 non d ame     -10.045  16.140  66.877  0.00  0.00     0.013 C 
ATOM     48  H30 non d ame      -9.066  15.972  67.325  0.00  0.00     0.072 H 
BRANCH  47  49
ATOM     49  C21 non d ame     -10.308  17.623  66.753  0.00  0.00    -0.038 C 
ATOM     50  H31 non d ame     -10.186  17.857  65.696  0.00  0.00     0.036 H 
ATOM     51  H32 non d ame     -11.267  17.794  67.243  0.00  0.00     0.036 H 
BRANCH  49  52
ATOM     52  C22 non d ame      -9.271  18.481  67.512  0.00  0.00     0.018 C 
ATOM     53  H33 non d ame      -9.759  19.438  67.698  0.00  0.00     0.048 H 
ATOM     54  H34 non d ame      -8.937  17.868  68.349  0.00  0.00     0.048 H 
BRANCH  52  55
ATOM     55  C23 non d ame      -7.998  18.804  66.682  0.00  0.00     0.259 C 
ATOM     56  O7  non d ame      -8.080  19.411  65.664  0.00  0.00    -0.265 OA
BRANCH  55  57
ATOM     57  O8  non d ame      -6.731  18.354  67.146  0.00  0.00    -0.317 OA
BRANCH  57  58
ATOM     58  C29 non d ame      -6.700  18.043  68.543  0.00  0.00     0.052 C 
ATOM     59  H47 non d ame      -5.843  18.581  68.946  0.00  0.00     0.082 H 
ATOM     60  H48 non d ame      -7.702  18.257  68.914  0.00  0.00     0.082 H 
BRANCH  58  61
ATOM     61  C35 non d ame      -6.438  16.520  68.688  0.00  0.00    -0.034 A 
ATOM     62  C30 non d ame      -6.628  15.673  67.601  0.00  0.00    -0.075 A 
ATOM     63  C31 non d ame      -6.392  14.305  67.732  0.00  0.00    -0.082 A 
ATOM     64  H49 non d ame      -6.960  16.081  66.646  0.00  0.00     0.084 H 
ATOM     65  C32 non d ame      -5.969  13.784  68.958  0.00  0.00    -0.083 A 
ATOM     66  H50 non d ame      -6.538  13.644  66.877  0.00  0.00     0.083 H 
ATOM     67  C33 non d ame      -5.784  14.633  70.041  0.00  0.00    -0.082 A 
ATOM     68  H51 non d ame      -5.781  12.716  69.068  0.00  0.00     0.083 H 
ATOM     69  C34 non d ame      -6.016  16.001  69.913  0.00  0.00    -0.075 A 
ATOM     70  H52 non d ame      -5.455  14.222  70.997  0.00  0.00     0.083 H 
ATOM     71  H53 non d ame      -5.868  16.661  70.769  0.00  0.00     0.084 H 
ENDBRANCH  58  61
ENDBRANCH  57  58
ENDBRANCH  55  57
ENDBRANCH  52  55
ENDBRANCH  49  52
ENDBRANCH  47  49
BRANCH  47  72
ATOM     72  C24 non d ame     -10.113  15.493  65.495  0.00  0.00    -0.039 C 
ATOM     73  H35 non d ame     -10.176  16.322  64.789  0.00  0.00     0.036 H 
ATOM     74  H36 non d ame      -9.267  14.806  65.454  0.00  0.00     0.036 H 
BRANCH  72  75
ATOM     75  C25 non d ame     -11.442  14.616  65.314  0.00  0.00    -0.001 C 
ATOM     76  C26 non d ame     -11.043  13.063  64.950  0.00  0.00    -0.035 C 
ATOM     77  C27 non d ame     -11.732  12.684  63.847  0.00  0.00     0.085 C 
ATOM     78  H38 non d ame     -10.002  13.009  64.631  0.00  0.00     0.036 H 
ATOM     79  H39 non d ame     -11.411  12.391  65.724  0.00  0.00     0.036 H 
ATOM     80  N5  non d ame     -12.312  13.937  63.236  0.00  0.00    -0.049 N 
ATOM     81  H40 non d ame     -10.987  12.270  63.166  0.00  0.00     0.075 H 
ATOM     82  H41 non d ame     -12.544  12.058  64.212  0.00  0.00     0.075 H 
ATOM     83  C28 non d ame     -12.185  15.082  64.367  0.00  0.00     0.193 C 
ATOM     84  H42 non d ame     -11.713  14.182  62.461  0.00  0.00     0.280 HD
ATOM     85  H43 non d ame     -13.292  13.751  63.078  0.00  0.00     0.280 HD
ATOM     86  H44 non d ame     -13.058  15.398  64.937  0.00  0.00     0.129 H 
ATOM     87  H37 non d ame     -12.149  14.768  66.130  0.00  0.00     0.046 H 
BRANCH  83  88
ATOM     88  O6  non d ame     -11.647  16.278  63.799  0.00  0.00    -0.369 OA
ATOM     89  H45 non d ame     -12.363  16.883  63.590  0.00  0.00     0.212 HD
ENDBRANCH  83  88
ENDBRANCH  72  75
ENDBRANCH  47  72
ENDBRANCH  45  47
ENDBRANCH   1  43
BRANCH   1  90
ATOM     90  C16 non d ame     -11.670  15.192  71.494  0.00  0.00    -0.035 C 
ATOM     91  H21 non d ame     -11.404  14.377  72.168  0.00  0.00     0.037 H 
ATOM     92  H22 non d ame     -10.999  16.042  71.375  0.00  0.00     0.037 H 
BRANCH  90  93
ATOM     93  C17 non d ame     -13.025  15.769  72.015  0.00  0.00    -0.059 C 
ATOM     94  H23 non d ame     -13.136  16.773  71.605  0.00  0.00     0.038 H 
BRANCH  93  95
ATOM     95  C18 non d ame     -14.249  14.923  71.540  0.00  0.00    -0.073 C 
ATOM     96  H24 non d ame     -13.896  14.067  70.965  0.00  0.00     0.028 H 
ATOM     97  H25 non d ame     -14.806  14.572  72.409  0.00  0.00     0.028 H 
ATOM     98  H26 non d ame     -14.897  15.539  70.917  0.00  0.00     0.028 H 
ENDBRANCH  93  95
BRANCH  93  99
ATOM     99  C19 non d ame     -13.013  15.902  73.541  0.00  0.00    -0.073 C 
ATOM    100  H27 non d ame     -13.478  15.021  73.985  0.00  0.00     0.028 H 
ATOM    101  H28 non d ame     -11.983  15.984  73.889  0.00  0.00     0.028 H 
ATOM    102  H29 non d ame     -13.567  16.793  73.833  0.00  0.00     0.028 H 
ENDBRANCH  93  99
ENDBRANCH  90  93
ENDBRANCH   1  90
TORSDOF 26
ENDMDL
