MODEL 1
REMARK VINA RESULT:      -7.2      0.000      0.000
REMARK  26 active torsions:
REMARK  status: ('A' for Active; 'I' for Inactive)
REMARK    1  A    between atoms: C2_2  and  C3_3 
REMARK    2  A    between atoms: C4_6  and  C5_7 
REMARK       I    between atoms: C5_7  and  N2_9 
REMARK    3  A    between atoms: N2_9  and  C6_10 
REMARK    4  A    between atoms: C6_10  and  C7_11 
REMARK    5  A    between atoms: C6_10  and  C8_13 
REMARK       I    between atoms: C7_11  and  N3_14 
REMARK    6  A    between atoms: N3_14  and  C9_15 
REMARK    7  A    between atoms: C9_15  and  C10_16 
REMARK    8  A    between atoms: C9_15  and  C11_18 
REMARK       I    between atoms: C10_16  and  N4_21 
REMARK    9  A    between atoms: C11_18  and  C12_19 
REMARK   10  A    between atoms: C11_18  and  C13_20 
REMARK   11  A    between atoms: N4_21  and  C14_22 
REMARK   12  A    between atoms: C14_22  and  C15_23 
REMARK   13  A    between atoms: C14_22  and  C16_25 
REMARK       I    between atoms: C15_23  and  N6_40 
REMARK   14  A    between atoms: C16_25  and  C17_26 
REMARK   15  A    between atoms: C17_26  and  C18_27 
REMARK   16  A    between atoms: C17_26  and  C19_28 
REMARK   17  A    between atoms: C20_29  and  C21_30 
REMARK   18  A    between atoms: C20_29  and  C24_33 
REMARK   19  A    between atoms: C20_29  and  N6_40 
REMARK   20  A    between atoms: C21_30  and  C22_31 
REMARK   21  A    between atoms: C22_31  and  C23_32 
REMARK   22  A    between atoms: C23_32  and  O8_43 
REMARK   23  A    between atoms: C24_33  and  C25_34 
REMARK   24  A    between atoms: C28_38  and  O6_39 
REMARK   25  A    between atoms: C29_42  and  O8_43 
REMARK   26  A    between atoms: C29_42  and  C35_49 
ROOT
ATOM      1  C14 non d ame     -12.273  14.042  70.341  0.00  0.00     0.089 C 
ATOM      2  H20 non d ame     -13.338  13.810  70.374  0.00  0.00     0.087 H 
ENDROOT
BRANCH   1   3
ATOM      3  N4  non d ame     -11.563  12.804  70.054  0.00  0.00    -0.346 N 
ATOM      4  C10 non d ame     -12.072  11.491  70.596  0.00  0.00     0.241 C 
ATOM      5  O4  non d ame     -13.053  11.458  71.264  0.00  0.00    -0.271 OA
ATOM      6  H19 non d ame     -10.729  12.854  69.487  0.00  0.00     0.163 HD
BRANCH   4   7
ATOM      7  C9  non d ame     -11.329  10.219  70.285  0.00  0.00     0.092 C 
ATOM      8  H11 non d ame     -11.769   9.752  69.404  0.00  0.00     0.088 H 
BRANCH   7   9
ATOM      9  N3  non d ame      -9.935  10.535  69.956  0.00  0.00    -0.346 N 
ATOM     10  C7  non d ame      -9.546  10.732  68.582  0.00  0.00     0.240 C 
ATOM     11  O3  non d ame     -10.341  10.640  67.727  0.00  0.00    -0.271 OA
ATOM     12  H10 non d ame      -9.238  10.617  70.682  0.00  0.00     0.163 HD
BRANCH  10  13
ATOM     13  C6  non d ame      -8.061  11.064  68.238  0.00  0.00     0.086 C 
ATOM     14  H6  non d ame      -7.868  11.073  67.165  0.00  0.00     0.086 H 
BRANCH  13  15
ATOM     15  N2  non d ame      -7.751  12.398  68.726  0.00  0.00    -0.343 N 
ATOM     16  C5  non d ame      -6.728  13.197  68.047  0.00  0.00     0.273 C 
ATOM     17  O2  non d ame      -6.158  12.755  67.112  0.00  0.00    -0.266 OA
ATOM     18  H5  non d ame      -8.242  12.766  69.529  0.00  0.00     0.163 HD
BRANCH  16  19
ATOM     19  C4  non d ame      -6.392  14.608  68.553  0.00  0.00     0.154 A 
ATOM     20  C1  non d ame      -5.695  15.638  67.844  0.00  0.00    -0.017 A 
ATOM     21  C2  non d ame      -5.649  16.728  68.740  0.00  0.00     0.077 A 
ATOM     22  H1  non d ame      -5.287  15.599  66.834  0.00  0.00     0.091 H 
ATOM     23  O1  non d ame      -6.252  16.359  69.832  0.00  0.00    -0.218 OA
ATOM     24  N1  non d ame      -6.695  15.125  69.747  0.00  0.00    -0.123 NA
BRANCH  21  25
ATOM     25  C3  non d ame      -5.011  18.086  68.476  0.00  0.00    -0.029 C 
ATOM     26  H2  non d ame      -5.681  18.689  67.863  0.00  0.00     0.036 H 
ATOM     27  H3  non d ame      -4.829  18.593  69.422  0.00  0.00     0.036 H 
ATOM     28  H4  non d ame      -4.065  17.947  67.950  0.00  0.00     0.036 H 
ENDBRANCH  21  25
ENDBRANCH  16  19
ENDBRANCH  13  15
BRANCH  13  29
ATOM     29  C8  non d ame      -7.152  10.053  68.888  0.00  0.00    -0.049 C 
ATOM     30  H7  non d ame      -7.385   9.986  69.951  0.00  0.00     0.030 H 
ATOM     31  H8  non d ame      -7.298   9.079  68.422  0.00  0.00     0.030 H 
ATOM     32  H9  non d ame      -6.115  10.364  68.764  0.00  0.00     0.030 H 
ENDBRANCH  13  29
ENDBRANCH  10  13
ENDBRANCH   7   9
BRANCH   7  33
ATOM     33  C11 non d ame     -11.366   9.280  71.526  0.00  0.00    -0.033 C 
ATOM     34  H12 non d ame     -11.704   9.872  72.376  0.00  0.00     0.042 H 
BRANCH  33  35
ATOM     35  C12 non d ame     -12.387   8.116  71.328  0.00  0.00    -0.071 C 
ATOM     36  H13 non d ame     -12.176   7.603  70.390  0.00  0.00     0.028 H 
ATOM     37  H14 non d ame     -12.300   7.412  72.155  0.00  0.00     0.028 H 
ATOM     38  H15 non d ame     -13.397   8.522  71.301  0.00  0.00     0.028 H 
ENDBRANCH  33  35
BRANCH  33  39
ATOM     39  C13 non d ame      -9.940   8.732  71.856  0.00  0.00    -0.071 C 
ATOM     40  H16 non d ame      -9.759   7.823  71.282  0.00  0.00     0.028 H 
ATOM     41  H17 non d ame      -9.193   9.482  71.594  0.00  0.00     0.028 H 
ATOM     42  H18 non d ame      -9.873   8.509  72.921  0.00  0.00     0.028 H 
ENDBRANCH  33  39
ENDBRANCH   7  33
ENDBRANCH   4   7
ENDBRANCH   1   3
BRANCH   1  43
ATOM     43  C15 non d ame     -11.931  15.076  69.231  0.00  0.00     0.240 C 
ATOM     44  O5  non d ame     -12.361  16.181  69.299  0.00  0.00    -0.271 OA
ATOM     45  N6  non d ame     -11.059  14.689  68.084  0.00  0.00    -0.355 N 
ATOM     46  H46 non d ame     -10.685  13.754  68.017  0.00  0.00     0.162 HD
BRANCH  45  47
ATOM     47  C20 non d ame     -10.743  15.684  67.037  0.00  0.00     0.013 C 
ATOM     48  H30 non d ame     -11.395  16.545  67.183  0.00  0.00     0.072 H 
BRANCH  47  49
ATOM     49  C21 non d ame     -10.991  15.074  65.676  0.00  0.00    -0.038 C 
ATOM     50  H31 non d ame     -12.071  14.958  65.598  0.00  0.00     0.036 H 
ATOM     51  H32 non d ame     -10.457  15.708  64.967  0.00  0.00     0.036 H 
BRANCH  49  52
ATOM     52  C22 non d ame     -10.388  13.659  65.535  0.00  0.00     0.018 C 
ATOM     53  H33 non d ame      -9.674  13.722  64.714  0.00  0.00     0.048 H 
ATOM     54  H34 non d ame     -10.047  13.382  66.532  0.00  0.00     0.048 H 
BRANCH  52  55
ATOM     55  C23 non d ame     -11.422  12.576  65.120  0.00  0.00     0.259 C 
ATOM     56  O7  non d ame     -12.548  12.641  65.496  0.00  0.00    -0.265 OA
BRANCH  55  57
ATOM     57  O8  non d ame     -11.006  11.495  64.295  0.00  0.00    -0.317 OA
BRANCH  57  58
ATOM     58  C29 non d ame     -10.171  11.886  63.200  0.00  0.00     0.052 C 
ATOM     59  H47 non d ame     -10.833  11.969  62.340  0.00  0.00     0.082 H 
ATOM     60  H48 non d ame      -9.619  12.759  63.549  0.00  0.00     0.082 H 
BRANCH  58  61
ATOM     61  C35 non d ame      -9.160  10.739  62.935  0.00  0.00    -0.034 A 
ATOM     62  C30 non d ame      -9.152   9.614  63.754  0.00  0.00    -0.075 A 
ATOM     63  C31 non d ame      -8.244   8.584  63.515  0.00  0.00    -0.082 A 
ATOM     64  H49 non d ame      -9.858   9.539  64.581  0.00  0.00     0.084 H 
ATOM     65  C32 non d ame      -7.338   8.683  62.455  0.00  0.00    -0.083 A 
ATOM     66  H50 non d ame      -8.242   7.702  64.156  0.00  0.00     0.083 H 
ATOM     67  C33 non d ame      -7.347   9.810  61.643  0.00  0.00    -0.082 A 
ATOM     68  H51 non d ame      -6.625   7.882  62.261  0.00  0.00     0.083 H 
ATOM     69  C34 non d ame      -8.255  10.840  61.877  0.00  0.00    -0.075 A 
ATOM     70  H52 non d ame      -6.638   9.884  60.818  0.00  0.00     0.083 H 
ATOM     71  H53 non d ame      -8.257  11.722  61.234  0.00  0.00     0.084 H 
ENDBRANCH  58  61
ENDBRANCH  57  58
ENDBRANCH  55  57
ENDBRANCH  52  55
ENDBRANCH  49  52
ENDBRANCH  47  49
BRANCH  47  72
ATOM     72  C24 non d ame      -9.278  16.103  67.149  0.00  0.00    -0.039 C 
ATOM     73  H35 non d ame      -8.868  15.508  67.965  0.00  0.00     0.036 H 
ATOM     74  H36 non d ame      -8.869  16.002  66.143  0.00  0.00     0.036 H 
BRANCH  72  75
ATOM     75  C25 non d ame      -9.132  17.643  67.567  0.00  0.00    -0.001 C 
ATOM     76  C26 non d ame     -10.611  18.361  67.584  0.00  0.00    -0.035 C 
ATOM     77  C27 non d ame     -10.553  19.496  66.846  0.00  0.00     0.085 C 
ATOM     78  H38 non d ame     -11.332  17.745  67.048  0.00  0.00     0.036 H 
ATOM     79  H39 non d ame     -10.840  18.721  68.586  0.00  0.00     0.036 H 
ATOM     80  N5  non d ame      -9.265  19.446  66.060  0.00  0.00    -0.049 N 
ATOM     81  H40 non d ame     -11.394  19.436  66.154  0.00  0.00     0.075 H 
ATOM     82  H41 non d ame     -10.498  20.309  67.567  0.00  0.00     0.075 H 
ATOM     83  C28 non d ame      -8.375  18.283  66.739  0.00  0.00     0.193 C 
ATOM     84  H42 non d ame      -9.511  19.157  65.125  0.00  0.00     0.280 HD
ATOM     85  H43 non d ame      -8.803  20.332  66.210  0.00  0.00     0.280 HD
ATOM     86  H44 non d ame      -7.537  18.534  67.390  0.00  0.00     0.129 H 
ATOM     87  H37 non d ame      -8.507  17.772  68.451  0.00  0.00     0.046 H 
BRANCH  83  88
ATOM     88  O6  non d ame      -7.832  17.425  65.733  0.00  0.00    -0.369 OA
ATOM     89  H45 non d ame      -6.924  17.679  65.553  0.00  0.00     0.212 HD
ENDBRANCH  83  88
ENDBRANCH  72  75
ENDBRANCH  47  72
ENDBRANCH  45  47
ENDBRANCH   1  43
BRANCH   1  90
ATOM     90  C16 non d ame     -11.818  14.572  71.691  0.00  0.00    -0.035 C 
ATOM     91  H21 non d ame     -11.090  13.846  72.056  0.00  0.00     0.037 H 
ATOM     92  H22 non d ame     -11.515  15.603  71.509  0.00  0.00     0.037 H 
BRANCH  90  93
ATOM     93  C17 non d ame     -12.957  14.629  72.758  0.00  0.00    -0.059 C 
ATOM     94  H23 non d ame     -13.151  13.609  73.088  0.00  0.00     0.038 H 
BRANCH  93  95
ATOM     95  C18 non d ame     -12.549  15.466  74.012  0.00  0.00    -0.073 C 
ATOM     96  H24 non d ame     -13.306  16.228  74.202  0.00  0.00     0.028 H 
ATOM     97  H25 non d ame     -12.471  14.808  74.878  0.00  0.00     0.028 H 
ATOM     98  H26 non d ame     -11.587  15.946  73.831  0.00  0.00     0.028 H 
ENDBRANCH  93  95
BRANCH  93  99
ATOM     99  C19 non d ame     -14.255  15.162  72.145  0.00  0.00    -0.073 C 
ATOM    100  H27 non d ame     -14.209  16.251  72.088  0.00  0.00     0.028 H 
ATOM    101  H28 non d ame     -14.380  14.750  71.144  0.00  0.00     0.028 H 
ATOM    102  H29 non d ame     -15.100  14.866  72.767  0.00  0.00     0.028 H 
ENDBRANCH  93  99
ENDBRANCH  90  93
ENDBRANCH   1  90
TORSDOF 26
ENDMDL
MODEL 2
REMARK VINA RESULT:      -7.2      2.893      9.016
REMARK  26 active torsions:
REMARK  status: ('A' for Active; 'I' for Inactive)
REMARK    1  A    between atoms: C2_2  and  C3_3 
REMARK    2  A    between atoms: C4_6  and  C5_7 
REMARK       I    between atoms: C5_7  and  N2_9 
REMARK    3  A    between atoms: N2_9  and  C6_10 
REMARK    4  A    between atoms: C6_10  and  C7_11 
REMARK    5  A    between atoms: C6_10  and  C8_13 
REMARK       I    between atoms: C7_11  and  N3_14 
REMARK    6  A    between atoms: N3_14  and  C9_15 
REMARK    7  A    between atoms: C9_15  and  C10_16 
REMARK    8  A    between atoms: C9_15  and  C11_18 
REMARK       I    between atoms: C10_16  and  N4_21 
REMARK    9  A    between atoms: C11_18  and  C12_19 
REMARK   10  A    between atoms: C11_18  and  C13_20 
REMARK   11  A    between atoms: N4_21  and  C14_22 
REMARK   12  A    between atoms: C14_22  and  C15_23 
REMARK   13  A    between atoms: C14_22  and  C16_25 
REMARK       I    between atoms: C15_23  and  N6_40 
REMARK   14  A    between atoms: C16_25  and  C17_26 
REMARK   15  A    between atoms: C17_26  and  C18_27 
REMARK   16  A    between atoms: C17_26  and  C19_28 
REMARK   17  A    between atoms: C20_29  and  C21_30 
REMARK   18  A    between atoms: C20_29  and  C24_33 
REMARK   19  A    between atoms: C20_29  and  N6_40 
REMARK   20  A    between atoms: C21_30  and  C22_31 
REMARK   21  A    between atoms: C22_31  and  C23_32 
REMARK   22  A    between atoms: C23_32  and  O8_43 
REMARK   23  A    between atoms: C24_33  and  C25_34 
REMARK   24  A    between atoms: C28_38  and  O6_39 
REMARK   25  A    between atoms: C29_42  and  O8_43 
REMARK   26  A    between atoms: C29_42  and  C35_49 
ROOT
ATOM      1  C14 non d ame      -9.020   6.809  66.716  0.00  0.00     0.089 C 
ATOM      2  H20 non d ame      -9.371   6.401  65.767  0.00  0.00     0.087 H 
ENDROOT
BRANCH   1   3
ATOM      3  N4  non d ame      -8.600   8.181  66.474  0.00  0.00    -0.346 N 
ATOM      4  C10 non d ame      -8.268   8.641  65.076  0.00  0.00     0.241 C 
ATOM      5  O4  non d ame      -8.343   7.887  64.162  0.00  0.00    -0.271 OA
ATOM      6  H19 non d ame      -8.539   8.807  67.265  0.00  0.00     0.163 HD
BRANCH   4   7
ATOM      7  C9  non d ame      -7.840  10.066  64.843  0.00  0.00     0.092 C 
ATOM      8  H11 non d ame      -7.593  10.200  63.790  0.00  0.00     0.088 H 
BRANCH   7   9
ATOM      9  N3  non d ame      -8.957  10.968  65.143  0.00  0.00    -0.346 N 
ATOM     10  C7  non d ame      -9.971  11.214  64.148  0.00  0.00     0.240 C 
ATOM     11  O3  non d ame      -9.904  10.697  63.100  0.00  0.00    -0.271 OA
ATOM     12  H10 non d ame      -9.028  11.422  66.042  0.00  0.00     0.163 HD
BRANCH  10  13
ATOM     13  C6  non d ame     -11.156  12.177  64.472  0.00  0.00     0.086 C 
ATOM     14  H6  non d ame     -11.732  11.859  65.341  0.00  0.00     0.086 H 
BRANCH  13  15
ATOM     15  N2  non d ame     -10.622  13.492  64.786  0.00  0.00    -0.343 N 
ATOM     16  C5  non d ame     -11.389  14.397  65.644  0.00  0.00     0.273 C 
ATOM     17  O2  non d ame     -12.436  14.058  66.075  0.00  0.00    -0.266 OA
ATOM     18  H5  non d ame      -9.727  13.774  64.411  0.00  0.00     0.163 HD
BRANCH  16  19
ATOM     19  C4  non d ame     -10.836  15.789  65.984  0.00  0.00     0.154 A 
ATOM     20  C1  non d ame     -10.573  16.321  67.287  0.00  0.00    -0.017 A 
ATOM     21  C2  non d ame     -10.079  17.624  67.054  0.00  0.00     0.077 A 
ATOM     22  H1  non d ame     -10.717  15.836  68.252  0.00  0.00     0.091 H 
ATOM     23  O1  non d ame     -10.062  17.808  65.767  0.00  0.00    -0.218 OA
ATOM     24  N1  non d ame     -10.500  16.751  65.121  0.00  0.00    -0.123 NA
BRANCH  21  25
ATOM     25  C3  non d ame      -9.644  18.626  68.116  0.00  0.00    -0.029 C 
ATOM     26  H2  non d ame      -8.611  18.922  67.935  0.00  0.00     0.036 H 
ATOM     27  H3  non d ame     -10.287  19.504  68.072  0.00  0.00     0.036 H 
ATOM     28  H4  non d ame      -9.723  18.167  69.102  0.00  0.00     0.036 H 
ENDBRANCH  21  25
ENDBRANCH  16  19
ENDBRANCH  13  15
BRANCH  13  29
ATOM     29  C8  non d ame     -12.077  12.264  63.282  0.00  0.00    -0.049 C 
ATOM     30  H7  non d ame     -12.402  11.262  63.001  0.00  0.00     0.030 H 
ATOM     31  H8  non d ame     -12.945  12.870  63.537  0.00  0.00     0.030 H 
ATOM     32  H9  non d ame     -11.547  12.720  62.446  0.00  0.00     0.030 H 
ENDBRANCH  13  29
ENDBRANCH  10  13
ENDBRANCH   7   9
BRANCH   7  33
ATOM     33  C11 non d ame      -6.639  10.406  65.773  0.00  0.00    -0.033 C 
ATOM     34  H12 non d ame      -6.429   9.522  66.374  0.00  0.00     0.042 H 
BRANCH  33  35
ATOM     35  C12 non d ame      -5.354  10.729  64.948  0.00  0.00    -0.071 C 
ATOM     36  H13 non d ame      -5.222   9.975  64.172  0.00  0.00     0.028 H 
ATOM     37  H14 non d ame      -5.456  11.711  64.487  0.00  0.00     0.028 H 
ATOM     38  H15 non d ame      -4.489  10.725  65.609  0.00  0.00     0.028 H 
ENDBRANCH  33  35
BRANCH  33  39
ATOM     39  C13 non d ame      -6.997  11.577  66.743  0.00  0.00    -0.071 C 
ATOM     40  H16 non d ame      -7.617  11.199  67.556  0.00  0.00     0.028 H 
ATOM     41  H17 non d ame      -6.080  12.002  67.154  0.00  0.00     0.028 H 
ATOM     42  H18 non d ame      -7.542  12.348  66.198  0.00  0.00     0.028 H 
ENDBRANCH  33  39
ENDBRANCH   7  33
ENDBRANCH   4   7
ENDBRANCH   1   3
BRANCH   1  43
ATOM     43  C15 non d ame     -10.134   6.817  67.800  0.00  0.00     0.240 C 
ATOM     44  O5  non d ame     -11.128   6.187  67.632  0.00  0.00    -0.271 OA
ATOM     45  N6  non d ame      -9.959   7.603  69.055  0.00  0.00    -0.355 N 
ATOM     46  H46 non d ame      -9.117   8.138  69.211  0.00  0.00     0.162 HD
BRANCH  45  47
ATOM     47  C20 non d ame     -11.027   7.600  70.077  0.00  0.00     0.013 C 
ATOM     48  H30 non d ame     -11.908   7.129  69.640  0.00  0.00     0.072 H 
BRANCH  47  49
ATOM     49  C21 non d ame     -11.346   9.024  70.472  0.00  0.00    -0.038 C 
ATOM     50  H31 non d ame     -12.379   9.190  70.167  0.00  0.00     0.036 H 
ATOM     51  H32 non d ame     -11.068   9.107  71.523  0.00  0.00     0.036 H 
BRANCH  49  52
ATOM     52  C22 non d ame     -10.494  10.062  69.710  0.00  0.00     0.018 C 
ATOM     53  H33 non d ame     -10.379  10.907  70.390  0.00  0.00     0.048 H 
ATOM     54  H34 non d ame      -9.615   9.522  69.360  0.00  0.00     0.048 H 
BRANCH  52  55
ATOM     55  C23 non d ame     -11.184  10.629  68.439  0.00  0.00     0.259 C 
ATOM     56  O7  non d ame     -11.009  10.118  67.380  0.00  0.00    -0.265 OA
BRANCH  55  57
ATOM     57  O8  non d ame     -12.019  11.775  68.551  0.00  0.00    -0.317 OA
BRANCH  57  58
ATOM     58  C29 non d ame     -11.354  12.930  69.073  0.00  0.00     0.052 C 
ATOM     59  H47 non d ame     -10.419  12.565  69.497  0.00  0.00     0.082 H 
ATOM     60  H48 non d ame     -11.336  13.653  68.258  0.00  0.00     0.082 H 
BRANCH  58  61
ATOM     61  C35 non d ame     -12.225  13.505  70.221  0.00  0.00    -0.034 A 
ATOM     62  C30 non d ame     -12.449  14.876  70.306  0.00  0.00    -0.075 A 
ATOM     63  C31 non d ame     -13.232  15.392  71.338  0.00  0.00    -0.082 A 
ATOM     64  H49 non d ame     -12.013  15.544  69.564  0.00  0.00     0.084 H 
ATOM     65  C32 non d ame     -13.788  14.533  72.289  0.00  0.00    -0.083 A 
ATOM     66  H50 non d ame     -13.408  16.466  71.399  0.00  0.00     0.083 H 
ATOM     67  C33 non d ame     -13.558  13.166  72.203  0.00  0.00    -0.082 A 
ATOM     68  H51 non d ame     -14.401  14.929  73.098  0.00  0.00     0.083 H 
ATOM     69  C34 non d ame     -12.778  12.646  71.172  0.00  0.00    -0.075 A 
ATOM     70  H52 non d ame     -13.992  12.499  72.948  0.00  0.00     0.083 H 
ATOM     71  H53 non d ame     -12.604  11.571  71.110  0.00  0.00     0.084 H 
ENDBRANCH  58  61
ENDBRANCH  57  58
ENDBRANCH  55  57
ENDBRANCH  52  55
ENDBRANCH  49  52
ENDBRANCH  47  49
BRANCH  47  72
ATOM     72  C24 non d ame     -10.563   6.821  71.306  0.00  0.00    -0.039 C 
ATOM     73  H35 non d ame     -11.392   6.160  71.560  0.00  0.00     0.036 H 
ATOM     74  H36 non d ame      -9.595   6.400  71.034  0.00  0.00     0.036 H 
BRANCH  72  75
ATOM     75  C25 non d ame     -10.324   7.784  72.563  0.00  0.00    -0.001 C 
ATOM     76  C26 non d ame      -8.736   8.202  72.654  0.00  0.00    -0.035 C 
ATOM     77  C27 non d ame      -8.291   7.954  73.909  0.00  0.00     0.085 C 
ATOM     78  H38 non d ame      -8.138   7.534  72.035  0.00  0.00     0.036 H 
ATOM     79  H39 non d ame      -8.627   9.281  72.554  0.00  0.00     0.036 H 
ATOM     80  N5  non d ame      -9.337   7.103  74.588  0.00  0.00    -0.049 N 
ATOM     81  H40 non d ame      -7.380   7.367  73.785  0.00  0.00     0.075 H 
ATOM     82  H41 non d ame      -8.250   8.925  74.400  0.00  0.00     0.075 H 
ATOM     83  C28 non d ame     -10.659   7.205  73.668  0.00  0.00     0.193 C 
ATOM     84  H42 non d ame      -8.996   6.153  74.558  0.00  0.00     0.280 HD
ATOM     85  H43 non d ame      -9.530   7.542  75.477  0.00  0.00     0.280 HD
ATOM     86  H44 non d ame     -11.500   7.827  73.971  0.00  0.00     0.129 H 
ATOM     87  H37 non d ame     -11.053   8.593  72.608  0.00  0.00     0.046 H 
BRANCH  83  88
ATOM     88  O6  non d ame     -11.208   5.904  73.448  0.00  0.00    -0.369 OA
ATOM     89  H45 non d ame     -11.713   5.904  72.631  0.00  0.00     0.212 HD
ENDBRANCH  83  88
ENDBRANCH  72  75
ENDBRANCH  47  72
ENDBRANCH  45  47
ENDBRANCH   1  43
BRANCH   1  90
ATOM     90  C16 non d ame      -7.829   6.006  67.212  0.00  0.00    -0.035 C 
ATOM     91  H21 non d ame      -6.997   6.712  67.243  0.00  0.00     0.037 H 
ATOM     92  H22 non d ame      -8.167   5.524  68.129  0.00  0.00     0.037 H 
BRANCH  90  93
ATOM     93  C17 non d ame      -7.397   4.859  66.243  0.00  0.00    -0.059 C 
ATOM     94  H23 non d ame      -8.260   4.605  65.628  0.00  0.00     0.038 H 
BRANCH  93  95
ATOM     95  C18 non d ame      -6.242   5.298  65.287  0.00  0.00    -0.073 C 
ATOM     96  H24 non d ame      -5.392   4.627  65.414  0.00  0.00     0.028 H 
ATOM     97  H25 non d ame      -6.589   5.254  64.255  0.00  0.00     0.028 H 
ATOM     98  H26 non d ame      -5.941   6.318  65.527  0.00  0.00     0.028 H 
ENDBRANCH  93  95
BRANCH  93  99
ATOM     99  C19 non d ame      -7.010   3.600  67.024  0.00  0.00    -0.073 C 
ATOM    100  H27 non d ame      -7.448   3.642  68.021  0.00  0.00     0.028 H 
ATOM    101  H28 non d ame      -7.382   2.720  66.499  0.00  0.00     0.028 H 
ATOM    102  H29 non d ame      -5.925   3.542  67.105  0.00  0.00     0.028 H 
ENDBRANCH  93  99
ENDBRANCH  90  93
ENDBRANCH   1  90
TORSDOF 26
ENDMDL
MODEL 3
REMARK VINA RESULT:      -7.2      3.350      6.719
REMARK  26 active torsions:
REMARK  status: ('A' for Active; 'I' for Inactive)
REMARK    1  A    between atoms: C2_2  and  C3_3 
REMARK    2  A    between atoms: C4_6  and  C5_7 
REMARK       I    between atoms: C5_7  and  N2_9 
REMARK    3  A    between atoms: N2_9  and  C6_10 
REMARK    4  A    between atoms: C6_10  and  C7_11 
REMARK    5  A    between atoms: C6_10  and  C8_13 
REMARK       I    between atoms: C7_11  and  N3_14 
REMARK    6  A    between atoms: N3_14  and  C9_15 
REMARK    7  A    between atoms: C9_15  and  C10_16 
REMARK    8  A    between atoms: C9_15  and  C11_18 
REMARK       I    between atoms: C10_16  and  N4_21 
REMARK    9  A    between atoms: C11_18  and  C12_19 
REMARK   10  A    between atoms: C11_18  and  C13_20 
REMARK   11  A    between atoms: N4_21  and  C14_22 
REMARK   12  A    between atoms: C14_22  and  C15_23 
REMARK   13  A    between atoms: C14_22  and  C16_25 
REMARK       I    between atoms: C15_23  and  N6_40 
REMARK   14  A    between atoms: C16_25  and  C17_26 
REMARK   15  A    between atoms: C17_26  and  C18_27 
REMARK   16  A    between atoms: C17_26  and  C19_28 
REMARK   17  A    between atoms: C20_29  and  C21_30 
REMARK   18  A    between atoms: C20_29  and  C24_33 
REMARK   19  A    between atoms: C20_29  and  N6_40 
REMARK   20  A    between atoms: C21_30  and  C22_31 
REMARK   21  A    between atoms: C22_31  and  C23_32 
REMARK   22  A    between atoms: C23_32  and  O8_43 
REMARK   23  A    between atoms: C24_33  and  C25_34 
REMARK   24  A    between atoms: C28_38  and  O6_39 
REMARK   25  A    between atoms: C29_42  and  O8_43 
REMARK   26  A    between atoms: C29_42  and  C35_49 
ROOT
ATOM      1  C14 non d ame     -10.095  10.523  68.575  0.00  0.00     0.089 C 
ATOM      2  H20 non d ame      -9.326  10.651  69.339  0.00  0.00     0.087 H 
ENDROOT
BRANCH   1   3
ATOM      3  N4  non d ame     -10.602   9.164  68.688  0.00  0.00    -0.346 N 
ATOM      4  C10 non d ame      -9.756   8.084  69.314  0.00  0.00     0.241 C 
ATOM      5  O4  non d ame      -8.667   8.333  69.718  0.00  0.00    -0.271 OA
ATOM      6  H19 non d ame     -11.529   8.971  68.336  0.00  0.00     0.163 HD
BRANCH   4   7
ATOM      7  C9  non d ame     -10.298   6.684  69.427  0.00  0.00     0.092 C 
ATOM      8  H11 non d ame     -11.376   6.702  69.266  0.00  0.00     0.088 H 
BRANCH   7   9
ATOM      9  N3  non d ame      -9.717   5.847  68.372  0.00  0.00    -0.346 N 
ATOM     10  C7  non d ame     -10.246   5.907  67.032  0.00  0.00     0.240 C 
ATOM     11  O3  non d ame     -11.139   6.621  66.784  0.00  0.00    -0.271 OA
ATOM     12  H10 non d ame      -8.947   5.225  68.571  0.00  0.00     0.163 HD
BRANCH  10  13
ATOM     13  C6  non d ame      -9.625   5.011  65.915  0.00  0.00     0.086 C 
ATOM     14  H6  non d ame     -10.266   4.927  65.037  0.00  0.00     0.086 H 
BRANCH  13  15
ATOM     15  N2  non d ame      -8.382   5.615  65.464  0.00  0.00    -0.343 N 
ATOM     16  C5  non d ame      -8.052   5.609  64.037  0.00  0.00     0.273 C 
ATOM     17  O2  non d ame      -8.792   5.113  63.261  0.00  0.00    -0.266 OA
ATOM     18  H5  non d ame      -7.754   6.034  66.135  0.00  0.00     0.163 HD
BRANCH  16  19
ATOM     19  C4  non d ame      -6.741   6.244  63.547  0.00  0.00     0.154 A 
ATOM     20  C1  non d ame      -6.401   7.634  63.547  0.00  0.00    -0.017 A 
ATOM     21  C2  non d ame      -5.100   7.690  63.002  0.00  0.00     0.077 A 
ATOM     22  H1  non d ame      -7.006   8.474  63.891  0.00  0.00     0.091 H 
ATOM     23  O1  non d ame      -4.742   6.470  62.726  0.00  0.00    -0.218 OA
ATOM     24  N1  non d ame      -5.684   5.608  63.036  0.00  0.00    -0.123 NA
BRANCH  21  25
ATOM     25  C3  non d ame      -4.268   8.946  62.780  0.00  0.00    -0.029 C 
ATOM     26  H2  non d ame      -3.674   8.834  61.873  0.00  0.00     0.036 H 
ATOM     27  H3  non d ame      -4.929   9.806  62.676  0.00  0.00     0.036 H 
ATOM     28  H4  non d ame      -3.605   9.099  63.632  0.00  0.00     0.036 H 
ENDBRANCH  21  25
ENDBRANCH  16  19
ENDBRANCH  13  15
BRANCH  13  29
ATOM     29  C8  non d ame      -9.361   3.632  66.461  0.00  0.00    -0.049 C 
ATOM     30  H7  non d ame      -8.623   3.693  67.262  0.00  0.00     0.030 H 
ATOM     31  H8  non d ame     -10.287   3.211  66.851  0.00  0.00     0.030 H 
ATOM     32  H9  non d ame      -8.978   2.993  65.664  0.00  0.00     0.030 H 
ENDBRANCH  13  29
ENDBRANCH  10  13
ENDBRANCH   7   9
BRANCH   7  33
ATOM     33  C11 non d ame      -9.925   6.094  70.819  0.00  0.00    -0.033 C 
ATOM     34  H12 non d ame      -9.239   6.791  71.298  0.00  0.00     0.042 H 
BRANCH  33  35
ATOM     35  C12 non d ame     -11.180   5.964  71.737  0.00  0.00    -0.071 C 
ATOM     36  H13 non d ame     -10.875   5.608  72.721  0.00  0.00     0.028 H 
ATOM     37  H14 non d ame     -11.661   6.936  71.834  0.00  0.00     0.028 H 
ATOM     38  H15 non d ame     -11.879   5.255  71.295  0.00  0.00     0.028 H 
ENDBRANCH  33  35
BRANCH  33  39
ATOM     39  C13 non d ame      -9.192   4.722  70.666  0.00  0.00    -0.071 C 
ATOM     40  H16 non d ame      -9.683   4.132  69.893  0.00  0.00     0.028 H 
ATOM     41  H17 non d ame      -8.152   4.895  70.385  0.00  0.00     0.028 H 
ATOM     42  H18 non d ame      -9.227   4.183  71.612  0.00  0.00     0.028 H 
ENDBRANCH  33  39
ENDBRANCH   7  33
ENDBRANCH   4   7
ENDBRANCH   1   3
BRANCH   1  43
ATOM     43  C15 non d ame     -11.281  11.511  68.764  0.00  0.00     0.240 C 
ATOM     44  O5  non d ame     -12.386  11.167  68.493  0.00  0.00    -0.271 OA
ATOM     45  N6  non d ame     -11.040  12.885  69.291  0.00  0.00    -0.355 N 
ATOM     46  H46 non d ame     -10.107  13.187  69.528  0.00  0.00     0.162 HD
BRANCH  45  47
ATOM     47  C20 non d ame     -12.179  13.812  69.465  0.00  0.00     0.013 C 
ATOM     48  H30 non d ame     -13.012  13.437  68.871  0.00  0.00     0.072 H 
BRANCH  47  49
ATOM     49  C21 non d ame     -11.781  15.189  68.984  0.00  0.00    -0.038 C 
ATOM     50  H31 non d ame     -12.431  15.404  68.137  0.00  0.00     0.036 H 
ATOM     51  H32 non d ame     -11.806  15.828  69.867  0.00  0.00     0.036 H 
BRANCH  49  52
ATOM     52  C22 non d ame     -10.334  15.241  68.448  0.00  0.00     0.018 C 
ATOM     53  H33 non d ame      -9.739  15.689  69.245  0.00  0.00     0.048 H 
ATOM     54  H34 non d ame     -10.110  14.232  68.103  0.00  0.00     0.048 H 
BRANCH  52  55
ATOM     55  C23 non d ame     -10.157  16.166  67.211  0.00  0.00     0.259 C 
ATOM     56  O7  non d ame     -10.320  17.339  67.308  0.00  0.00    -0.265 OA
BRANCH  55  57
ATOM     57  O8  non d ame      -9.810  15.593  65.957  0.00  0.00    -0.317 OA
BRANCH  57  58
ATOM     58  C29 non d ame      -9.444  14.211  66.030  0.00  0.00     0.052 C 
ATOM     59  H47 non d ame      -8.466  14.140  65.557  0.00  0.00     0.082 H 
ATOM     60  H48 non d ame      -9.566  13.929  67.075  0.00  0.00     0.082 H 
BRANCH  58  61
ATOM     61  C35 non d ame     -10.461  13.402  65.182  0.00  0.00    -0.034 A 
ATOM     62  C30 non d ame     -11.807  13.387  65.533  0.00  0.00    -0.075 A 
ATOM     63  C31 non d ame     -12.720  12.659  64.770  0.00  0.00    -0.082 A 
ATOM     64  H49 non d ame     -12.147  13.947  66.404  0.00  0.00     0.084 H 
ATOM     65  C32 non d ame     -12.281  11.941  63.655  0.00  0.00    -0.083 A 
ATOM     66  H50 non d ame     -13.774  12.653  65.046  0.00  0.00     0.083 H 
ATOM     67  C33 non d ame     -10.936  11.955  63.310  0.00  0.00    -0.082 A 
ATOM     68  H51 non d ame     -12.988  11.370  63.053  0.00  0.00     0.083 H 
ATOM     69  C34 non d ame     -10.021  12.683  64.068  0.00  0.00    -0.075 A 
ATOM     70  H52 non d ame     -10.597  11.392  62.440  0.00  0.00     0.083 H 
ATOM     71  H53 non d ame      -8.966  12.690  63.790  0.00  0.00     0.084 H 
ENDBRANCH  58  61
ENDBRANCH  57  58
ENDBRANCH  55  57
ENDBRANCH  52  55
ENDBRANCH  49  52
ENDBRANCH  47  49
BRANCH  47  72
ATOM     72  C24 non d ame     -12.568  13.880  70.941  0.00  0.00    -0.039 C 
ATOM     73  H35 non d ame     -13.487  13.300  71.025  0.00  0.00     0.036 H 
ATOM     74  H36 non d ame     -11.678  13.571  71.490  0.00  0.00     0.036 H 
BRANCH  72  75
ATOM     75  C25 non d ame     -12.909  15.377  71.397  0.00  0.00    -0.001 C 
ATOM     76  C26 non d ame     -11.770  15.912  72.456  0.00  0.00    -0.035 C 
ATOM     77  C27 non d ame     -12.393  16.402  73.555  0.00  0.00     0.085 C 
ATOM     78  H38 non d ame     -11.194  15.072  72.842  0.00  0.00     0.036 H 
ATOM     79  H39 non d ame     -11.258  16.782  72.046  0.00  0.00     0.036 H 
ATOM     80  N5  non d ame     -13.833  15.951  73.484  0.00  0.00    -0.049 N 
ATOM     81  H40 non d ame     -11.910  15.917  74.404  0.00  0.00     0.075 H 
ATOM     82  H41 non d ame     -12.355  17.485  73.452  0.00  0.00     0.075 H 
ATOM     83  C28 non d ame     -14.064  15.440  71.970  0.00  0.00     0.193 C 
ATOM     84  H42 non d ame     -13.916  15.161  74.106  0.00  0.00     0.280 HD
ATOM     85  H43 non d ame     -14.398  16.774  73.635  0.00  0.00     0.280 HD
ATOM     86  H44 non d ame     -14.608  16.056  71.254  0.00  0.00     0.129 H 
ATOM     87  H37 non d ame     -13.142  16.023  70.550  0.00  0.00     0.046 H 
BRANCH  83  88
ATOM     88  O6  non d ame     -14.734  14.178  71.973  0.00  0.00    -0.369 OA
ATOM     89  H45 non d ame     -15.360  14.149  72.700  0.00  0.00     0.212 HD
ENDBRANCH  83  88
ENDBRANCH  72  75
ENDBRANCH  47  72
ENDBRANCH  45  47
ENDBRANCH   1  43
BRANCH   1  90
ATOM     90  C16 non d ame      -9.486  10.712  67.195  0.00  0.00    -0.035 C 
ATOM     91  H21 non d ame      -9.592   9.747  66.698  0.00  0.00     0.037 H 
ATOM     92  H22 non d ame      -9.975  11.594  66.782  0.00  0.00     0.037 H 
BRANCH  90  93
ATOM     93  C17 non d ame      -7.956  11.028  67.223  0.00  0.00    -0.059 C 
ATOM     94  H23 non d ame      -7.769  11.816  66.493  0.00  0.00     0.038 H 
BRANCH  93  95
ATOM     95  C18 non d ame      -7.487  11.550  68.618  0.00  0.00    -0.073 C 
ATOM     96  H24 non d ame      -6.722  12.315  68.481  0.00  0.00     0.028 H 
ATOM     97  H25 non d ame      -8.337  11.977  69.151  0.00  0.00     0.028 H 
ATOM     98  H26 non d ame      -7.075  10.722  69.196  0.00  0.00     0.028 H 
ENDBRANCH  93  95
BRANCH  93  99
ATOM     99  C19 non d ame      -7.137   9.808  66.794  0.00  0.00    -0.073 C 
ATOM    100  H27 non d ame      -7.550   9.399  65.871  0.00  0.00     0.028 H 
ATOM    101  H28 non d ame      -6.102  10.106  66.629  0.00  0.00     0.028 H 
ATOM    102  H29 non d ame      -7.176   9.050  67.577  0.00  0.00     0.028 H 
ENDBRANCH  93  99
ENDBRANCH  90  93
ENDBRANCH   1  90
TORSDOF 26
ENDMDL
MODEL 4
REMARK VINA RESULT:      -7.0      2.202      5.895
REMARK  26 active torsions:
REMARK  status: ('A' for Active; 'I' for Inactive)
REMARK    1  A    between atoms: C2_2  and  C3_3 
REMARK    2  A    between atoms: C4_6  and  C5_7 
REMARK       I    between atoms: C5_7  and  N2_9 
REMARK    3  A    between atoms: N2_9  and  C6_10 
REMARK    4  A    between atoms: C6_10  and  C7_11 
REMARK    5  A    between atoms: C6_10  and  C8_13 
REMARK       I    between atoms: C7_11  and  N3_14 
REMARK    6  A    between atoms: N3_14  and  C9_15 
REMARK    7  A    between atoms: C9_15  and  C10_16 
REMARK    8  A    between atoms: C9_15  and  C11_18 
REMARK       I    between atoms: C10_16  and  N4_21 
REMARK    9  A    between atoms: C11_18  and  C12_19 
REMARK   10  A    between atoms: C11_18  and  C13_20 
REMARK   11  A    between atoms: N4_21  and  C14_22 
REMARK   12  A    between atoms: C14_22  and  C15_23 
REMARK   13  A    between atoms: C14_22  and  C16_25 
REMARK       I    between atoms: C15_23  and  N6_40 
REMARK   14  A    between atoms: C16_25  and  C17_26 
REMARK   15  A    between atoms: C17_26  and  C18_27 
REMARK   16  A    between atoms: C17_26  and  C19_28 
REMARK   17  A    between atoms: C20_29  and  C21_30 
REMARK   18  A    between atoms: C20_29  and  C24_33 
REMARK   19  A    between atoms: C20_29  and  N6_40 
REMARK   20  A    between atoms: C21_30  and  C22_31 
REMARK   21  A    between atoms: C22_31  and  C23_32 
REMARK   22  A    between atoms: C23_32  and  O8_43 
REMARK   23  A    between atoms: C24_33  and  C25_34 
REMARK   24  A    between atoms: C28_38  and  O6_39 
REMARK   25  A    between atoms: C29_42  and  O8_43 
REMARK   26  A    between atoms: C29_42  and  C35_49 
ROOT
ATOM      1  C14 non d ame     -12.045  13.935  69.582  0.00  0.00     0.089 C 
ATOM      2  H20 non d ame     -13.045  13.880  69.149  0.00  0.00     0.087 H 
ENDROOT
BRANCH   1   3
ATOM      3  N4  non d ame     -11.677  12.594  70.009  0.00  0.00    -0.346 N 
ATOM      4  C10 non d ame     -11.811  11.428  69.060  0.00  0.00     0.241 C 
ATOM      5  O4  non d ame     -12.221  11.596  67.958  0.00  0.00    -0.271 OA
ATOM      6  H19 non d ame     -11.334  12.471  70.951  0.00  0.00     0.163 HD
BRANCH   4   7
ATOM      7  C9  non d ame     -11.421  10.047  69.516  0.00  0.00     0.092 C 
ATOM      8  H11 non d ame     -12.068   9.314  69.034  0.00  0.00     0.088 H 
BRANCH   7   9
ATOM      9  N3  non d ame     -10.048   9.761  69.088  0.00  0.00    -0.346 N 
ATOM     10  C7  non d ame      -9.811   9.033  67.867  0.00  0.00     0.240 C 
ATOM     11  O3  non d ame     -10.713   8.668  67.215  0.00  0.00    -0.271 OA
ATOM     12  H10 non d ame      -9.260  10.068  69.640  0.00  0.00     0.163 HD
BRANCH  10  13
ATOM     13  C6  non d ame      -8.348   8.728  67.419  0.00  0.00     0.086 C 
ATOM     14  H6  non d ame      -8.259   8.575  66.343  0.00  0.00     0.086 H 
BRANCH  13  15
ATOM     15  N2  non d ame      -7.507   9.868  67.747  0.00  0.00    -0.343 N 
ATOM     16  C5  non d ame      -6.732  10.521  66.690  0.00  0.00     0.273 C 
ATOM     17  O2  non d ame      -6.789  10.120  65.580  0.00  0.00    -0.266 OA
ATOM     18  H5  non d ame      -7.463  10.203  68.699  0.00  0.00     0.163 HD
BRANCH  16  19
ATOM     19  C4  non d ame      -5.841  11.728  67.023  0.00  0.00     0.154 A 
ATOM     20  C1  non d ame      -6.035  12.684  68.071  0.00  0.00    -0.017 A 
ATOM     21  C2  non d ame      -4.950  13.580  67.950  0.00  0.00     0.077 A 
ATOM     22  H1  non d ame      -6.839  12.720  68.806  0.00  0.00     0.091 H 
ATOM     23  O1  non d ame      -4.223  13.176  66.950  0.00  0.00    -0.218 OA
ATOM     24  N1  non d ame      -4.723  12.097  66.393  0.00  0.00    -0.123 NA
BRANCH  21  25
ATOM     25  C3  non d ame      -4.680  14.792  68.832  0.00  0.00    -0.029 C 
ATOM     26  H2  non d ame      -4.707  15.697  68.224  0.00  0.00     0.036 H 
ATOM     27  H3  non d ame      -5.443  14.854  69.608  0.00  0.00     0.036 H 
ATOM     28  H4  non d ame      -3.698  14.694  69.295  0.00  0.00     0.036 H 
ENDBRANCH  21  25
ENDBRANCH  16  19
ENDBRANCH  13  15
BRANCH  13  29
ATOM     29  C8  non d ame      -7.847   7.497  68.130  0.00  0.00    -0.049 C 
ATOM     30  H7  non d ame      -7.428   6.802  67.401  0.00  0.00     0.030 H 
ATOM     31  H8  non d ame      -7.078   7.778  68.848  0.00  0.00     0.030 H 
ATOM     32  H9  non d ame      -8.675   7.017  68.652  0.00  0.00     0.030 H 
ENDBRANCH  13  29
ENDBRANCH  10  13
ENDBRANCH   7   9
BRANCH   7  33
ATOM     33  C11 non d ame     -11.505   9.971  71.068  0.00  0.00    -0.033 C 
ATOM     34  H12 non d ame     -11.211  10.944  71.462  0.00  0.00     0.042 H 
BRANCH  33  35
ATOM     35  C12 non d ame     -12.965   9.693  71.546  0.00  0.00    -0.071 C 
ATOM     36  H13 non d ame     -12.941   9.158  72.495  0.00  0.00     0.028 H 
ATOM     37  H14 non d ame     -13.491  10.638  71.674  0.00  0.00     0.028 H 
ATOM     38  H15 non d ame     -13.480   9.087  70.801  0.00  0.00     0.028 H 
ENDBRANCH  33  35
BRANCH  33  39
ATOM     39  C13 non d ame     -10.513   8.903  71.630  0.00  0.00    -0.071 C 
ATOM     40  H16 non d ame      -9.827   9.377  72.331  0.00  0.00     0.028 H 
ATOM     41  H17 non d ame     -11.074   8.120  72.143  0.00  0.00     0.028 H 
ATOM     42  H18 non d ame      -9.948   8.464  70.809  0.00  0.00     0.028 H 
ENDBRANCH  33  39
ENDBRANCH   7  33
ENDBRANCH   4   7
ENDBRANCH   1   3
BRANCH   1  43
ATOM     43  C15 non d ame     -10.988  14.435  68.556  0.00  0.00     0.240 C 
ATOM     44  O5  non d ame      -9.912  14.771  68.932  0.00  0.00    -0.271 OA
ATOM     45  N6  non d ame     -11.314  14.486  67.102  0.00  0.00    -0.355 N 
ATOM     46  H46 non d ame     -12.224  14.199  66.771  0.00  0.00     0.162 HD
BRANCH  45  47
ATOM     47  C20 non d ame     -10.298  14.962  66.140  0.00  0.00     0.013 C 
ATOM     48  H30 non d ame      -9.314  14.739  66.552  0.00  0.00     0.072 H 
BRANCH  47  49
ATOM     49  C21 non d ame     -10.451  16.454  65.949  0.00  0.00    -0.038 C 
ATOM     50  H31 non d ame     -10.386  16.622  64.874  0.00  0.00     0.036 H 
ATOM     51  H32 non d ame     -11.356  16.730  66.490  0.00  0.00     0.036 H 
BRANCH  49  52
ATOM     52  C22 non d ame      -9.298  17.261  66.586  0.00  0.00     0.018 C 
ATOM     53  H33 non d ame      -8.640  16.523  67.046  0.00  0.00     0.048 H 
ATOM     54  H34 non d ame      -8.921  17.911  65.797  0.00  0.00     0.048 H 
BRANCH  52  55
ATOM     55  C23 non d ame      -9.753  18.202  67.736  0.00  0.00     0.259 C 
ATOM     56  O7  non d ame     -10.791  18.023  68.286  0.00  0.00    -0.265 OA
BRANCH  55  57
ATOM     57  O8  non d ame      -8.921  19.291  68.116  0.00  0.00    -0.317 OA
BRANCH  57  58
ATOM     58  C29 non d ame      -7.608  19.245  67.547  0.00  0.00     0.052 C 
ATOM     59  H47 non d ame      -7.521  18.262  67.087  0.00  0.00     0.082 H 
ATOM     60  H48 non d ame      -7.521  20.143  66.936  0.00  0.00     0.082 H 
BRANCH  58  61
ATOM     61  C35 non d ame      -6.581  19.339  68.707  0.00  0.00    -0.034 A 
ATOM     62  C30 non d ame      -6.213  18.195  69.407  0.00  0.00    -0.075 A 
ATOM     63  C31 non d ame      -5.290  18.280  70.448  0.00  0.00    -0.082 A 
ATOM     64  H49 non d ame      -6.647  17.231  69.138  0.00  0.00     0.084 H 
ATOM     65  C32 non d ame      -4.738  19.516  70.792  0.00  0.00    -0.083 A 
ATOM     66  H50 non d ame      -5.001  17.380  70.992  0.00  0.00     0.083 H 
ATOM     67  C33 non d ame      -5.111  20.657  70.093  0.00  0.00    -0.082 A 
ATOM     68  H51 non d ame      -4.015  19.591  71.604  0.00  0.00     0.083 H 
ATOM     69  C34 non d ame      -6.031  20.575  69.050  0.00  0.00    -0.075 A 
ATOM     70  H52 non d ame      -4.679  21.620  70.366  0.00  0.00     0.083 H 
ATOM     71  H53 non d ame      -6.318  21.476  68.505  0.00  0.00     0.084 H 
ENDBRANCH  58  61
ENDBRANCH  57  58
ENDBRANCH  55  57
ENDBRANCH  52  55
ENDBRANCH  49  52
ENDBRANCH  47  49
BRANCH  47  72
ATOM     72  C24 non d ame     -10.485  14.254  64.799  0.00  0.00    -0.039 C 
ATOM     73  H35 non d ame     -11.191  14.871  64.242  0.00  0.00     0.036 H 
ATOM     74  H36 non d ame      -9.479  14.094  64.412  0.00  0.00     0.036 H 
BRANCH  72  75
ATOM     75  C25 non d ame     -11.158  12.812  64.979  0.00  0.00    -0.001 C 
ATOM     76  C26 non d ame      -9.993  11.652  65.011  0.00  0.00    -0.035 C 
ATOM     77  C27 non d ame     -10.313  10.687  64.116  0.00  0.00     0.085 C 
ATOM     78  H38 non d ame      -9.055  12.053  64.629  0.00  0.00     0.036 H 
ATOM     79  H39 non d ame     -10.012  11.128  65.967  0.00  0.00     0.036 H 
ATOM     80  N5  non d ame     -11.415  11.242  63.244  0.00  0.00    -0.049 N 
ATOM     81  H40 non d ame      -9.418  10.544  63.509  0.00  0.00     0.075 H 
ATOM     82  H41 non d ame     -10.709   9.862  64.706  0.00  0.00     0.075 H 
ATOM     83  C28 non d ame     -11.970  12.550  64.010  0.00  0.00     0.193 C 
ATOM     84  H42 non d ame     -10.978  11.534  62.383  0.00  0.00     0.280 HD
ATOM     85  H43 non d ame     -12.146  10.545  63.229  0.00  0.00     0.280 HD
ATOM     86  H44 non d ame     -12.917  12.517  64.549  0.00  0.00     0.129 H 
ATOM     87  H37 non d ame     -11.894  12.797  65.782  0.00  0.00     0.046 H 
BRANCH  83  88
ATOM     88  O6  non d ame     -12.089  13.643  63.097  0.00  0.00    -0.369 OA
ATOM     89  H45 non d ame     -11.787  14.449  63.522  0.00  0.00     0.212 HD
ENDBRANCH  83  88
ENDBRANCH  72  75
ENDBRANCH  47  72
ENDBRANCH  45  47
ENDBRANCH   1  43
BRANCH   1  90
ATOM     90  C16 non d ame     -12.058  14.855  70.792  0.00  0.00    -0.035 C 
ATOM     91  H21 non d ame     -11.068  14.757  71.240  0.00  0.00     0.037 H 
ATOM     92  H22 non d ame     -12.393  15.821  70.417  0.00  0.00     0.037 H 
BRANCH  90  93
ATOM     93  C17 non d ame     -13.083  14.429  71.891  0.00  0.00    -0.059 C 
ATOM     94  H23 non d ame     -13.105  13.340  71.919  0.00  0.00     0.038 H 
BRANCH  93  95
ATOM     95  C18 non d ame     -12.669  14.934  73.311  0.00  0.00    -0.073 C 
ATOM     96  H24 non d ame     -11.675  15.379  73.262  0.00  0.00     0.028 H 
ATOM     97  H25 non d ame     -13.385  15.680  73.654  0.00  0.00     0.028 H 
ATOM     98  H26 non d ame     -12.658  14.094  74.006  0.00  0.00     0.028 H 
ENDBRANCH  93  95
BRANCH  93  99
ATOM     99  C19 non d ame     -14.495  14.903  71.536  0.00  0.00    -0.073 C 
ATOM    100  H27 non d ame     -15.005  14.126  70.964  0.00  0.00     0.028 H 
ATOM    101  H28 non d ame     -15.051  15.104  72.452  0.00  0.00     0.028 H 
ATOM    102  H29 non d ame     -14.435  15.814  70.941  0.00  0.00     0.028 H 
ENDBRANCH  93  99
ENDBRANCH  90  93
ENDBRANCH   1  90
TORSDOF 26
ENDMDL
MODEL 5
REMARK VINA RESULT:      -7.0      2.518      7.389
REMARK  26 active torsions:
REMARK  status: ('A' for Active; 'I' for Inactive)
REMARK    1  A    between atoms: C2_2  and  C3_3 
REMARK    2  A    between atoms: C4_6  and  C5_7 
REMARK       I    between atoms: C5_7  and  N2_9 
REMARK    3  A    between atoms: N2_9  and  C6_10 
REMARK    4  A    between atoms: C6_10  and  C7_11 
REMARK    5  A    between atoms: C6_10  and  C8_13 
REMARK       I    between atoms: C7_11  and  N3_14 
REMARK    6  A    between atoms: N3_14  and  C9_15 
REMARK    7  A    between atoms: C9_15  and  C10_16 
REMARK    8  A    between atoms: C9_15  and  C11_18 
REMARK       I    between atoms: C10_16  and  N4_21 
REMARK    9  A    between atoms: C11_18  and  C12_19 
REMARK   10  A    between atoms: C11_18  and  C13_20 
REMARK   11  A    between atoms: N4_21  and  C14_22 
REMARK   12  A    between atoms: C14_22  and  C15_23 
REMARK   13  A    between atoms: C14_22  and  C16_25 
REMARK       I    between atoms: C15_23  and  N6_40 
REMARK   14  A    between atoms: C16_25  and  C17_26 
REMARK   15  A    between atoms: C17_26  and  C18_27 
REMARK   16  A    between atoms: C17_26  and  C19_28 
REMARK   17  A    between atoms: C20_29  and  C21_30 
REMARK   18  A    between atoms: C20_29  and  C24_33 
REMARK   19  A    between atoms: C20_29  and  N6_40 
REMARK   20  A    between atoms: C21_30  and  C22_31 
REMARK   21  A    between atoms: C22_31  and  C23_32 
REMARK   22  A    between atoms: C23_32  and  O8_43 
REMARK   23  A    between atoms: C24_33  and  C25_34 
REMARK   24  A    between atoms: C28_38  and  O6_39 
REMARK   25  A    between atoms: C29_42  and  O8_43 
REMARK   26  A    between atoms: C29_42  and  C35_49 
ROOT
ATOM      1  C14 non d ame      -7.526  14.276  67.151  0.00  0.00     0.089 C 
ATOM      2  H20 non d ame      -7.316  14.524  66.110  0.00  0.00     0.087 H 
ENDROOT
BRANCH   1   3
ATOM      3  N4  non d ame      -8.608  15.142  67.598  0.00  0.00    -0.346 N 
ATOM      4  C10 non d ame      -9.004  16.348  66.783  0.00  0.00     0.241 C 
ATOM      5  O4  non d ame      -8.434  16.603  65.772  0.00  0.00    -0.271 OA
ATOM      6  H19 non d ame      -9.078  14.910  68.461  0.00  0.00     0.163 HD
BRANCH   4   7
ATOM      7  C9  non d ame     -10.128  17.231  67.256  0.00  0.00     0.092 C 
ATOM      8  H11 non d ame     -10.957  17.165  66.552  0.00  0.00     0.088 H 
BRANCH   7   9
ATOM      9  N3  non d ame     -10.620  16.745  68.550  0.00  0.00    -0.346 N 
ATOM     10  C7  non d ame     -11.527  15.626  68.601  0.00  0.00     0.240 C 
ATOM     11  O3  non d ame     -11.873  15.104  67.613  0.00  0.00    -0.271 OA
ATOM     12  H10 non d ame     -10.330  17.186  69.412  0.00  0.00     0.163 HD
BRANCH  10  13
ATOM     13  C6  non d ame     -12.049  15.115  69.981  0.00  0.00     0.086 C 
ATOM     14  H6  non d ame     -13.126  15.236  70.095  0.00  0.00     0.086 H 
BRANCH  13  15
ATOM     15  N2  non d ame     -11.776  13.691  70.090  0.00  0.00    -0.343 N 
ATOM     16  C5  non d ame     -12.656  12.848  70.902  0.00  0.00     0.273 C 
ATOM     17  O2  non d ame     -13.579  13.325  71.465  0.00  0.00    -0.266 OA
ATOM     18  H5  non d ame     -10.983  13.293  69.607  0.00  0.00     0.163 HD
BRANCH  16  19
ATOM     19  C4  non d ame     -12.380  11.342  71.025  0.00  0.00     0.154 A 
ATOM     20  C1  non d ame     -13.107  10.390  71.809  0.00  0.00    -0.017 A 
ATOM     21  C2  non d ame     -12.458   9.157  71.578  0.00  0.00     0.077 A 
ATOM     22  H1  non d ame     -13.972  10.568  72.448  0.00  0.00     0.091 H 
ATOM     23  O1  non d ame     -11.477   9.384  70.754  0.00  0.00    -0.218 OA
ATOM     24  N1  non d ame     -11.411  10.652  70.417  0.00  0.00    -0.123 NA
BRANCH  21  25
ATOM     25  C3  non d ame     -12.839   7.811  72.180  0.00  0.00    -0.029 C 
ATOM     26  H2  non d ame     -13.473   7.266  71.480  0.00  0.00     0.036 H 
ATOM     27  H3  non d ame     -11.937   7.234  72.379  0.00  0.00     0.036 H 
ATOM     28  H4  non d ame     -13.382   7.971  73.113  0.00  0.00     0.036 H 
ENDBRANCH  21  25
ENDBRANCH  16  19
ENDBRANCH  13  15
BRANCH  13  29
ATOM     29  C8  non d ame     -11.354  15.861  71.092  0.00  0.00    -0.049 C 
ATOM     30  H7  non d ame     -11.820  16.838  71.220  0.00  0.00     0.030 H 
ATOM     31  H8  non d ame     -11.437  15.294  72.018  0.00  0.00     0.030 H 
ATOM     32  H9  non d ame     -10.302  15.991  70.838  0.00  0.00     0.030 H 
ENDBRANCH  13  29
ENDBRANCH  10  13
ENDBRANCH   7   9
BRANCH   7  33
ATOM     33  C11 non d ame      -9.610  18.690  67.416  0.00  0.00    -0.033 C 
ATOM     34  H12 non d ame      -8.580  18.714  67.063  0.00  0.00     0.042 H 
BRANCH  33  35
ATOM     35  C12 non d ame     -10.431  19.684  66.537  0.00  0.00    -0.071 C 
ATOM     36  H13 non d ame     -11.484  19.627  66.810  0.00  0.00     0.028 H 
ATOM     37  H14 non d ame     -10.068  20.698  66.700  0.00  0.00     0.028 H 
ATOM     38  H15 non d ame     -10.313  19.420  65.486  0.00  0.00     0.028 H 
ENDBRANCH  33  35
BRANCH  33  39
ATOM     39  C13 non d ame      -9.617  19.125  68.917  0.00  0.00    -0.071 C 
ATOM     40  H16 non d ame      -8.974  19.995  69.046  0.00  0.00     0.028 H 
ATOM     41  H17 non d ame     -10.635  19.377  69.218  0.00  0.00     0.028 H 
ATOM     42  H18 non d ame      -9.249  18.306  69.535  0.00  0.00     0.028 H 
ENDBRANCH  33  39
ENDBRANCH   7  33
ENDBRANCH   4   7
ENDBRANCH   1   3
BRANCH   1  43
ATOM     43  C15 non d ame      -7.975  12.797  67.324  0.00  0.00     0.240 C 
ATOM     44  O5  non d ame      -8.360  12.415  68.381  0.00  0.00    -0.271 OA
ATOM     45  N6  non d ame      -7.932  11.857  66.167  0.00  0.00    -0.355 N 
ATOM     46  H46 non d ame      -7.611  12.172  65.263  0.00  0.00     0.162 HD
BRANCH  45  47
ATOM     47  C20 non d ame      -8.363  10.454  66.346  0.00  0.00     0.013 C 
ATOM     48  H30 non d ame      -8.517  10.284  67.412  0.00  0.00     0.072 H 
BRANCH  47  49
ATOM     49  C21 non d ame      -7.285   9.530  65.827  0.00  0.00    -0.038 C 
ATOM     50  H31 non d ame      -6.515   9.514  66.597  0.00  0.00     0.036 H 
ATOM     51  H32 non d ame      -7.797   8.608  65.548  0.00  0.00     0.036 H 
BRANCH  49  52
ATOM     52  C22 non d ame      -6.609  10.059  64.544  0.00  0.00     0.018 C 
ATOM     53  H33 non d ame      -7.297  10.797  64.130  0.00  0.00     0.048 H 
ATOM     54  H34 non d ame      -5.604  10.358  64.841  0.00  0.00     0.048 H 
BRANCH  52  55
ATOM     55  C23 non d ame      -6.426   8.980  63.441  0.00  0.00     0.259 C 
ATOM     56  O7  non d ame      -5.465   8.989  62.742  0.00  0.00    -0.265 OA
BRANCH  55  57
ATOM     57  O8  non d ame      -7.429   7.987  63.264  0.00  0.00    -0.317 OA
BRANCH  57  58
ATOM     58  C29 non d ame      -6.921   6.651  63.209  0.00  0.00     0.052 C 
ATOM     59  H47 non d ame      -6.629   6.489  62.172  0.00  0.00     0.082 H 
ATOM     60  H48 non d ame      -6.176   6.585  64.001  0.00  0.00     0.082 H 
BRANCH  58  61
ATOM     61  C35 non d ame      -8.085   5.682  63.548  0.00  0.00    -0.034 A 
ATOM     62  C30 non d ame      -8.484   5.507  64.869  0.00  0.00    -0.075 A 
ATOM     63  C31 non d ame      -9.530   4.637  65.174  0.00  0.00    -0.082 A 
ATOM     64  H49 non d ame      -7.978   6.053  65.666  0.00  0.00     0.084 H 
ATOM     65  C32 non d ame     -10.175   3.936  64.151  0.00  0.00    -0.083 A 
ATOM     66  H50 non d ame      -9.842   4.505  66.210  0.00  0.00     0.083 H 
ATOM     67  C33 non d ame      -9.771   4.111  62.834  0.00  0.00    -0.082 A 
ATOM     68  H51 non d ame     -10.994   3.255  64.381  0.00  0.00     0.083 H 
ATOM     69  C34 non d ame      -8.728   4.982  62.526  0.00  0.00    -0.075 A 
ATOM     70  H52 non d ame     -10.276   3.561  62.039  0.00  0.00     0.083 H 
ATOM     71  H53 non d ame      -8.418   5.114  61.488  0.00  0.00     0.084 H 
ENDBRANCH  58  61
ENDBRANCH  57  58
ENDBRANCH  55  57
ENDBRANCH  52  55
ENDBRANCH  49  52
ENDBRANCH  47  49
BRANCH  47  72
ATOM     72  C24 non d ame      -9.659  10.210  65.577  0.00  0.00    -0.039 C 
ATOM     73  H35 non d ame      -9.447   9.374  64.910  0.00  0.00     0.036 H 
ATOM     74  H36 non d ame     -10.435  10.116  66.337  0.00  0.00     0.036 H 
BRANCH  72  75
ATOM     75  C25 non d ame     -10.048  11.462  64.656  0.00  0.00    -0.001 C 
ATOM     76  C26 non d ame     -11.452  12.133  65.189  0.00  0.00    -0.035 C 
ATOM     77  C27 non d ame     -12.302  12.254  64.141  0.00  0.00     0.085 C 
ATOM     78  H38 non d ame     -11.967  11.443  65.856  0.00  0.00     0.036 H 
ATOM     79  H39 non d ame     -11.280  13.164  65.497  0.00  0.00     0.036 H 
ATOM     80  N5  non d ame     -11.732  11.429  63.012  0.00  0.00    -0.049 N 
ATOM     81  H40 non d ame     -13.239  11.804  64.472  0.00  0.00     0.075 H 
ATOM     82  H41 non d ame     -12.272  13.306  63.861  0.00  0.00     0.075 H 
ATOM     83  C28 non d ame     -10.205  11.107  63.424  0.00  0.00     0.193 C 
ATOM     84  H42 non d ame     -12.251  10.563  63.000  0.00  0.00     0.280 HD
ATOM     85  H43 non d ame     -11.725  12.025  62.197  0.00  0.00     0.280 HD
ATOM     86  H44 non d ame      -9.379  11.644  62.957  0.00  0.00     0.129 H 
ATOM     87  H37 non d ame      -9.205  12.135  64.498  0.00  0.00     0.046 H 
BRANCH  83  88
ATOM     88  O6  non d ame      -9.921   9.721  63.223  0.00  0.00    -0.369 OA
ATOM     89  H45 non d ame     -10.557   9.351  62.607  0.00  0.00     0.212 HD
ENDBRANCH  83  88
ENDBRANCH  72  75
ENDBRANCH  47  72
ENDBRANCH  45  47
ENDBRANCH   1  43
BRANCH   1  90
ATOM     90  C16 non d ame      -6.296  14.540  68.003  0.00  0.00    -0.035 C 
ATOM     91  H21 non d ame      -5.879  13.556  68.221  0.00  0.00     0.037 H 
ATOM     92  H22 non d ame      -5.709  15.268  67.444  0.00  0.00     0.037 H 
BRANCH  90  93
ATOM     93  C17 non d ame      -6.618  15.198  69.383  0.00  0.00    -0.059 C 
ATOM     94  H23 non d ame      -7.702  15.264  69.473  0.00  0.00     0.038 H 
BRANCH  93  95
ATOM     95  C18 non d ame      -6.091  14.344  70.580  0.00  0.00    -0.073 C 
ATOM     96  H24 non d ame      -5.766  13.369  70.216  0.00  0.00     0.028 H 
ATOM     97  H25 non d ame      -5.251  14.855  71.049  0.00  0.00     0.028 H 
ATOM     98  H26 non d ame      -6.890  14.211  71.311  0.00  0.00     0.028 H 
ENDBRANCH  93  95
BRANCH  93  99
ATOM     99  C19 non d ame      -6.069  16.626  69.450  0.00  0.00    -0.073 C 
ATOM    100  H27 non d ame      -5.006  16.618  69.208  0.00  0.00     0.028 H 
ATOM    101  H28 non d ame      -6.601  17.252  68.733  0.00  0.00     0.028 H 
ATOM    102  H29 non d ame      -6.211  17.023  70.455  0.00  0.00     0.028 H 
ENDBRANCH  93  99
ENDBRANCH  90  93
ENDBRANCH   1  90
TORSDOF 26
ENDMDL
MODEL 6
REMARK VINA RESULT:      -7.0      2.423      6.222
REMARK  26 active torsions:
REMARK  status: ('A' for Active; 'I' for Inactive)
REMARK    1  A    between atoms: C2_2  and  C3_3 
REMARK    2  A    between atoms: C4_6  and  C5_7 
REMARK       I    between atoms: C5_7  and  N2_9 
REMARK    3  A    between atoms: N2_9  and  C6_10 
REMARK    4  A    between atoms: C6_10  and  C7_11 
REMARK    5  A    between atoms: C6_10  and  C8_13 
REMARK       I    between atoms: C7_11  and  N3_14 
REMARK    6  A    between atoms: N3_14  and  C9_15 
REMARK    7  A    between atoms: C9_15  and  C10_16 
REMARK    8  A    between atoms: C9_15  and  C11_18 
REMARK       I    between atoms: C10_16  and  N4_21 
REMARK    9  A    between atoms: C11_18  and  C12_19 
REMARK   10  A    between atoms: C11_18  and  C13_20 
REMARK   11  A    between atoms: N4_21  and  C14_22 
REMARK   12  A    between atoms: C14_22  and  C15_23 
REMARK   13  A    between atoms: C14_22  and  C16_25 
REMARK       I    between atoms: C15_23  and  N6_40 
REMARK   14  A    between atoms: C16_25  and  C17_26 
REMARK   15  A    between atoms: C17_26  and  C18_27 
REMARK   16  A    between atoms: C17_26  and  C19_28 
REMARK   17  A    between atoms: C20_29  and  C21_30 
REMARK   18  A    between atoms: C20_29  and  C24_33 
REMARK   19  A    between atoms: C20_29  and  N6_40 
REMARK   20  A    between atoms: C21_30  and  C22_31 
REMARK   21  A    between atoms: C22_31  and  C23_32 
REMARK   22  A    between atoms: C23_32  and  O8_43 
REMARK   23  A    between atoms: C24_33  and  C25_34 
REMARK   24  A    between atoms: C28_38  and  O6_39 
REMARK   25  A    between atoms: C29_42  and  O8_43 
REMARK   26  A    between atoms: C29_42  and  C35_49 
ROOT
ATOM      1  C14 non d ame     -11.816  13.830  69.720  0.00  0.00     0.089 C 
ATOM      2  H20 non d ame     -12.797  13.861  69.242  0.00  0.00     0.087 H 
ENDROOT
BRANCH   1   3
ATOM      3  N4  non d ame     -11.597  12.467  70.182  0.00  0.00    -0.346 N 
ATOM      4  C10 non d ame     -11.813  11.302  69.248  0.00  0.00     0.241 C 
ATOM      5  O4  non d ame     -12.165  11.487  68.129  0.00  0.00    -0.271 OA
ATOM      6  H19 non d ame     -11.300  12.331  71.138  0.00  0.00     0.163 HD
BRANCH   4   7
ATOM      7  C9  non d ame     -11.577   9.899  69.741  0.00  0.00     0.092 C 
ATOM      8  H11 non d ame     -12.221   9.212  69.192  0.00  0.00     0.088 H 
BRANCH   7   9
ATOM      9  N3  non d ame     -10.191   9.509  69.461  0.00  0.00    -0.346 N 
ATOM     10  C7  non d ame      -9.908   8.552  68.421  0.00  0.00     0.240 C 
ATOM     11  O3  non d ame     -10.781   8.085  67.798  0.00  0.00    -0.271 OA
ATOM     12  H10 non d ame      -9.426   9.903  69.991  0.00  0.00     0.163 HD
BRANCH  10  13
ATOM     13  C6  non d ame      -8.431   8.139  68.130  0.00  0.00     0.086 C 
ATOM     14  H6  non d ame      -8.302   7.059  68.053  0.00  0.00     0.086 H 
BRANCH  13  15
ATOM     15  N2  non d ame      -8.028   8.698  66.850  0.00  0.00    -0.343 N 
ATOM     16  C5  non d ame      -7.953   7.829  65.674  0.00  0.00     0.273 C 
ATOM     17  O2  non d ame      -8.215   6.681  65.769  0.00  0.00    -0.266 OA
ATOM     18  H5  non d ame      -7.803   9.681  66.779  0.00  0.00     0.163 HD
BRANCH  16  19
ATOM     19  C4  non d ame      -7.530   8.408  64.315  0.00  0.00     0.154 A 
ATOM     20  C1  non d ame      -8.328   9.193  63.423  0.00  0.00    -0.017 A 
ATOM     21  C2  non d ame      -7.481   9.470  62.327  0.00  0.00     0.077 A 
ATOM     22  H1  non d ame      -9.362   9.512  63.551  0.00  0.00     0.091 H 
ATOM     23  O1  non d ame      -6.334   8.908  62.571  0.00  0.00    -0.218 OA
ATOM     24  N1  non d ame      -6.338   8.282  63.726  0.00  0.00    -0.123 NA
BRANCH  21  25
ATOM     25  C3  non d ame      -7.845  10.279  61.089  0.00  0.00    -0.029 C 
ATOM     26  H2  non d ame      -7.127  11.089  60.960  0.00  0.00     0.036 H 
ATOM     27  H3  non d ame      -7.824   9.633  60.213  0.00  0.00     0.036 H 
ATOM     28  H4  non d ame      -8.846  10.697  61.209  0.00  0.00     0.036 H 
ENDBRANCH  21  25
ENDBRANCH  16  19
ENDBRANCH  13  15
BRANCH  13  29
ATOM     29  C8  non d ame      -7.535   8.659  69.225  0.00  0.00    -0.049 C 
ATOM     30  H7  non d ame      -7.964   8.407  70.196  0.00  0.00     0.030 H 
ATOM     31  H8  non d ame      -6.549   8.206  69.136  0.00  0.00     0.030 H 
ATOM     32  H9  non d ame      -7.448   9.742  69.139  0.00  0.00     0.030 H 
ENDBRANCH  13  29
ENDBRANCH  10  13
ENDBRANCH   7   9
BRANCH   7  33
ATOM     33  C11 non d ame     -11.830   9.839  71.276  0.00  0.00    -0.033 C 
ATOM     34  H12 non d ame     -11.555  10.806  71.693  0.00  0.00     0.042 H 
BRANCH  33  35
ATOM     35  C12 non d ame     -13.340   9.603  71.594  0.00  0.00    -0.071 C 
ATOM     36  H13 non d ame     -13.509   9.724  72.663  0.00  0.00     0.028 H 
ATOM     37  H14 non d ame     -13.944  10.325  71.046  0.00  0.00     0.028 H 
ATOM     38  H15 non d ame     -13.619   8.593  71.294  0.00  0.00     0.028 H 
ENDBRANCH  33  35
BRANCH  33  39
ATOM     39  C13 non d ame     -10.934   8.750  71.949  0.00  0.00    -0.071 C 
ATOM     40  H16 non d ame     -10.413   8.181  71.179  0.00  0.00     0.028 H 
ATOM     41  H17 non d ame     -10.204   9.232  72.600  0.00  0.00     0.028 H 
ATOM     42  H18 non d ame     -11.558   8.078  72.537  0.00  0.00     0.028 H 
ENDBRANCH  33  39
ENDBRANCH   7  33
ENDBRANCH   4   7
ENDBRANCH   1   3
BRANCH   1  43
ATOM     43  C15 non d ame     -10.672  14.208  68.737  0.00  0.00     0.240 C 
ATOM     44  O5  non d ame      -9.553  13.893  68.983  0.00  0.00    -0.271 OA
ATOM     45  N6  non d ame     -10.973  14.956  67.483  0.00  0.00    -0.355 N 
ATOM     46  H46 non d ame     -11.920  15.226  67.262  0.00  0.00     0.162 HD
BRANCH  45  47
ATOM     47  C20 non d ame      -9.874  15.308  66.558  0.00  0.00     0.013 C 
ATOM     48  H30 non d ame      -9.008  14.699  66.818  0.00  0.00     0.072 H 
BRANCH  47  49
ATOM     49  C21 non d ame      -9.538  16.774  66.714  0.00  0.00    -0.038 C 
ATOM     50  H31 non d ame      -8.482  16.808  66.977  0.00  0.00     0.036 H 
ATOM     51  H32 non d ame      -9.888  17.255  65.800  0.00  0.00     0.036 H 
BRANCH  49  52
ATOM     52  C22 non d ame     -10.300  17.442  67.879  0.00  0.00     0.018 C 
ATOM     53  H33 non d ame     -11.343  17.146  67.759  0.00  0.00     0.048 H 
ATOM     54  H34 non d ame      -9.757  17.168  68.783  0.00  0.00     0.048 H 
BRANCH  52  55
ATOM     55  C23 non d ame     -10.288  18.995  67.826  0.00  0.00     0.259 C 
ATOM     56  O7  non d ame     -11.166  19.587  67.287  0.00  0.00    -0.265 OA
BRANCH  55  57
ATOM     57  O8  non d ame      -9.207  19.704  68.419  0.00  0.00    -0.317 OA
BRANCH  57  58
ATOM     58  C29 non d ame      -8.413  20.441  67.485  0.00  0.00     0.052 C 
ATOM     59  H47 non d ame      -9.076  20.674  66.653  0.00  0.00     0.082 H 
ATOM     60  H48 non d ame      -7.954  21.246  68.058  0.00  0.00     0.082 H 
BRANCH  58  61
ATOM     61  C35 non d ame      -7.289  19.504  66.969  0.00  0.00    -0.034 A 
ATOM     62  C30 non d ame      -7.064  19.369  65.603  0.00  0.00    -0.075 A 
ATOM     63  C31 non d ame      -6.054  18.527  65.140  0.00  0.00    -0.082 A 
ATOM     64  H49 non d ame      -7.679  19.925  64.894  0.00  0.00     0.084 H 
ATOM     65  C32 non d ame      -5.269  17.814  66.050  0.00  0.00    -0.083 A 
ATOM     66  H50 non d ame      -5.879  18.427  64.069  0.00  0.00     0.083 H 
ATOM     67  C33 non d ame      -5.499  17.948  67.413  0.00  0.00    -0.082 A 
ATOM     68  H51 non d ame      -4.477  17.154  65.697  0.00  0.00     0.083 H 
ATOM     69  C34 non d ame      -6.506  18.791  67.879  0.00  0.00    -0.075 A 
ATOM     70  H52 non d ame      -4.885  17.389  68.120  0.00  0.00     0.083 H 
ATOM     71  H53 non d ame      -6.679  18.891  68.951  0.00  0.00     0.084 H 
ENDBRANCH  58  61
ENDBRANCH  57  58
ENDBRANCH  55  57
ENDBRANCH  52  55
ENDBRANCH  49  52
ENDBRANCH  47  49
BRANCH  47  72
ATOM     72  C24 non d ame     -10.303  15.033  65.119  0.00  0.00    -0.039 C 
ATOM     73  H35 non d ame     -10.966  15.856  64.851  0.00  0.00     0.036 H 
ATOM     74  H36 non d ame      -9.377  14.878  64.564  0.00  0.00     0.036 H 
BRANCH  72  75
ATOM     75  C25 non d ame     -11.156  13.682  65.001  0.00  0.00    -0.001 C 
ATOM     76  C26 non d ame     -10.214  12.476  64.401  0.00  0.00    -0.035 C 
ATOM     77  C27 non d ame     -10.856  11.900  63.356  0.00  0.00     0.085 C 
ATOM     78  H38 non d ame      -9.315  12.893  63.950  0.00  0.00     0.036 H 
ATOM     79  H39 non d ame     -10.135  11.667  65.127  0.00  0.00     0.036 H 
ATOM     80  N5  non d ame     -11.998  12.815  62.982  0.00  0.00    -0.049 N 
ATOM     81  H40 non d ame     -10.131  11.886  62.541  0.00  0.00     0.075 H 
ATOM     82  H41 non d ame     -11.261  10.966  63.741  0.00  0.00     0.075 H 
ATOM     83  C28 non d ame     -12.173  13.836  64.220  0.00  0.00     0.193 C 
ATOM     84  H42 non d ame     -11.694  13.337  62.174  0.00  0.00     0.280 HD
ATOM     85  H43 non d ame     -12.823  12.234  62.927  0.00  0.00     0.280 HD
ATOM     86  H44 non d ame     -12.990  13.713  64.930  0.00  0.00     0.129 H 
ATOM     87  H37 non d ame     -11.716  13.468  65.912  0.00  0.00     0.046 H 
BRANCH  83  88
ATOM     88  O6  non d ame     -12.284  15.178  63.740  0.00  0.00    -0.369 OA
ATOM     89  H45 non d ame     -12.113  15.790  64.460  0.00  0.00     0.212 HD
ENDBRANCH  83  88
ENDBRANCH  72  75
ENDBRANCH  47  72
ENDBRANCH  45  47
ENDBRANCH   1  43
BRANCH   1  90
ATOM     90  C16 non d ame     -11.795  14.768  70.915  0.00  0.00    -0.035 C 
ATOM     91  H21 non d ame     -10.824  14.612  71.387  0.00  0.00     0.037 H 
ATOM     92  H22 non d ame     -12.056  15.748  70.517  0.00  0.00     0.037 H 
BRANCH  90  93
ATOM     93  C17 non d ame     -12.870  14.430  71.997  0.00  0.00    -0.059 C 
ATOM     94  H23 non d ame     -12.917  13.345  72.089  0.00  0.00     0.038 H 
BRANCH  93  95
ATOM     95  C18 non d ame     -12.500  15.012  73.398  0.00  0.00    -0.073 C 
ATOM     96  H24 non d ame     -11.666  14.448  73.816  0.00  0.00     0.028 H 
ATOM     97  H25 non d ame     -12.214  16.058  73.293  0.00  0.00     0.028 H 
ATOM     98  H26 non d ame     -13.361  14.935  74.063  0.00  0.00     0.028 H 
ENDBRANCH  93  95
BRANCH  93  99
ATOM     99  C19 non d ame     -14.257  14.908  71.558  0.00  0.00    -0.073 C 
ATOM    100  H27 non d ame     -14.266  15.055  70.477  0.00  0.00     0.028 H 
ATOM    101  H28 non d ame     -15.001  14.159  71.830  0.00  0.00     0.028 H 
ATOM    102  H29 non d ame     -14.492  15.849  72.056  0.00  0.00     0.028 H 
ENDBRANCH  93  99
ENDBRANCH  90  93
ENDBRANCH   1  90
TORSDOF 26
ENDMDL
MODEL 7
REMARK VINA RESULT:      -6.7      1.972      4.199
REMARK  26 active torsions:
REMARK  status: ('A' for Active; 'I' for Inactive)
REMARK    1  A    between atoms: C2_2  and  C3_3 
REMARK    2  A    between atoms: C4_6  and  C5_7 
REMARK       I    between atoms: C5_7  and  N2_9 
REMARK    3  A    between atoms: N2_9  and  C6_10 
REMARK    4  A    between atoms: C6_10  and  C7_11 
REMARK    5  A    between atoms: C6_10  and  C8_13 
REMARK       I    between atoms: C7_11  and  N3_14 
REMARK    6  A    between atoms: N3_14  and  C9_15 
REMARK    7  A    between atoms: C9_15  and  C10_16 
REMARK    8  A    between atoms: C9_15  and  C11_18 
REMARK       I    between atoms: C10_16  and  N4_21 
REMARK    9  A    between atoms: C11_18  and  C12_19 
REMARK   10  A    between atoms: C11_18  and  C13_20 
REMARK   11  A    between atoms: N4_21  and  C14_22 
REMARK   12  A    between atoms: C14_22  and  C15_23 
REMARK   13  A    between atoms: C14_22  and  C16_25 
REMARK       I    between atoms: C15_23  and  N6_40 
REMARK   14  A    between atoms: C16_25  and  C17_26 
REMARK   15  A    between atoms: C17_26  and  C18_27 
REMARK   16  A    between atoms: C17_26  and  C19_28 
REMARK   17  A    between atoms: C20_29  and  C21_30 
REMARK   18  A    between atoms: C20_29  and  C24_33 
REMARK   19  A    between atoms: C20_29  and  N6_40 
REMARK   20  A    between atoms: C21_30  and  C22_31 
REMARK   21  A    between atoms: C22_31  and  C23_32 
REMARK   22  A    between atoms: C23_32  and  O8_43 
REMARK   23  A    between atoms: C24_33  and  C25_34 
REMARK   24  A    between atoms: C28_38  and  O6_39 
REMARK   25  A    between atoms: C29_42  and  O8_43 
REMARK   26  A    between atoms: C29_42  and  C35_49 
ROOT
ATOM      1  C14 non d ame     -12.408  14.168  70.055  0.00  0.00     0.089 C 
ATOM      2  H20 non d ame     -13.488  14.032  70.130  0.00  0.00     0.087 H 
ENDROOT
BRANCH   1   3
ATOM      3  N4  non d ame     -11.818  12.860  69.816  0.00  0.00    -0.346 N 
ATOM      4  C10 non d ame     -12.268  11.663  70.617  0.00  0.00     0.241 C 
ATOM      5  O4  non d ame     -13.105  11.779  71.450  0.00  0.00    -0.271 OA
ATOM      6  H19 non d ame     -11.105  12.782  69.104  0.00  0.00     0.163 HD
BRANCH   4   7
ATOM      7  C9  non d ame     -11.650  10.315  70.353  0.00  0.00     0.092 C 
ATOM      8  H11 non d ame     -12.159   9.845  69.511  0.00  0.00     0.088 H 
BRANCH   7   9
ATOM      9  N3  non d ame     -10.246  10.488  69.968  0.00  0.00    -0.346 N 
ATOM     10  C7  non d ame      -9.879  10.511  68.574  0.00  0.00     0.240 C 
ATOM     11  O3  non d ame     -10.699  10.392  67.748  0.00  0.00    -0.271 OA
ATOM     12  H10 non d ame      -9.526  10.591  70.670  0.00  0.00     0.163 HD
BRANCH  10  13
ATOM     13  C6  non d ame      -8.382  10.692  68.171  0.00  0.00     0.086 C 
ATOM     14  H6  non d ame      -7.698  10.531  69.005  0.00  0.00     0.086 H 
BRANCH  13  15
ATOM     15  N2  non d ame      -8.044   9.705  67.159  0.00  0.00    -0.343 N 
ATOM     16  C5  non d ame      -7.745   8.330  67.563  0.00  0.00     0.273 C 
ATOM     17  O2  non d ame      -7.776   8.028  68.705  0.00  0.00    -0.266 OA
ATOM     18  H5  non d ame      -8.017   9.973  66.185  0.00  0.00     0.163 HD
BRANCH  16  19
ATOM     19  C4  non d ame      -7.388   7.276  66.503  0.00  0.00     0.154 A 
ATOM     20  C1  non d ame      -6.387   7.379  65.485  0.00  0.00    -0.017 A 
ATOM     21  C2  non d ame      -6.458   6.156  64.781  0.00  0.00     0.077 A 
ATOM     22  H1  non d ame      -5.712   8.212  65.288  0.00  0.00     0.091 H 
ATOM     23  O1  non d ame      -7.391   5.442  65.338  0.00  0.00    -0.218 OA
ATOM     24  N1  non d ame      -7.949   6.074  66.345  0.00  0.00    -0.123 NA
BRANCH  21  25
ATOM     25  C3  non d ame      -5.598   5.750  63.592  0.00  0.00    -0.029 C 
ATOM     26  H2  non d ame      -5.420   4.674  63.622  0.00  0.00     0.036 H 
ATOM     27  H3  non d ame      -6.112   6.007  62.667  0.00  0.00     0.036 H 
ATOM     28  H4  non d ame      -4.643   6.277  63.636  0.00  0.00     0.036 H 
ENDBRANCH  21  25
ENDBRANCH  16  19
ENDBRANCH  13  15
BRANCH  13  29
ATOM     29  C8  non d ame      -8.169  12.082  67.629  0.00  0.00    -0.049 C 
ATOM     30  H7  non d ame      -7.111  12.228  67.409  0.00  0.00     0.030 H 
ATOM     31  H8  non d ame      -8.750  12.211  66.717  0.00  0.00     0.030 H 
ATOM     32  H9  non d ame      -8.489  12.814  68.370  0.00  0.00     0.030 H 
ENDBRANCH  13  29
ENDBRANCH  10  13
ENDBRANCH   7   9
BRANCH   7  33
ATOM     33  C11 non d ame     -11.729   9.447  71.643  0.00  0.00    -0.033 C 
ATOM     34  H12 non d ame     -11.822  10.125  72.490  0.00  0.00     0.042 H 
BRANCH  33  35
ATOM     35  C12 non d ame     -12.992   8.531  71.635  0.00  0.00    -0.071 C 
ATOM     36  H13 non d ame     -13.377   8.433  72.650  0.00  0.00     0.028 H 
ATOM     37  H14 non d ame     -13.757   8.972  70.997  0.00  0.00     0.028 H 
ATOM     38  H15 non d ame     -12.723   7.547  71.254  0.00  0.00     0.028 H 
ENDBRANCH  33  35
BRANCH  33  39
ATOM     39  C13 non d ame     -10.424   8.610  71.834  0.00  0.00    -0.071 C 
ATOM     40  H16 non d ame     -10.655   7.696  72.381  0.00  0.00     0.028 H 
ATOM     41  H17 non d ame     -10.010   8.354  70.858  0.00  0.00     0.028 H 
ATOM     42  H18 non d ame      -9.695   9.195  72.395  0.00  0.00     0.028 H 
ENDBRANCH  33  39
ENDBRANCH   7  33
ENDBRANCH   4   7
ENDBRANCH   1   3
BRANCH   1  43
ATOM     43  C15 non d ame     -12.015  15.109  68.881  0.00  0.00     0.240 C 
ATOM     44  O5  non d ame     -12.223  16.276  68.963  0.00  0.00    -0.271 OA
ATOM     45  N6  non d ame     -11.370  14.556  67.655  0.00  0.00    -0.355 N 
ATOM     46  H46 non d ame     -11.185  13.567  67.576  0.00  0.00     0.162 HD
BRANCH  45  47
ATOM     47  C20 non d ame     -11.001  15.464  66.548  0.00  0.00     0.013 C 
ATOM     48  H30 non d ame     -11.902  15.988  66.229  0.00  0.00     0.072 H 
BRANCH  47  49
ATOM     49  C21 non d ame     -10.443  14.653  65.401  0.00  0.00    -0.038 C 
ATOM     50  H31 non d ame     -10.883  15.077  64.499  0.00  0.00     0.036 H 
ATOM     51  H32 non d ame      -9.361  14.658  65.535  0.00  0.00     0.036 H 
BRANCH  49  52
ATOM     52  C22 non d ame     -10.881  13.172  65.445  0.00  0.00     0.018 C 
ATOM     53  H33 non d ame      -9.964  12.597  65.577  0.00  0.00     0.048 H 
ATOM     54  H34 non d ame     -11.670  13.120  66.194  0.00  0.00     0.048 H 
BRANCH  52  55
ATOM     55  C23 non d ame     -11.515  12.667  64.119  0.00  0.00     0.259 C 
ATOM     56  O7  non d ame     -12.167  13.397  63.446  0.00  0.00    -0.265 OA
BRANCH  55  57
ATOM     57  O8  non d ame     -11.318  11.315  63.724  0.00  0.00    -0.317 OA
BRANCH  57  58
ATOM     58  C29 non d ame     -10.221  10.671  64.378  0.00  0.00     0.052 C 
ATOM     59  H47 non d ame      -9.738  11.445  64.974  0.00  0.00     0.082 H 
ATOM     60  H48 non d ame     -10.642   9.792  64.865  0.00  0.00     0.082 H 
BRANCH  58  61
ATOM     61  C35 non d ame      -9.224  10.197  63.287  0.00  0.00    -0.034 A 
ATOM     62  C30 non d ame      -8.768  11.091  62.324  0.00  0.00    -0.075 A 
ATOM     63  C31 non d ame      -7.873  10.665  61.344  0.00  0.00    -0.082 A 
ATOM     64  H49 non d ame      -9.111  12.126  62.338  0.00  0.00     0.084 H 
ATOM     65  C32 non d ame      -7.437   9.338  61.327  0.00  0.00    -0.083 A 
ATOM     66  H50 non d ame      -7.514  11.369  60.592  0.00  0.00     0.083 H 
ATOM     67  C33 non d ame      -7.898   8.447  62.288  0.00  0.00    -0.082 A 
ATOM     68  H51 non d ame      -6.736   8.996  60.564  0.00  0.00     0.083 H 
ATOM     69  C34 non d ame      -8.791   8.870  63.270  0.00  0.00    -0.075 A 
ATOM     70  H52 non d ame      -7.557   7.412  62.270  0.00  0.00     0.083 H 
ATOM     71  H53 non d ame      -9.147   8.165  64.023  0.00  0.00     0.084 H 
ENDBRANCH  58  61
ENDBRANCH  57  58
ENDBRANCH  55  57
ENDBRANCH  52  55
ENDBRANCH  49  52
ENDBRANCH  47  49
BRANCH  47  72
ATOM     72  C24 non d ame      -9.949  16.461  67.028  0.00  0.00    -0.039 C 
ATOM     73  H35 non d ame      -9.914  17.236  66.262  0.00  0.00     0.036 H 
ATOM     74  H36 non d ame     -10.235  16.717  68.048  0.00  0.00     0.036 H 
BRANCH  72  75
ATOM     75  C25 non d ame      -8.491  15.799  67.097  0.00  0.00    -0.001 C 
ATOM     76  C26 non d ame      -8.008  15.673  68.664  0.00  0.00    -0.035 C 
ATOM     77  C27 non d ame      -6.774  16.217  68.784  0.00  0.00     0.085 C 
ATOM     78  H38 non d ame      -8.629  16.304  69.299  0.00  0.00     0.036 H 
ATOM     79  H39 non d ame      -7.851  14.626  68.923  0.00  0.00     0.036 H 
ATOM     80  N5  non d ame      -6.509  16.995  67.517  0.00  0.00    -0.049 N 
ATOM     81  H40 non d ame      -6.843  16.914  69.621  0.00  0.00     0.075 H 
ATOM     82  H41 non d ame      -6.087  15.373  68.833  0.00  0.00     0.075 H 
ATOM     83  C28 non d ame      -7.624  16.509  66.456  0.00  0.00     0.193 C 
ATOM     84  H42 non d ame      -6.676  17.966  67.738  0.00  0.00     0.280 HD
ATOM     85  H43 non d ame      -5.601  16.701  67.186  0.00  0.00     0.280 HD
ATOM     86  H44 non d ame      -7.361  15.823  65.651  0.00  0.00     0.129 H 
ATOM     87  H37 non d ame      -8.416  14.903  66.481  0.00  0.00     0.046 H 
BRANCH  83  88
ATOM     88  O6  non d ame      -8.220  17.638  65.815  0.00  0.00    -0.369 OA
ATOM     89  H45 non d ame      -8.584  18.228  66.480  0.00  0.00     0.212 HD
ENDBRANCH  83  88
ENDBRANCH  72  75
ENDBRANCH  47  72
ENDBRANCH  45  47
ENDBRANCH   1  43
BRANCH   1  90
ATOM     90  C16 non d ame     -11.867  14.725  71.361  0.00  0.00    -0.035 C 
ATOM     91  H21 non d ame     -11.841  13.878  72.047  0.00  0.00     0.037 H 
ATOM     92  H22 non d ame     -10.943  15.239  71.095  0.00  0.00     0.037 H 
BRANCH  90  93
ATOM     93  C17 non d ame     -12.794  15.797  72.018  0.00  0.00    -0.059 C 
ATOM     94  H23 non d ame     -12.819  16.662  71.356  0.00  0.00     0.038 H 
BRANCH  93  95
ATOM     95  C18 non d ame     -14.260  15.284  72.187  0.00  0.00    -0.073 C 
ATOM     96  H24 non d ame     -14.357  14.772  73.144  0.00  0.00     0.028 H 
ATOM     97  H25 non d ame     -14.946  16.130  72.156  0.00  0.00     0.028 H 
ATOM     98  H26 non d ame     -14.498  14.593  71.378  0.00  0.00     0.028 H 
ENDBRANCH  93  95
BRANCH  93  99
ATOM     99  C19 non d ame     -12.223  16.266  73.359  0.00  0.00    -0.073 C 
ATOM    100  H27 non d ame     -12.979  16.845  73.892  0.00  0.00     0.028 H 
ATOM    101  H28 non d ame     -11.940  15.399  73.956  0.00  0.00     0.028 H 
ATOM    102  H29 non d ame     -11.345  16.888  73.183  0.00  0.00     0.028 H 
ENDBRANCH  93  99
ENDBRANCH  90  93
ENDBRANCH   1  90
TORSDOF 26
ENDMDL
MODEL 8
REMARK VINA RESULT:      -6.6      2.223      5.837
REMARK  26 active torsions:
REMARK  status: ('A' for Active; 'I' for Inactive)
REMARK    1  A    between atoms: C2_2  and  C3_3 
REMARK    2  A    between atoms: C4_6  and  C5_7 
REMARK       I    between atoms: C5_7  and  N2_9 
REMARK    3  A    between atoms: N2_9  and  C6_10 
REMARK    4  A    between atoms: C6_10  and  C7_11 
REMARK    5  A    between atoms: C6_10  and  C8_13 
REMARK       I    between atoms: C7_11  and  N3_14 
REMARK    6  A    between atoms: N3_14  and  C9_15 
REMARK    7  A    between atoms: C9_15  and  C10_16 
REMARK    8  A    between atoms: C9_15  and  C11_18 
REMARK       I    between atoms: C10_16  and  N4_21 
REMARK    9  A    between atoms: C11_18  and  C12_19 
REMARK   10  A    between atoms: C11_18  and  C13_20 
REMARK   11  A    between atoms: N4_21  and  C14_22 
REMARK   12  A    between atoms: C14_22  and  C15_23 
REMARK   13  A    between atoms: C14_22  and  C16_25 
REMARK       I    between atoms: C15_23  and  N6_40 
REMARK   14  A    between atoms: C16_25  and  C17_26 
REMARK   15  A    between atoms: C17_26  and  C18_27 
REMARK   16  A    between atoms: C17_26  and  C19_28 
REMARK   17  A    between atoms: C20_29  and  C21_30 
REMARK   18  A    between atoms: C20_29  and  C24_33 
REMARK   19  A    between atoms: C20_29  and  N6_40 
REMARK   20  A    between atoms: C21_30  and  C22_31 
REMARK   21  A    between atoms: C22_31  and  C23_32 
REMARK   22  A    between atoms: C23_32  and  O8_43 
REMARK   23  A    between atoms: C24_33  and  C25_34 
REMARK   24  A    between atoms: C28_38  and  O6_39 
REMARK   25  A    between atoms: C29_42  and  O8_43 
REMARK   26  A    between atoms: C29_42  and  C35_49 
ROOT
ATOM      1  C14 non d ame      -9.628   9.714  69.300  0.00  0.00     0.089 C 
ATOM      2  H20 non d ame      -9.128   8.746  69.365  0.00  0.00     0.087 H 
ENDROOT
BRANCH   1   3
ATOM      3  N4  non d ame      -8.620  10.742  69.512  0.00  0.00    -0.346 N 
ATOM      4  C10 non d ame      -7.200  10.525  69.050  0.00  0.00     0.241 C 
ATOM      5  O4  non d ame      -6.893   9.512  68.512  0.00  0.00    -0.271 OA
ATOM      6  H19 non d ame      -8.901  11.596  69.975  0.00  0.00     0.163 HD
BRANCH   4   7
ATOM      7  C9  non d ame      -6.171  11.602  69.274  0.00  0.00     0.092 C 
ATOM      8  H11 non d ame      -5.570  11.716  68.371  0.00  0.00     0.088 H 
BRANCH   7   9
ATOM      9  N3  non d ame      -6.846  12.882  69.509  0.00  0.00    -0.346 N 
ATOM     10  C7  non d ame      -6.896  13.873  68.463  0.00  0.00     0.240 C 
ATOM     11  O3  non d ame      -6.398  13.659  67.426  0.00  0.00    -0.271 OA
ATOM     12  H10 non d ame      -7.281  13.082  70.399  0.00  0.00     0.163 HD
BRANCH  10  13
ATOM     13  C6  non d ame      -7.614  15.235  68.721  0.00  0.00     0.086 C 
ATOM     14  H6  non d ame      -7.955  15.713  67.802  0.00  0.00     0.086 H 
BRANCH  13  15
ATOM     15  N2  non d ame      -8.797  14.998  69.531  0.00  0.00    -0.343 N 
ATOM     16  C5  non d ame     -10.056  15.660  69.181  0.00  0.00     0.273 C 
ATOM     17  O2  non d ame     -10.105  16.383  68.248  0.00  0.00    -0.266 OA
ATOM     18  H5  non d ame      -8.746  14.380  70.328  0.00  0.00     0.163 HD
BRANCH  16  19
ATOM     19  C4  non d ame     -11.315  15.418  70.028  0.00  0.00     0.154 A 
ATOM     20  C1  non d ame     -11.664  16.056  71.260  0.00  0.00    -0.017 A 
ATOM     21  C2  non d ame     -12.904  15.486  71.625  0.00  0.00     0.077 A 
ATOM     22  H1  non d ame     -11.104  16.816  71.805  0.00  0.00     0.091 H 
ATOM     23  O1  non d ame     -13.222  14.626  70.704  0.00  0.00    -0.218 OA
ATOM     24  N1  non d ame     -12.310  14.567  69.760  0.00  0.00    -0.123 NA
BRANCH  21  25
ATOM     25  C3  non d ame     -13.718  15.822  72.868  0.00  0.00    -0.029 C 
ATOM     26  H2  non d ame     -13.340  15.251  73.716  0.00  0.00     0.036 H 
ATOM     27  H3  non d ame     -13.635  16.887  73.081  0.00  0.00     0.036 H 
ATOM     28  H4  non d ame     -14.765  15.566  72.697  0.00  0.00     0.036 H 
ENDBRANCH  21  25
ENDBRANCH  16  19
ENDBRANCH  13  15
BRANCH  13  29
ATOM     29  C8  non d ame      -6.676  16.172  69.438  0.00  0.00    -0.049 C 
ATOM     30  H7  non d ame      -5.889  16.492  68.754  0.00  0.00     0.030 H 
ATOM     31  H8  non d ame      -7.229  17.043  69.788  0.00  0.00     0.030 H 
ATOM     32  H9  non d ame      -6.230  15.658  70.289  0.00  0.00     0.030 H 
ENDBRANCH  13  29
ENDBRANCH  10  13
ENDBRANCH   7   9
BRANCH   7  33
ATOM     33  C11 non d ame      -5.303  11.240  70.514  0.00  0.00    -0.033 C 
ATOM     34  H12 non d ame      -5.880  10.552  71.130  0.00  0.00     0.042 H 
BRANCH  33  35
ATOM     35  C12 non d ame      -3.990  10.508  70.095  0.00  0.00    -0.071 C 
ATOM     36  H13 non d ame      -3.165  11.220  70.084  0.00  0.00     0.028 H 
ATOM     37  H14 non d ame      -3.774   9.713  70.807  0.00  0.00     0.028 H 
ATOM     38  H15 non d ame      -4.115  10.083  69.100  0.00  0.00     0.028 H 
ENDBRANCH  33  35
BRANCH  33  39
ATOM     39  C13 non d ame      -4.994  12.511  71.369  0.00  0.00    -0.071 C 
ATOM     40  H16 non d ame      -4.085  12.347  71.947  0.00  0.00     0.028 H 
ATOM     41  H17 non d ame      -4.855  13.368  70.709  0.00  0.00     0.028 H 
ATOM     42  H18 non d ame      -5.826  12.705  72.046  0.00  0.00     0.028 H 
ENDBRANCH  33  39
ENDBRANCH   7  33
ENDBRANCH   4   7
ENDBRANCH   1   3
BRANCH   1  43
ATOM     43  C15 non d ame     -10.283   9.944  67.909  0.00  0.00     0.240 C 
ATOM     44  O5  non d ame     -11.465  10.030  67.819  0.00  0.00    -0.271 OA
ATOM     45  N6  non d ame      -9.436  10.067  66.688  0.00  0.00    -0.355 N 
ATOM     46  H46 non d ame      -8.431  10.001  66.753  0.00  0.00     0.162 HD
BRANCH  45  47
ATOM     47  C20 non d ame     -10.074  10.287  65.373  0.00  0.00     0.013 C 
ATOM     48  H30 non d ame     -11.106   9.944  65.439  0.00  0.00     0.072 H 
BRANCH  47  49
ATOM     49  C21 non d ame      -9.334   9.495  64.319  0.00  0.00    -0.038 C 
ATOM     50  H31 non d ame      -8.424   9.140  64.802  0.00  0.00     0.036 H 
ATOM     51  H32 non d ame     -10.057   8.781  63.925  0.00  0.00     0.036 H 
BRANCH  49  52
ATOM     52  C22 non d ame      -8.883  10.364  63.124  0.00  0.00     0.018 C 
ATOM     53  H33 non d ame      -9.732  10.389  62.440  0.00  0.00     0.048 H 
ATOM     54  H34 non d ame      -8.506  11.289  63.557  0.00  0.00     0.048 H 
BRANCH  52  55
ATOM     55  C23 non d ame      -7.702   9.755  62.317  0.00  0.00     0.259 C 
ATOM     56  O7  non d ame      -7.814   9.539  61.154  0.00  0.00    -0.265 OA
BRANCH  55  57
ATOM     57  O8  non d ame      -6.487   9.445  62.988  0.00  0.00    -0.317 OA
BRANCH  57  58
ATOM     58  C29 non d ame      -5.966   8.149  62.678  0.00  0.00     0.052 C 
ATOM     59  H47 non d ame      -6.172   7.994  61.620  0.00  0.00     0.082 H 
ATOM     60  H48 non d ame      -4.937   8.152  63.038  0.00  0.00     0.082 H 
BRANCH  58  61
ATOM     61  C35 non d ame      -6.768   7.102  63.495  0.00  0.00    -0.034 A 
ATOM     62  C30 non d ame      -7.656   6.246  62.852  0.00  0.00    -0.075 A 
ATOM     63  C31 non d ame      -8.377   5.306  63.586  0.00  0.00    -0.082 A 
ATOM     64  H49 non d ame      -7.786   6.311  61.771  0.00  0.00     0.084 H 
ATOM     65  C32 non d ame      -8.210   5.226  64.971  0.00  0.00    -0.083 A 
ATOM     66  H50 non d ame      -9.069   4.634  63.078  0.00  0.00     0.083 H 
ATOM     67  C33 non d ame      -7.326   6.085  65.611  0.00  0.00    -0.082 A 
ATOM     68  H51 non d ame      -8.769   4.493  65.553  0.00  0.00     0.083 H 
ATOM     69  C34 non d ame      -6.602   7.024  64.879  0.00  0.00    -0.075 A 
ATOM     70  H52 non d ame      -7.200   6.021  66.692  0.00  0.00     0.083 H 
ATOM     71  H53 non d ame      -5.908   7.695  65.389  0.00  0.00     0.084 H 
ENDBRANCH  58  61
ENDBRANCH  57  58
ENDBRANCH  55  57
ENDBRANCH  52  55
ENDBRANCH  49  52
ENDBRANCH  47  49
BRANCH  47  72
ATOM     72  C24 non d ame     -10.030  11.773  65.020  0.00  0.00    -0.039 C 
ATOM     73  H35 non d ame      -9.244  12.196  65.645  0.00  0.00     0.036 H 
ATOM     74  H36 non d ame      -9.941  11.810  63.934  0.00  0.00     0.036 H 
BRANCH  72  75
ATOM     75  C25 non d ame     -11.395  12.516  65.408  0.00  0.00    -0.001 C 
ATOM     76  C26 non d ame     -11.919  13.422  64.140  0.00  0.00    -0.035 C 
ATOM     77  C27 non d ame     -12.170  14.679  64.577  0.00  0.00     0.085 C 
ATOM     78  H38 non d ame     -11.113  13.559  63.420  0.00  0.00     0.036 H 
ATOM     79  H39 non d ame     -12.894  13.069  63.805  0.00  0.00     0.036 H 
ATOM     80  N5  non d ame     -11.555  14.800  65.951  0.00  0.00    -0.049 N 
ATOM     81  H40 non d ame     -11.637  15.339  63.891  0.00  0.00     0.075 H 
ATOM     82  H41 non d ame     -13.253  14.746  64.666  0.00  0.00     0.075 H 
ATOM     83  C28 non d ame     -11.233  13.291  66.427  0.00  0.00     0.193 C 
ATOM     84  H42 non d ame     -10.683  15.293  65.832  0.00  0.00     0.280 HD
ATOM     85  H43 non d ame     -12.272  15.180  66.553  0.00  0.00     0.280 HD
ATOM     86  H44 non d ame     -11.868  12.793  67.159  0.00  0.00     0.129 H 
ATOM     87  H37 non d ame     -12.117  11.839  65.865  0.00  0.00     0.046 H 
BRANCH  83  88
ATOM     88  O6  non d ame      -9.908  13.214  66.957  0.00  0.00    -0.369 OA
ATOM     89  H45 non d ame      -9.302  12.945  66.263  0.00  0.00     0.212 HD
ENDBRANCH  83  88
ENDBRANCH  72  75
ENDBRANCH  47  72
ENDBRANCH  45  47
ENDBRANCH   1  43
BRANCH   1  90
ATOM     90  C16 non d ame     -10.684   9.822  70.388  0.00  0.00    -0.035 C 
ATOM     91  H21 non d ame     -10.373  10.663  71.009  0.00  0.00     0.037 H 
ATOM     92  H22 non d ame     -11.637   9.857  69.862  0.00  0.00     0.037 H 
BRANCH  90  93
ATOM     93  C17 non d ame     -10.744   8.578  71.330  0.00  0.00    -0.059 C 
ATOM     94  H23 non d ame     -11.578   8.724  72.016  0.00  0.00     0.038 H 
BRANCH  93  95
ATOM     95  C18 non d ame     -11.003   7.254  70.541  0.00  0.00    -0.073 C 
ATOM     96  H24 non d ame     -10.049   6.801  70.270  0.00  0.00     0.028 H 
ATOM     97  H25 non d ame     -11.568   6.563  71.167  0.00  0.00     0.028 H 
ATOM     98  H26 non d ame     -11.572   7.474  69.638  0.00  0.00     0.028 H 
ENDBRANCH  93  95
BRANCH  93  99
ATOM     99  C19 non d ame      -9.472   8.469  72.175  0.00  0.00    -0.073 C 
ATOM    100  H27 non d ame      -8.775   7.781  71.695  0.00  0.00     0.028 H 
ATOM    101  H28 non d ame      -9.011   9.452  72.264  0.00  0.00     0.028 H 
ATOM    102  H29 non d ame      -9.726   8.097  73.168  0.00  0.00     0.028 H 
ENDBRANCH  93  99
ENDBRANCH  90  93
ENDBRANCH   1  90
TORSDOF 26
ENDMDL
MODEL 9
REMARK VINA RESULT:      -6.6      2.957      6.044
REMARK  26 active torsions:
REMARK  status: ('A' for Active; 'I' for Inactive)
REMARK    1  A    between atoms: C2_2  and  C3_3 
REMARK    2  A    between atoms: C4_6  and  C5_7 
REMARK       I    between atoms: C5_7  and  N2_9 
REMARK    3  A    between atoms: N2_9  and  C6_10 
REMARK    4  A    between atoms: C6_10  and  C7_11 
REMARK    5  A    between atoms: C6_10  and  C8_13 
REMARK       I    between atoms: C7_11  and  N3_14 
REMARK    6  A    between atoms: N3_14  and  C9_15 
REMARK    7  A    between atoms: C9_15  and  C10_16 
REMARK    8  A    between atoms: C9_15  and  C11_18 
REMARK       I    between atoms: C10_16  and  N4_21 
REMARK    9  A    between atoms: C11_18  and  C12_19 
REMARK   10  A    between atoms: C11_18  and  C13_20 
REMARK   11  A    between atoms: N4_21  and  C14_22 
REMARK   12  A    between atoms: C14_22  and  C15_23 
REMARK   13  A    between atoms: C14_22  and  C16_25 
REMARK       I    between atoms: C15_23  and  N6_40 
REMARK   14  A    between atoms: C16_25  and  C17_26 
REMARK   15  A    between atoms: C17_26  and  C18_27 
REMARK   16  A    between atoms: C17_26  and  C19_28 
REMARK   17  A    between atoms: C20_29  and  C21_30 
REMARK   18  A    between atoms: C20_29  and  C24_33 
REMARK   19  A    between atoms: C20_29  and  N6_40 
REMARK   20  A    between atoms: C21_30  and  C22_31 
REMARK   21  A    between atoms: C22_31  and  C23_32 
REMARK   22  A    between atoms: C23_32  and  O8_43 
REMARK   23  A    between atoms: C24_33  and  C25_34 
REMARK   24  A    between atoms: C28_38  and  O6_39 
REMARK   25  A    between atoms: C29_42  and  O8_43 
REMARK   26  A    between atoms: C29_42  and  C35_49 
ROOT
ATOM      1  C14 non d ame     -12.110  13.772  69.299  0.00  0.00     0.089 C 
ATOM      2  H20 non d ame     -12.968  13.358  68.768  0.00  0.00     0.087 H 
ENDROOT
BRANCH   1   3
ATOM      3  N4  non d ame     -11.424  12.667  69.952  0.00  0.00    -0.346 N 
ATOM      4  C10 non d ame     -11.617  11.253  69.460  0.00  0.00     0.241 C 
ATOM      5  O4  non d ame     -12.332  11.031  68.538  0.00  0.00    -0.271 OA
ATOM      6  H19 non d ame     -10.822  12.876  70.736  0.00  0.00     0.163 HD
BRANCH   4   7
ATOM      7  C9  non d ame     -10.895  10.122  70.143  0.00  0.00     0.092 C 
ATOM      8  H11 non d ame     -10.697  10.396  71.179  0.00  0.00     0.088 H 
BRANCH   7   9
ATOM      9  N3  non d ame     -11.758   8.936  70.167  0.00  0.00    -0.346 N 
ATOM     10  C7  non d ame     -12.580   8.667  71.320  0.00  0.00     0.240 C 
ATOM     11  O3  non d ame     -12.562   9.393  72.238  0.00  0.00    -0.271 OA
ATOM     12  H10 non d ame     -11.784   8.300  69.383  0.00  0.00     0.163 HD
BRANCH  10  13
ATOM     13  C6  non d ame     -13.494   7.401  71.341  0.00  0.00     0.086 C 
ATOM     14  H6  non d ame     -13.595   6.938  70.359  0.00  0.00     0.086 H 
BRANCH  13  15
ATOM     15  N2  non d ame     -12.896   6.403  72.212  0.00  0.00    -0.343 N 
ATOM     16  C5  non d ame     -11.606   5.810  71.853  0.00  0.00     0.273 C 
ATOM     17  O2  non d ame     -11.060   6.139  70.858  0.00  0.00    -0.266 OA
ATOM     18  H5  non d ame     -13.372   6.125  73.059  0.00  0.00     0.163 HD
BRANCH  16  19
ATOM     19  C4  non d ame     -10.963   4.754  72.765  0.00  0.00     0.154 A 
ATOM     20  C1  non d ame     -10.114   3.672  72.372  0.00  0.00    -0.017 A 
ATOM     21  C2  non d ame      -9.795   3.004  73.575  0.00  0.00     0.077 A 
ATOM     22  H1  non d ame      -9.780   3.411  71.367  0.00  0.00     0.091 H 
ATOM     23  O1  non d ame     -10.393   3.638  74.540  0.00  0.00    -0.218 OA
ATOM     24  N1  non d ame     -11.081   4.663  74.093  0.00  0.00    -0.123 NA
BRANCH  21  25
ATOM     25  C3  non d ame      -8.911   1.772  73.714  0.00  0.00    -0.029 C 
ATOM     26  H2  non d ame      -8.043   1.870  73.062  0.00  0.00     0.036 H 
ATOM     27  H3  non d ame      -8.580   1.677  74.748  0.00  0.00     0.036 H 
ATOM     28  H4  non d ame      -9.478   0.884  73.432  0.00  0.00     0.036 H 
ENDBRANCH  21  25
ENDBRANCH  16  19
ENDBRANCH  13  15
BRANCH  13  29
ATOM     29  C8  non d ame     -14.864   7.775  71.847  0.00  0.00    -0.049 C 
ATOM     30  H7  non d ame     -14.950   7.498  72.898  0.00  0.00     0.030 H 
ATOM     31  H8  non d ame     -15.012   8.849  71.740  0.00  0.00     0.030 H 
ATOM     32  H9  non d ame     -15.621   7.244  71.270  0.00  0.00     0.030 H 
ENDBRANCH  13  29
ENDBRANCH  10  13
ENDBRANCH   7   9
BRANCH   7  33
ATOM     33  C11 non d ame      -9.588   9.794  69.364  0.00  0.00    -0.033 C 
ATOM     34  H12 non d ame      -9.331  10.670  68.770  0.00  0.00     0.042 H 
BRANCH  33  35
ATOM     35  C12 non d ame      -8.399   9.521  70.337  0.00  0.00    -0.071 C 
ATOM     36  H13 non d ame      -8.483   8.511  70.739  0.00  0.00     0.028 H 
ATOM     37  H14 non d ame      -7.458   9.620  69.797  0.00  0.00     0.028 H 
ATOM     38  H15 non d ame      -8.428  10.240  71.154  0.00  0.00     0.028 H 
ENDBRANCH  33  35
BRANCH  33  39
ATOM     39  C13 non d ame      -9.806   8.595  68.386  0.00  0.00    -0.071 C 
ATOM     40  H16 non d ame      -8.861   8.074  68.234  0.00  0.00     0.028 H 
ATOM     41  H17 non d ame     -10.536   7.905  68.813  0.00  0.00     0.028 H 
ATOM     42  H18 non d ame     -10.175   8.967  67.430  0.00  0.00     0.028 H 
ENDBRANCH  33  39
ENDBRANCH   7  33
ENDBRANCH   4   7
ENDBRANCH   1   3
BRANCH   1  43
ATOM     43  C15 non d ame     -11.109  14.477  68.340  0.00  0.00     0.240 C 
ATOM     44  O5  non d ame     -10.155  13.890  67.945  0.00  0.00    -0.271 OA
ATOM     45  N6  non d ame     -11.346  15.884  67.906  0.00  0.00    -0.355 N 
ATOM     46  H46 non d ame     -12.156  16.391  68.232  0.00  0.00     0.162 HD
BRANCH  45  47
ATOM     47  C20 non d ame     -10.386  16.541  66.993  0.00  0.00     0.013 C 
ATOM     48  H30 non d ame     -10.872  17.419  66.569  0.00  0.00     0.072 H 
BRANCH  47  49
ATOM     49  C21 non d ame     -10.006  15.579  65.890  0.00  0.00    -0.038 C 
ATOM     50  H31 non d ame      -9.046  15.929  65.512  0.00  0.00     0.036 H 
ATOM     51  H32 non d ame     -10.090  14.583  66.326  0.00  0.00     0.036 H 
BRANCH  49  52
ATOM     52  C22 non d ame     -10.987  15.618  64.698  0.00  0.00     0.018 C 
ATOM     53  H33 non d ame     -11.565  16.534  64.820  0.00  0.00     0.048 H 
ATOM     54  H34 non d ame     -10.375  15.475  63.808  0.00  0.00     0.048 H 
BRANCH  52  55
ATOM     55  C23 non d ame     -12.020  14.457  64.698  0.00  0.00     0.259 C 
ATOM     56  O7  non d ame     -12.824  14.366  65.569  0.00  0.00    -0.265 OA
BRANCH  55  57
ATOM     57  O8  non d ame     -11.986  13.494  63.652  0.00  0.00    -0.317 OA
BRANCH  57  58
ATOM     58  C29 non d ame     -12.213  12.151  64.090  0.00  0.00     0.052 C 
ATOM     59  H47 non d ame     -12.712  12.236  65.055  0.00  0.00     0.082 H 
ATOM     60  H48 non d ame     -12.713  11.651  63.261  0.00  0.00     0.082 H 
BRANCH  58  61
ATOM     61  C35 non d ame     -10.832  11.479  64.307  0.00  0.00    -0.034 A 
ATOM     62  C30 non d ame     -10.317  11.342  65.592  0.00  0.00    -0.075 A 
ATOM     63  C31 non d ame      -9.075  10.738  65.787  0.00  0.00    -0.082 A 
ATOM     64  H49 non d ame     -10.886  11.707  66.447  0.00  0.00     0.084 H 
ATOM     65  C32 non d ame      -8.346  10.273  64.689  0.00  0.00    -0.083 A 
ATOM     66  H50 non d ame      -8.677  10.629  66.796  0.00  0.00     0.083 H 
ATOM     67  C33 non d ame      -8.862  10.415  63.408  0.00  0.00    -0.082 A 
ATOM     68  H51 non d ame      -7.375   9.799  64.833  0.00  0.00     0.083 H 
ATOM     69  C34 non d ame     -10.103  11.016  63.210  0.00  0.00    -0.075 A 
ATOM     70  H52 non d ame      -8.289  10.053  62.554  0.00  0.00     0.083 H 
ATOM     71  H53 non d ame     -10.502  11.122  62.200  0.00  0.00     0.084 H 
ENDBRANCH  58  61
ENDBRANCH  57  58
ENDBRANCH  55  57
ENDBRANCH  52  55
ENDBRANCH  49  52
ENDBRANCH  47  49
BRANCH  47  72
ATOM     72  C24 non d ame      -9.135  16.949  67.768  0.00  0.00    -0.039 C 
ATOM     73  H35 non d ame      -9.116  16.305  68.648  0.00  0.00     0.036 H 
ATOM     74  H36 non d ame      -8.319  16.907  67.045  0.00  0.00     0.036 H 
BRANCH  72  75
ATOM     75  C25 non d ame      -9.226  18.461  68.289  0.00  0.00    -0.001 C 
ATOM     76  C26 non d ame     -10.387  19.272  67.453  0.00  0.00    -0.035 C 
ATOM     77  C27 non d ame      -9.856  20.425  66.979  0.00  0.00     0.085 C 
ATOM     78  H38 non d ame     -10.650  18.722  66.551  0.00  0.00     0.036 H 
ATOM     79  H39 non d ame     -11.168  19.612  68.132  0.00  0.00     0.036 H 
ATOM     80  N5  non d ame      -8.358  20.319  67.135  0.00  0.00    -0.049 N 
ATOM     81  H40 non d ame     -10.103  20.443  65.916  0.00  0.00     0.075 H 
ATOM     82  H41 non d ame     -10.227  21.209  67.638  0.00  0.00     0.075 H 
ATOM     83  C28 non d ame      -8.102  19.078  68.136  0.00  0.00     0.193 C 
ATOM     84  H42 non d ame      -7.992  20.079  66.225  0.00  0.00     0.280 HD
ATOM     85  H43 non d ame      -8.057  21.167  67.592  0.00  0.00     0.280 HD
ATOM     86  H44 non d ame      -7.828  19.252  69.176  0.00  0.00     0.129 H 
ATOM     87  H37 non d ame      -9.266  18.520  69.377  0.00  0.00     0.046 H 
BRANCH  83  88
ATOM     88  O6  non d ame      -7.085  18.222  67.611  0.00  0.00    -0.369 OA
ATOM     89  H45 non d ame      -7.449  17.696  66.895  0.00  0.00     0.212 HD
ENDBRANCH  83  88
ENDBRANCH  72  75
ENDBRANCH  47  72
ENDBRANCH  45  47
ENDBRANCH   1  43
BRANCH   1  90
ATOM     90  C16 non d ame     -12.584  14.755  70.357  0.00  0.00    -0.035 C 
ATOM     91  H21 non d ame     -11.857  15.569  70.342  0.00  0.00     0.037 H 
ATOM     92  H22 non d ame     -13.628  14.953  70.120  0.00  0.00     0.037 H 
BRANCH  90  93
ATOM     93  C17 non d ame     -12.563  14.174  71.807  0.00  0.00    -0.059 C 
ATOM     94  H23 non d ame     -11.898  13.311  71.808  0.00  0.00     0.038 H 
BRANCH  93  95
ATOM     95  C18 non d ame     -12.011  15.202  72.846  0.00  0.00    -0.073 C 
ATOM     96  H24 non d ame     -12.152  16.214  72.466  0.00  0.00     0.028 H 
ATOM     97  H25 non d ame     -12.548  15.089  73.788  0.00  0.00     0.028 H 
ATOM     98  H26 non d ame     -10.949  15.018  73.009  0.00  0.00     0.028 H 
ENDBRANCH  93  95
BRANCH  93  99
ATOM     99  C19 non d ame     -13.952  13.677  72.217  0.00  0.00    -0.073 C 
ATOM    100  H27 non d ame     -14.153  12.720  71.734  0.00  0.00     0.028 H 
ATOM    101  H28 non d ame     -13.987  13.553  73.300  0.00  0.00     0.028 H 
ATOM    102  H29 non d ame     -14.704  14.405  71.912  0.00  0.00     0.028 H 
ENDBRANCH  93  99
ENDBRANCH  90  93
ENDBRANCH   1  90
TORSDOF 26
ENDMDL
MODEL 10
REMARK VINA RESULT:      -6.6      2.081      7.863
REMARK  26 active torsions:
REMARK  status: ('A' for Active; 'I' for Inactive)
REMARK    1  A    between atoms: C2_2  and  C3_3 
REMARK    2  A    between atoms: C4_6  and  C5_7 
REMARK       I    between atoms: C5_7  and  N2_9 
REMARK    3  A    between atoms: N2_9  and  C6_10 
REMARK    4  A    between atoms: C6_10  and  C7_11 
REMARK    5  A    between atoms: C6_10  and  C8_13 
REMARK       I    between atoms: C7_11  and  N3_14 
REMARK    6  A    between atoms: N3_14  and  C9_15 
REMARK    7  A    between atoms: C9_15  and  C10_16 
REMARK    8  A    between atoms: C9_15  and  C11_18 
REMARK       I    between atoms: C10_16  and  N4_21 
REMARK    9  A    between atoms: C11_18  and  C12_19 
REMARK   10  A    between atoms: C11_18  and  C13_20 
REMARK   11  A    between atoms: N4_21  and  C14_22 
REMARK   12  A    between atoms: C14_22  and  C15_23 
REMARK   13  A    between atoms: C14_22  and  C16_25 
REMARK       I    between atoms: C15_23  and  N6_40 
REMARK   14  A    between atoms: C16_25  and  C17_26 
REMARK   15  A    between atoms: C17_26  and  C18_27 
REMARK   16  A    between atoms: C17_26  and  C19_28 
REMARK   17  A    between atoms: C20_29  and  C21_30 
REMARK   18  A    between atoms: C20_29  and  C24_33 
REMARK   19  A    between atoms: C20_29  and  N6_40 
REMARK   20  A    between atoms: C21_30  and  C22_31 
REMARK   21  A    between atoms: C22_31  and  C23_32 
REMARK   22  A    between atoms: C23_32  and  O8_43 
REMARK   23  A    between atoms: C24_33  and  C25_34 
REMARK   24  A    between atoms: C28_38  and  O6_39 
REMARK   25  A    between atoms: C29_42  and  O8_43 
REMARK   26  A    between atoms: C29_42  and  C35_49 
ROOT
ATOM      1  C14 non d ame      -6.712  13.625  68.176  0.00  0.00     0.089 C 
ATOM      2  H20 non d ame      -5.920  13.514  67.433  0.00  0.00     0.087 H 
ENDROOT
BRANCH   1   3
ATOM      3  N4  non d ame      -7.015  15.045  68.283  0.00  0.00    -0.346 N 
ATOM      4  C10 non d ame      -6.077  16.071  67.696  0.00  0.00     0.241 C 
ATOM      5  O4  non d ame      -5.083  15.728  67.144  0.00  0.00    -0.271 OA
ATOM      6  H19 non d ame      -7.864  15.316  68.759  0.00  0.00     0.163 HD
BRANCH   4   7
ATOM      7  C9  non d ame      -6.408  17.535  67.812  0.00  0.00     0.092 C 
ATOM      8  H11 non d ame      -6.174  18.031  66.870  0.00  0.00     0.088 H 
BRANCH   7   9
ATOM      9  N3  non d ame      -7.849  17.694  68.038  0.00  0.00    -0.346 N 
ATOM     10  C7  non d ame      -8.742  17.842  66.916  0.00  0.00     0.240 C 
ATOM     11  O3  non d ame      -8.321  17.835  65.824  0.00  0.00    -0.271 OA
ATOM     12  H10 non d ame      -8.227  17.702  68.975  0.00  0.00     0.163 HD
BRANCH  10  13
ATOM     13  C6  non d ame     -10.274  18.014  67.164  0.00  0.00     0.086 C 
ATOM     14  H6  non d ame     -10.882  17.498  66.421  0.00  0.00     0.086 H 
BRANCH  13  15
ATOM     15  N2  non d ame     -10.610  17.432  68.453  0.00  0.00    -0.343 N 
ATOM     16  C5  non d ame     -11.221  16.102  68.508  0.00  0.00     0.273 C 
ATOM     17  O2  non d ame     -11.440  15.510  67.509  0.00  0.00    -0.266 OA
ATOM     18  H5  non d ame     -10.422  17.947  69.302  0.00  0.00     0.163 HD
BRANCH  16  19
ATOM     19  C4  non d ame     -11.581  15.476  69.864  0.00  0.00     0.154 A 
ATOM     20  C1  non d ame     -11.666  16.140  71.129  0.00  0.00    -0.017 A 
ATOM     21  C2  non d ame     -12.029  15.130  72.046  0.00  0.00     0.077 A 
ATOM     22  H1  non d ame     -11.492  17.194  71.347  0.00  0.00     0.091 H 
ATOM     23  O1  non d ame     -12.139  14.020  71.377  0.00  0.00    -0.218 OA
ATOM     24  N1  non d ame     -11.883  14.196  70.101  0.00  0.00    -0.123 NA
BRANCH  21  25
ATOM     25  C3  non d ame     -12.251  15.309  73.542  0.00  0.00    -0.029 C 
ATOM     26  H2  non d ame     -12.785  14.444  73.937  0.00  0.00     0.036 H 
ATOM     27  H3  non d ame     -11.289  15.402  74.044  0.00  0.00     0.036 H 
ATOM     28  H4  non d ame     -12.841  16.210  73.717  0.00  0.00     0.036 H 
ENDBRANCH  21  25
ENDBRANCH  16  19
ENDBRANCH  13  15
BRANCH  13  29
ATOM     29  C8  non d ame     -10.626  19.479  67.151  0.00  0.00    -0.049 C 
ATOM     30  H7  non d ame     -10.868  19.803  68.163  0.00  0.00     0.030 H 
ATOM     31  H8  non d ame      -9.780  20.054  66.777  0.00  0.00     0.030 H 
ATOM     32  H9  non d ame     -11.489  19.639  66.504  0.00  0.00     0.030 H 
ENDBRANCH  13  29
ENDBRANCH  10  13
ENDBRANCH   7   9
BRANCH   7  33
ATOM     33  C11 non d ame      -5.626  18.151  69.008  0.00  0.00    -0.033 C 
ATOM     34  H12 non d ame      -4.604  18.328  68.677  0.00  0.00     0.042 H 
BRANCH  33  35
ATOM     35  C12 non d ame      -6.228  19.527  69.433  0.00  0.00    -0.071 C 
ATOM     36  H13 non d ame      -5.438  20.159  69.839  0.00  0.00     0.028 H 
ATOM     37  H14 non d ame      -6.671  20.013  68.564  0.00  0.00     0.028 H 
ATOM     38  H15 non d ame      -6.993  19.369  70.192  0.00  0.00     0.028 H 
ENDBRANCH  33  35
BRANCH  33  39
ATOM     39  C13 non d ame      -5.579  17.159  70.215  0.00  0.00    -0.071 C 
ATOM     40  H16 non d ame      -4.769  17.442  70.886  0.00  0.00     0.028 H 
ATOM     41  H17 non d ame      -6.527  17.195  70.753  0.00  0.00     0.028 H 
ATOM     42  H18 non d ame      -5.409  16.147  69.847  0.00  0.00     0.028 H 
ENDBRANCH  33  39
ENDBRANCH   7  33
ENDBRANCH   4   7
ENDBRANCH   1   3
BRANCH   1  43
ATOM     43  C15 non d ame      -8.010  12.872  67.769  0.00  0.00     0.240 C 
ATOM     44  O5  non d ame      -9.047  13.171  68.266  0.00  0.00    -0.271 OA
ATOM     45  N6  non d ame      -7.962  11.783  66.751  0.00  0.00    -0.355 N 
ATOM     46  H46 non d ame      -7.087  11.524  66.320  0.00  0.00     0.162 HD
BRANCH  45  47
ATOM     47  C20 non d ame      -9.205  11.077  66.375  0.00  0.00     0.013 C 
ATOM     48  H30 non d ame     -10.041  11.598  66.840  0.00  0.00     0.072 H 
BRANCH  47  49
ATOM     49  C21 non d ame      -9.142   9.652  66.875  0.00  0.00    -0.038 C 
ATOM     50  H31 non d ame      -9.071   9.030  65.983  0.00  0.00     0.036 H 
ATOM     51  H32 non d ame      -8.344   9.635  67.617  0.00  0.00     0.036 H 
BRANCH  49  52
ATOM     52  C22 non d ame     -10.430   9.217  67.608  0.00  0.00     0.018 C 
ATOM     53  H33 non d ame     -10.360   9.647  68.608  0.00  0.00     0.048 H 
ATOM     54  H34 non d ame     -11.253   9.497  66.951  0.00  0.00     0.048 H 
BRANCH  52  55
ATOM     55  C23 non d ame     -10.547   7.681  67.811  0.00  0.00     0.259 C 
ATOM     56  O7  non d ame     -10.878   6.977  66.913  0.00  0.00    -0.265 OA
BRANCH  55  57
ATOM     57  O8  non d ame     -10.267   7.124  69.090  0.00  0.00    -0.317 OA
BRANCH  57  58
ATOM     58  C29 non d ame     -10.130   8.096  70.131  0.00  0.00     0.052 C 
ATOM     59  H47 non d ame      -9.451   7.655  70.859  0.00  0.00     0.082 H 
ATOM     60  H48 non d ame      -9.863   9.027  69.630  0.00  0.00     0.082 H 
BRANCH  58  61
ATOM     61  C35 non d ame     -11.518   8.280  70.800  0.00  0.00    -0.034 A 
ATOM     62  C30 non d ame     -11.940   9.546  71.194  0.00  0.00    -0.075 A 
ATOM     63  C31 non d ame     -13.187   9.710  71.796  0.00  0.00    -0.082 A 
ATOM     64  H49 non d ame     -11.294  10.409  71.032  0.00  0.00     0.084 H 
ATOM     65  C32 non d ame     -14.012   8.602  72.005  0.00  0.00    -0.083 A 
ATOM     66  H50 non d ame     -13.516  10.704  72.100  0.00  0.00     0.083 H 
ATOM     67  C33 non d ame     -13.585   7.340  71.614  0.00  0.00    -0.082 A 
ATOM     68  H51 non d ame     -14.989   8.722  72.474  0.00  0.00     0.083 H 
ATOM     69  C34 non d ame     -12.340   7.172  71.010  0.00  0.00    -0.075 A 
ATOM     70  H52 non d ame     -14.231   6.477  71.781  0.00  0.00     0.083 H 
ATOM     71  H53 non d ame     -12.013   6.177  70.704  0.00  0.00     0.084 H 
ENDBRANCH  58  61
ENDBRANCH  57  58
ENDBRANCH  55  57
ENDBRANCH  52  55
ENDBRANCH  49  52
ENDBRANCH  47  49
BRANCH  47  72
ATOM     72  C24 non d ame      -9.359  11.079  64.855  0.00  0.00    -0.039 C 
ATOM     73  H35 non d ame      -8.353  11.235  64.462  0.00  0.00     0.036 H 
ATOM     74  H36 non d ame      -9.900  10.163  64.617  0.00  0.00     0.036 H 
BRANCH  72  75
ATOM     75  C25 non d ame     -10.259  12.304  64.351  0.00  0.00    -0.001 C 
ATOM     76  C26 non d ame     -11.342  12.719  65.516  0.00  0.00    -0.035 C 
ATOM     77  C27 non d ame     -12.579  12.765  64.964  0.00  0.00     0.085 C 
ATOM     78  H38 non d ame     -11.422  11.922  66.254  0.00  0.00     0.036 H 
ATOM     79  H39 non d ame     -11.170  13.745  65.839  0.00  0.00     0.036 H 
ATOM     80  N5  non d ame     -12.483  12.101  63.611  0.00  0.00    -0.049 N 
ATOM     81  H40 non d ame     -13.210  12.157  65.614  0.00  0.00     0.075 H 
ATOM     82  H41 non d ame     -12.797  13.823  64.826  0.00  0.00     0.075 H 
ATOM     83  C28 non d ame     -10.907  11.998  63.277  0.00  0.00     0.193 C 
ATOM     84  H42 non d ame     -12.850  11.168  63.723  0.00  0.00     0.280 HD
ATOM     85  H43 non d ame     -12.910  12.736  62.951  0.00  0.00     0.280 HD
ATOM     86  H44 non d ame     -10.446  12.681  62.565  0.00  0.00     0.129 H 
ATOM     87  H37 non d ame      -9.659  13.108  63.923  0.00  0.00     0.046 H 
BRANCH  83  88
ATOM     88  O6  non d ame     -10.587  10.686  62.810  0.00  0.00    -0.369 OA
ATOM     89  H45 non d ame      -9.652  10.516  62.951  0.00  0.00     0.212 HD
ENDBRANCH  83  88
ENDBRANCH  72  75
ENDBRANCH  47  72
ENDBRANCH  45  47
ENDBRANCH   1  43
BRANCH   1  90
ATOM     90  C16 non d ame      -6.227  13.118  69.525  0.00  0.00    -0.035 C 
ATOM     91  H21 non d ame      -6.787  13.690  70.266  0.00  0.00     0.037 H 
ATOM     92  H22 non d ame      -6.332  12.035  69.480  0.00  0.00     0.037 H 
BRANCH  90  93
ATOM     93  C17 non d ame      -4.716  13.405  69.796  0.00  0.00    -0.059 C 
ATOM     94  H23 non d ame      -4.572  14.484  69.756  0.00  0.00     0.038 H 
BRANCH  93  95
ATOM     95  C18 non d ame      -4.269  12.917  71.211  0.00  0.00    -0.073 C 
ATOM     96  H24 non d ame      -4.006  11.860  71.164  0.00  0.00     0.028 H 
ATOM     97  H25 non d ame      -3.403  13.493  71.537  0.00  0.00     0.028 H 
ATOM     98  H26 non d ame      -5.086  13.058  71.919  0.00  0.00     0.028 H 
ENDBRANCH  93  95
BRANCH  93  99
ATOM     99  C19 non d ame      -3.837  12.789  68.704  0.00  0.00    -0.073 C 
ATOM    100  H27 non d ame      -3.715  11.722  68.896  0.00  0.00     0.028 H 
ATOM    101  H28 non d ame      -4.311  12.933  67.733  0.00  0.00     0.028 H 
ATOM    102  H29 non d ame      -2.861  13.274  68.707  0.00  0.00     0.028 H 
ENDBRANCH  93  99
ENDBRANCH  90  93
ENDBRANCH   1  90
TORSDOF 26
ENDMDL
MODEL 11
REMARK VINA RESULT:      -6.6      2.436      4.673
REMARK  26 active torsions:
REMARK  status: ('A' for Active; 'I' for Inactive)
REMARK    1  A    between atoms: C2_2  and  C3_3 
REMARK    2  A    between atoms: C4_6  and  C5_7 
REMARK       I    between atoms: C5_7  and  N2_9 
REMARK    3  A    between atoms: N2_9  and  C6_10 
REMARK    4  A    between atoms: C6_10  and  C7_11 
REMARK    5  A    between atoms: C6_10  and  C8_13 
REMARK       I    between atoms: C7_11  and  N3_14 
REMARK    6  A    between atoms: N3_14  and  C9_15 
REMARK    7  A    between atoms: C9_15  and  C10_16 
REMARK    8  A    between atoms: C9_15  and  C11_18 
REMARK       I    between atoms: C10_16  and  N4_21 
REMARK    9  A    between atoms: C11_18  and  C12_19 
REMARK   10  A    between atoms: C11_18  and  C13_20 
REMARK   11  A    between atoms: N4_21  and  C14_22 
REMARK   12  A    between atoms: C14_22  and  C15_23 
REMARK   13  A    between atoms: C14_22  and  C16_25 
REMARK       I    between atoms: C15_23  and  N6_40 
REMARK   14  A    between atoms: C16_25  and  C17_26 
REMARK   15  A    between atoms: C17_26  and  C18_27 
REMARK   16  A    between atoms: C17_26  and  C19_28 
REMARK   17  A    between atoms: C20_29  and  C21_30 
REMARK   18  A    between atoms: C20_29  and  C24_33 
REMARK   19  A    between atoms: C20_29  and  N6_40 
REMARK   20  A    between atoms: C21_30  and  C22_31 
REMARK   21  A    between atoms: C22_31  and  C23_32 
REMARK   22  A    between atoms: C23_32  and  O8_43 
REMARK   23  A    between atoms: C24_33  and  C25_34 
REMARK   24  A    between atoms: C28_38  and  O6_39 
REMARK   25  A    between atoms: C29_42  and  O8_43 
REMARK   26  A    between atoms: C29_42  and  C35_49 
ROOT
ATOM      1  C14 non d ame     -12.320  14.305  70.437  0.00  0.00     0.089 C 
ATOM      2  H20 non d ame     -13.402  14.371  70.558  0.00  0.00     0.087 H 
ENDROOT
BRANCH   1   3
ATOM      3  N4  non d ame     -11.989  12.906  70.211  0.00  0.00    -0.346 N 
ATOM      4  C10 non d ame     -12.672  11.823  71.009  0.00  0.00     0.241 C 
ATOM      5  O4  non d ame     -13.482  12.103  71.830  0.00  0.00    -0.271 OA
ATOM      6  H19 non d ame     -11.295  12.688  69.510  0.00  0.00     0.163 HD
BRANCH   4   7
ATOM      7  C9  non d ame     -12.321  10.380  70.759  0.00  0.00     0.092 C 
ATOM      8  H11 non d ame     -12.684  10.088  69.773  0.00  0.00     0.088 H 
BRANCH   7   9
ATOM      9  N3  non d ame     -10.863  10.226  70.746  0.00  0.00    -0.346 N 
ATOM     10  C7  non d ame     -10.198   9.762  69.555  0.00  0.00     0.240 C 
ATOM     11  O3  non d ame     -10.819   9.506  68.596  0.00  0.00    -0.271 OA
ATOM     12  H10 non d ame     -10.313  10.441  71.566  0.00  0.00     0.163 HD
BRANCH  10  13
ATOM     13  C6  non d ame      -8.645   9.597  69.549  0.00  0.00     0.086 C 
ATOM     14  H6  non d ame      -8.147  10.268  70.248  0.00  0.00     0.086 H 
BRANCH  13  15
ATOM     15  N2  non d ame      -8.314   8.244  69.964  0.00  0.00    -0.343 N 
ATOM     16  C5  non d ame      -8.206   7.932  71.392  0.00  0.00     0.273 C 
ATOM     17  O2  non d ame      -8.385   8.778  72.197  0.00  0.00    -0.266 OA
ATOM     18  H5  non d ame      -8.160   7.527  69.269  0.00  0.00     0.163 HD
BRANCH  16  19
ATOM     19  C4  non d ame      -7.857   6.506  71.844  0.00  0.00     0.154 A 
ATOM     20  C1  non d ame      -7.922   5.310  71.061  0.00  0.00    -0.017 A 
ATOM     21  C2  non d ame      -7.502   4.282  71.933  0.00  0.00     0.077 A 
ATOM     22  H1  non d ame      -8.226   5.205  70.019  0.00  0.00     0.091 H 
ATOM     23  O1  non d ame      -7.228   4.833  73.079  0.00  0.00    -0.218 OA
ATOM     24  N1  non d ame      -7.428   6.131  73.052  0.00  0.00    -0.123 NA
BRANCH  21  25
ATOM     25  C3  non d ame      -7.388   2.801  71.593  0.00  0.00    -0.029 C 
ATOM     26  H2  non d ame      -8.279   2.483  71.051  0.00  0.00     0.036 H 
ATOM     27  H3  non d ame      -6.508   2.638  70.972  0.00  0.00     0.036 H 
ATOM     28  H4  non d ame      -7.296   2.223  72.513  0.00  0.00     0.036 H 
ENDBRANCH  21  25
ENDBRANCH  16  19
ENDBRANCH  13  15
BRANCH  13  29
ATOM     29  C8  non d ame      -8.115   9.856  68.162  0.00  0.00    -0.049 C 
ATOM     30  H7  non d ame      -7.665  10.849  68.125  0.00  0.00     0.030 H 
ATOM     31  H8  non d ame      -7.363   9.107  67.914  0.00  0.00     0.030 H 
ATOM     32  H9  non d ame      -8.933   9.802  67.444  0.00  0.00     0.030 H 
ENDBRANCH  13  29
ENDBRANCH  10  13
ENDBRANCH   7   9
BRANCH   7  33
ATOM     33  C11 non d ame     -12.924   9.496  71.890  0.00  0.00    -0.033 C 
ATOM     34  H12 non d ame     -13.153  10.149  72.731  0.00  0.00     0.042 H 
BRANCH  33  35
ATOM     35  C12 non d ame     -14.260   8.827  71.437  0.00  0.00    -0.071 C 
ATOM     36  H13 non d ame     -15.061   9.565  71.458  0.00  0.00     0.028 H 
ATOM     37  H14 non d ame     -14.147   8.441  70.425  0.00  0.00     0.028 H 
ATOM     38  H15 non d ame     -14.502   8.009  72.114  0.00  0.00     0.028 H 
ENDBRANCH  33  35
BRANCH  33  39
ATOM     39  C13 non d ame     -11.892   8.427  72.375  0.00  0.00    -0.071 C 
ATOM     40  H16 non d ame     -12.168   8.082  73.370  0.00  0.00     0.028 H 
ATOM     41  H17 non d ame     -11.892   7.583  71.684  0.00  0.00     0.028 H 
ATOM     42  H18 non d ame     -10.897   8.871  72.406  0.00  0.00     0.028 H 
ENDBRANCH  33  39
ENDBRANCH   7  33
ENDBRANCH   4   7
ENDBRANCH   1   3
BRANCH   1  43
ATOM     43  C15 non d ame     -11.812  15.135  69.224  0.00  0.00     0.240 C 
ATOM     44  O5  non d ame     -12.117  16.278  69.120  0.00  0.00    -0.271 OA
ATOM     45  N6  non d ame     -10.937  14.505  68.194  0.00  0.00    -0.355 N 
ATOM     46  H46 non d ame     -10.668  13.535  68.273  0.00  0.00     0.162 HD
BRANCH  45  47
ATOM     47  C20 non d ame     -10.462  15.308  67.046  0.00  0.00     0.013 C 
ATOM     48  H30 non d ame     -11.243  16.024  66.791  0.00  0.00     0.072 H 
BRANCH  47  49
ATOM     49  C21 non d ame     -10.197  14.394  65.872  0.00  0.00    -0.038 C 
ATOM     50  H31 non d ame     -11.130  14.357  65.311  0.00  0.00     0.036 H 
ATOM     51  H32 non d ame      -9.291  14.776  65.399  0.00  0.00     0.036 H 
BRANCH  49  52
ATOM     52  C22 non d ame      -9.887  12.943  66.300  0.00  0.00     0.018 C 
ATOM     53  H33 non d ame      -9.021  12.639  65.711  0.00  0.00     0.048 H 
ATOM     54  H34 non d ame      -9.825  12.962  67.388  0.00  0.00     0.048 H 
BRANCH  52  55
ATOM     55  C23 non d ame     -11.016  11.932  65.953  0.00  0.00     0.259 C 
ATOM     56  O7  non d ame     -11.982  11.849  66.639  0.00  0.00    -0.265 OA
BRANCH  55  57
ATOM     57  O8  non d ame     -10.875  11.096  64.811  0.00  0.00    -0.317 OA
BRANCH  57  58
ATOM     58  C29 non d ame      -9.913  10.049  64.972  0.00  0.00     0.052 C 
ATOM     59  H47 non d ame      -9.262  10.369  65.785  0.00  0.00     0.082 H 
ATOM     60  H48 non d ame     -10.490   9.130  65.067  0.00  0.00     0.082 H 
BRANCH  58  61
ATOM     61  C35 non d ame      -9.071   9.968  63.671  0.00  0.00    -0.034 A 
ATOM     62  C30 non d ame      -8.463   8.771  63.306  0.00  0.00    -0.075 A 
ATOM     63  C31 non d ame      -7.708   8.699  62.137  0.00  0.00    -0.082 A 
ATOM     64  H49 non d ame      -8.580   7.889  63.937  0.00  0.00     0.084 H 
ATOM     65  C32 non d ame      -7.558   9.831  61.332  0.00  0.00    -0.083 A 
ATOM     66  H50 non d ame      -7.235   7.758  61.853  0.00  0.00     0.083 H 
ATOM     67  C33 non d ame      -8.163  11.025  61.701  0.00  0.00    -0.082 A 
ATOM     68  H51 non d ame      -6.969   9.783  60.416  0.00  0.00     0.083 H 
ATOM     69  C34 non d ame      -8.921  11.101  62.868  0.00  0.00    -0.075 A 
ATOM     70  H52 non d ame      -8.043  11.907  61.072  0.00  0.00     0.083 H 
ATOM     71  H53 non d ame      -9.395  12.042  63.150  0.00  0.00     0.084 H 
ENDBRANCH  58  61
ENDBRANCH  57  58
ENDBRANCH  55  57
ENDBRANCH  52  55
ENDBRANCH  49  52
ENDBRANCH  47  49
BRANCH  47  72
ATOM     72  C24 non d ame      -9.175  16.038  67.425  0.00  0.00    -0.039 C 
ATOM     73  H35 non d ame      -9.246  16.211  68.500  0.00  0.00     0.036 H 
ATOM     74  H36 non d ame      -8.366  15.427  67.025  0.00  0.00     0.036 H 
BRANCH  72  75
ATOM     75  C25 non d ame      -9.078  17.473  66.721  0.00  0.00    -0.001 C 
ATOM     76  C26 non d ame      -7.549  17.723  66.170  0.00  0.00    -0.035 C 
ATOM     77  C27 non d ame      -7.113  18.924  66.622  0.00  0.00     0.085 C 
ATOM     78  H38 non d ame      -6.864  17.013  66.632  0.00  0.00     0.036 H 
ATOM     79  H39 non d ame      -7.557  17.847  65.087  0.00  0.00     0.036 H 
ATOM     80  N5  non d ame      -8.077  19.366  67.698  0.00  0.00    -0.049 N 
ATOM     81  H40 non d ame      -6.140  18.729  67.075  0.00  0.00     0.075 H 
ATOM     82  H41 non d ame      -7.193  19.601  65.773  0.00  0.00     0.075 H 
ATOM     83  C28 non d ame      -9.377  18.421  67.546  0.00  0.00     0.193 C 
ATOM     84  H42 non d ame      -7.633  19.163  68.581  0.00  0.00     0.280 HD
ATOM     85  H43 non d ame      -8.341  20.314  67.472  0.00  0.00     0.280 HD
ATOM     86  H44 non d ame     -10.289  18.802  67.088  0.00  0.00     0.129 H 
ATOM     87  H37 non d ame      -9.893  17.643  66.017  0.00  0.00     0.046 H 
BRANCH  83  88
ATOM     88  O6  non d ame      -9.773  17.918  68.823  0.00  0.00    -0.369 OA
ATOM     89  H45 non d ame     -10.731  17.884  68.870  0.00  0.00     0.212 HD
ENDBRANCH  83  88
ENDBRANCH  72  75
ENDBRANCH  47  72
ENDBRANCH  45  47
ENDBRANCH   1  43
BRANCH   1  90
ATOM     90  C16 non d ame     -11.630  14.779  71.706  0.00  0.00    -0.035 C 
ATOM     91  H21 non d ame     -11.384  13.870  72.257  0.00  0.00     0.037 H 
ATOM     92  H22 non d ame     -10.834  15.444  71.370  0.00  0.00     0.037 H 
BRANCH  90  93
ATOM     93  C17 non d ame     -12.550  15.626  72.641  0.00  0.00    -0.059 C 
ATOM     94  H23 non d ame     -12.245  16.668  72.547  0.00  0.00     0.038 H 
BRANCH  93  95
ATOM     95  C18 non d ame     -14.054  15.531  72.232  0.00  0.00    -0.073 C 
ATOM     96  H24 non d ame     -14.163  14.821  71.412  0.00  0.00     0.028 H 
ATOM     97  H25 non d ame     -14.642  15.193  73.085  0.00  0.00     0.028 H 
ATOM     98  H26 non d ame     -14.407  16.512  71.913  0.00  0.00     0.028 H 
ENDBRANCH  93  95
BRANCH  93  99
ATOM     99  C19 non d ame     -12.357  15.227  74.106  0.00  0.00    -0.073 C 
ATOM    100  H27 non d ame     -11.291  15.180  74.333  0.00  0.00     0.028 H 
ATOM    101  H28 non d ame     -12.834  15.968  74.749  0.00  0.00     0.028 H 
ATOM    102  H29 non d ame     -12.810  14.251  74.280  0.00  0.00     0.028 H 
ENDBRANCH  93  99
ENDBRANCH  90  93
ENDBRANCH   1  90
TORSDOF 26
ENDMDL
MODEL 12
REMARK VINA RESULT:      -6.5      2.389      6.843
REMARK  26 active torsions:
REMARK  status: ('A' for Active; 'I' for Inactive)
REMARK    1  A    between atoms: C2_2  and  C3_3 
REMARK    2  A    between atoms: C4_6  and  C5_7 
REMARK       I    between atoms: C5_7  and  N2_9 
REMARK    3  A    between atoms: N2_9  and  C6_10 
REMARK    4  A    between atoms: C6_10  and  C7_11 
REMARK    5  A    between atoms: C6_10  and  C8_13 
REMARK       I    between atoms: C7_11  and  N3_14 
REMARK    6  A    between atoms: N3_14  and  C9_15 
REMARK    7  A    between atoms: C9_15  and  C10_16 
REMARK    8  A    between atoms: C9_15  and  C11_18 
REMARK       I    between atoms: C10_16  and  N4_21 
REMARK    9  A    between atoms: C11_18  and  C12_19 
REMARK   10  A    between atoms: C11_18  and  C13_20 
REMARK   11  A    between atoms: N4_21  and  C14_22 
REMARK   12  A    between atoms: C14_22  and  C15_23 
REMARK   13  A    between atoms: C14_22  and  C16_25 
REMARK       I    between atoms: C15_23  and  N6_40 
REMARK   14  A    between atoms: C16_25  and  C17_26 
REMARK   15  A    between atoms: C17_26  and  C18_27 
REMARK   16  A    between atoms: C17_26  and  C19_28 
REMARK   17  A    between atoms: C20_29  and  C21_30 
REMARK   18  A    between atoms: C20_29  and  C24_33 
REMARK   19  A    between atoms: C20_29  and  N6_40 
REMARK   20  A    between atoms: C21_30  and  C22_31 
REMARK   21  A    between atoms: C22_31  and  C23_32 
REMARK   22  A    between atoms: C23_32  and  O8_43 
REMARK   23  A    between atoms: C24_33  and  C25_34 
REMARK   24  A    between atoms: C28_38  and  O6_39 
REMARK   25  A    between atoms: C29_42  and  O8_43 
REMARK   26  A    between atoms: C29_42  and  C35_49 
ROOT
ATOM      1  C14 non d ame     -12.153  14.265  69.999  0.00  0.00     0.089 C 
ATOM      2  H20 non d ame     -13.238  14.312  69.902  0.00  0.00     0.087 H 
ENDROOT
BRANCH   1   3
ATOM      3  N4  non d ame     -11.756  12.877  69.820  0.00  0.00    -0.346 N 
ATOM      4  C10 non d ame     -12.348  11.797  70.693  0.00  0.00     0.241 C 
ATOM      5  O4  non d ame     -13.139  12.072  71.534  0.00  0.00    -0.271 OA
ATOM      6  H19 non d ame     -11.080  12.663  69.101  0.00  0.00     0.163 HD
BRANCH   4   7
ATOM      7  C9  non d ame     -11.930  10.364  70.491  0.00  0.00     0.092 C 
ATOM      8  H11 non d ame     -12.551   9.916  69.715  0.00  0.00     0.088 H 
BRANCH   7   9
ATOM      9  N3  non d ame     -10.544  10.321  70.014  0.00  0.00    -0.346 N 
ATOM     10  C7  non d ame     -10.259   9.908  68.663  0.00  0.00     0.240 C 
ATOM     11  O3  non d ame     -11.132   9.605  67.944  0.00  0.00    -0.271 OA
ATOM     12  H10 non d ame      -9.780  10.579  70.623  0.00  0.00     0.163 HD
BRANCH  10  13
ATOM     13  C6  non d ame      -8.781   9.861  68.163  0.00  0.00     0.086 C 
ATOM     14  H6  non d ame      -8.161   9.177  68.742  0.00  0.00     0.086 H 
BRANCH  13  15
ATOM     15  N2  non d ame      -8.763   9.378  66.792  0.00  0.00    -0.343 N 
ATOM     16  C5  non d ame      -8.238   8.042  66.504  0.00  0.00     0.273 C 
ATOM     17  O2  non d ame      -7.830   7.364  67.381  0.00  0.00    -0.266 OA
ATOM     18  H5  non d ame      -9.111   9.966  66.047  0.00  0.00     0.163 HD
BRANCH  16  19
ATOM     19  C4  non d ame      -8.214   7.519  65.059  0.00  0.00     0.154 A 
ATOM     20  C1  non d ame      -8.283   6.155  64.631  0.00  0.00    -0.017 A 
ATOM     21  C2  non d ame      -8.224   6.214  63.221  0.00  0.00     0.077 A 
ATOM     22  H1  non d ame      -8.363   5.261  65.249  0.00  0.00     0.091 H 
ATOM     23  O1  non d ame      -8.135   7.468  62.888  0.00  0.00    -0.218 OA
ATOM     24  N1  non d ame      -8.127   8.249  63.944  0.00  0.00    -0.123 NA
BRANCH  21  25
ATOM     25  C3  non d ame      -8.261   5.026  62.268  0.00  0.00    -0.029 C 
ATOM     26  H2  non d ame      -7.583   4.251  62.625  0.00  0.00     0.036 H 
ATOM     27  H3  non d ame      -9.275   4.629  62.221  0.00  0.00     0.036 H 
ATOM     28  H4  non d ame      -7.952   5.349  61.273  0.00  0.00     0.036 H 
ENDBRANCH  21  25
ENDBRANCH  16  19
ENDBRANCH  13  15
BRANCH  13  29
ATOM     29  C8  non d ame      -8.180  11.241  68.233  0.00  0.00    -0.049 C 
ATOM     30  H7  non d ame      -7.565  11.415  67.349  0.00  0.00     0.030 H 
ATOM     31  H8  non d ame      -8.976  11.984  68.273  0.00  0.00     0.030 H 
ATOM     32  H9  non d ame      -7.561  11.323  69.126  0.00  0.00     0.030 H 
ENDBRANCH  13  29
ENDBRANCH  10  13
ENDBRANCH   7   9
BRANCH   7  33
ATOM     33  C11 non d ame     -12.036   9.598  71.842  0.00  0.00    -0.033 C 
ATOM     34  H12 non d ame     -12.028  10.338  72.641  0.00  0.00     0.042 H 
BRANCH  33  35
ATOM     35  C12 non d ame     -13.379   8.810  71.944  0.00  0.00    -0.071 C 
ATOM     36  H13 non d ame     -13.888   9.078  72.870  0.00  0.00     0.028 H 
ATOM     37  H14 non d ame     -14.014   9.061  71.095  0.00  0.00     0.028 H 
ATOM     38  H15 non d ame     -13.172   7.741  71.941  0.00  0.00     0.028 H 
ENDBRANCH  33  35
BRANCH  33  39
ATOM     39  C13 non d ame     -10.809   8.653  72.046  0.00  0.00    -0.071 C 
ATOM     40  H16 non d ame     -10.244   8.585  71.117  0.00  0.00     0.028 H 
ATOM     41  H17 non d ame     -10.168   9.053  72.833  0.00  0.00     0.028 H 
ATOM     42  H18 non d ame     -11.158   7.661  72.332  0.00  0.00     0.028 H 
ENDBRANCH  33  39
ENDBRANCH   7  33
ENDBRANCH   4   7
ENDBRANCH   1   3
BRANCH   1  43
ATOM     43  C15 non d ame     -11.429  15.128  68.927  0.00  0.00     0.240 C 
ATOM     44  O5  non d ame     -11.644  16.295  68.862  0.00  0.00    -0.271 OA
ATOM     45  N6  non d ame     -10.458  14.500  67.985  0.00  0.00    -0.355 N 
ATOM     46  H46 non d ame     -10.264  13.510  68.033  0.00  0.00     0.162 HD
BRANCH  45  47
ATOM     47  C20 non d ame      -9.777  15.333  66.971  0.00  0.00     0.013 C 
ATOM     48  H30 non d ame      -8.879  14.805  66.650  0.00  0.00     0.072 H 
BRANCH  47  49
ATOM     49  C21 non d ame      -9.402  16.662  67.586  0.00  0.00    -0.038 C 
ATOM     50  H31 non d ame     -10.100  16.814  68.409  0.00  0.00     0.036 H 
ATOM     51  H32 non d ame      -8.331  16.604  67.783  0.00  0.00     0.036 H 
BRANCH  49  52
ATOM     52  C22 non d ame      -9.603  17.849  66.618  0.00  0.00     0.018 C 
ATOM     53  H33 non d ame      -8.611  18.088  66.233  0.00  0.00     0.048 H 
ATOM     54  H34 non d ame     -10.392  17.540  65.933  0.00  0.00     0.048 H 
BRANCH  52  55
ATOM     55  C23 non d ame     -10.117  19.142  67.310  0.00  0.00     0.259 C 
ATOM     56  O7  non d ame     -11.266  19.442  67.250  0.00  0.00    -0.265 OA
BRANCH  55  57
ATOM     57  O8  non d ame      -9.197  19.973  68.006  0.00  0.00    -0.317 OA
BRANCH  57  58
ATOM     58  C29 non d ame      -8.028  20.305  67.251  0.00  0.00     0.052 C 
ATOM     59  H47 non d ame      -8.007  19.606  66.416  0.00  0.00     0.082 H 
ATOM     60  H48 non d ame      -8.094  21.377  67.062  0.00  0.00     0.082 H 
BRANCH  58  61
ATOM     61  C35 non d ame      -6.788  20.040  68.146  0.00  0.00    -0.034 A 
ATOM     62  C30 non d ame      -6.784  18.967  69.031  0.00  0.00    -0.075 A 
ATOM     63  C31 non d ame      -5.670  18.730  69.835  0.00  0.00    -0.082 A 
ATOM     64  H49 non d ame      -7.653  18.312  69.095  0.00  0.00     0.084 H 
ATOM     65  C32 non d ame      -4.558  19.572  69.754  0.00  0.00    -0.083 A 
ATOM     66  H50 non d ame      -5.669  17.886  70.526  0.00  0.00     0.083 H 
ATOM     67  C33 non d ame      -4.568  20.645  68.872  0.00  0.00    -0.082 A 
ATOM     68  H51 non d ame      -3.683  19.393  70.379  0.00  0.00     0.083 H 
ATOM     69  C34 non d ame      -5.679  20.884  68.065  0.00  0.00    -0.075 A 
ATOM     70  H52 non d ame      -3.699  21.301  68.813  0.00  0.00     0.083 H 
ATOM     71  H53 non d ame      -5.678  21.727  67.373  0.00  0.00     0.084 H 
ENDBRANCH  58  61
ENDBRANCH  57  58
ENDBRANCH  55  57
ENDBRANCH  52  55
ENDBRANCH  49  52
ENDBRANCH  47  49
BRANCH  47  72
ATOM     72  C24 non d ame     -10.709  15.565  65.783  0.00  0.00    -0.039 C 
ATOM     73  H35 non d ame     -11.409  16.334  66.111  0.00  0.00     0.036 H 
ATOM     74  H36 non d ame     -10.053  15.753  64.932  0.00  0.00     0.036 H 
BRANCH  72  75
ATOM     75  C25 non d ame     -11.569  14.258  65.439  0.00  0.00    -0.001 C 
ATOM     76  C26 non d ame     -10.565  13.006  65.084  0.00  0.00    -0.035 C 
ATOM     77  C27 non d ame     -10.948  12.461  63.904  0.00  0.00     0.085 C 
ATOM     78  H38 non d ame      -9.561  13.377  64.880  0.00  0.00     0.036 H 
ATOM     79  H39 non d ame     -10.711  12.195  65.798  0.00  0.00     0.036 H 
ATOM     80  N5  non d ame     -11.913  13.430  63.264  0.00  0.00    -0.049 N 
ATOM     81  H40 non d ame     -10.042  12.410  63.299  0.00  0.00     0.075 H 
ATOM     82  H41 non d ame     -11.482  11.548  64.165  0.00  0.00     0.075 H 
ATOM     83  C28 non d ame     -12.345  14.461  64.428  0.00  0.00     0.193 C 
ATOM     84  H42 non d ame     -11.389  13.935  62.565  0.00  0.00     0.280 HD
ATOM     85  H43 non d ame     -12.724  12.891  62.996  0.00  0.00     0.280 HD
ATOM     86  H44 non d ame     -13.321  14.380  64.907  0.00  0.00     0.129 H 
ATOM     87  H37 non d ame     -12.351  14.074  66.177  0.00  0.00     0.046 H 
BRANCH  83  88
ATOM     88  O6  non d ame     -12.267  15.806  63.950  0.00  0.00    -0.369 OA
ATOM     89  H45 non d ame     -13.077  16.271  64.171  0.00  0.00     0.212 HD
ENDBRANCH  83  88
ENDBRANCH  72  75
ENDBRANCH  47  72
ENDBRANCH  45  47
ENDBRANCH   1  43
BRANCH   1  90
ATOM     90  C16 non d ame     -11.740  14.724  71.388  0.00  0.00    -0.035 C 
ATOM     91  H21 non d ame     -11.608  13.808  71.967  0.00  0.00     0.037 H 
ATOM     92  H22 non d ame     -10.896  15.396  71.232  0.00  0.00     0.037 H 
BRANCH  90  93
ATOM     93  C17 non d ame     -12.836  15.557  72.125  0.00  0.00    -0.059 C 
ATOM     94  H23 non d ame     -12.690  16.603  71.861  0.00  0.00     0.038 H 
BRANCH  93  95
ATOM     95  C18 non d ame     -14.280  15.152  71.685  0.00  0.00    -0.073 C 
ATOM     96  H24 non d ame     -14.481  14.128  72.000  0.00  0.00     0.028 H 
ATOM     97  H25 non d ame     -15.002  15.823  72.149  0.00  0.00     0.028 H 
ATOM     98  H26 non d ame     -14.361  15.222  70.600  0.00  0.00     0.028 H 
ENDBRANCH  93  95
BRANCH  93  99
ATOM     99  C19 non d ame     -12.679  15.446  73.645  0.00  0.00    -0.073 C 
ATOM    100  H27 non d ame     -11.647  15.185  73.884  0.00  0.00     0.028 H 
ATOM    101  H28 non d ame     -12.930  16.402  74.105  0.00  0.00     0.028 H 
ATOM    102  H29 non d ame     -13.348  14.674  74.024  0.00  0.00     0.028 H 
ENDBRANCH  93  99
ENDBRANCH  90  93
ENDBRANCH   1  90
TORSDOF 26
ENDMDL
MODEL 13
REMARK VINA RESULT:      -6.5      2.618      5.418
REMARK  26 active torsions:
REMARK  status: ('A' for Active; 'I' for Inactive)
REMARK    1  A    between atoms: C2_2  and  C3_3 
REMARK    2  A    between atoms: C4_6  and  C5_7 
REMARK       I    between atoms: C5_7  and  N2_9 
REMARK    3  A    between atoms: N2_9  and  C6_10 
REMARK    4  A    between atoms: C6_10  and  C7_11 
REMARK    5  A    between atoms: C6_10  and  C8_13 
REMARK       I    between atoms: C7_11  and  N3_14 
REMARK    6  A    between atoms: N3_14  and  C9_15 
REMARK    7  A    between atoms: C9_15  and  C10_16 
REMARK    8  A    between atoms: C9_15  and  C11_18 
REMARK       I    between atoms: C10_16  and  N4_21 
REMARK    9  A    between atoms: C11_18  and  C12_19 
REMARK   10  A    between atoms: C11_18  and  C13_20 
REMARK   11  A    between atoms: N4_21  and  C14_22 
REMARK   12  A    between atoms: C14_22  and  C15_23 
REMARK   13  A    between atoms: C14_22  and  C16_25 
REMARK       I    between atoms: C15_23  and  N6_40 
REMARK   14  A    between atoms: C16_25  and  C17_26 
REMARK   15  A    between atoms: C17_26  and  C18_27 
REMARK   16  A    between atoms: C17_26  and  C19_28 
REMARK   17  A    between atoms: C20_29  and  C21_30 
REMARK   18  A    between atoms: C20_29  and  C24_33 
REMARK   19  A    between atoms: C20_29  and  N6_40 
REMARK   20  A    between atoms: C21_30  and  C22_31 
REMARK   21  A    between atoms: C22_31  and  C23_32 
REMARK   22  A    between atoms: C23_32  and  O8_43 
REMARK   23  A    between atoms: C24_33  and  C25_34 
REMARK   24  A    between atoms: C28_38  and  O6_39 
REMARK   25  A    between atoms: C29_42  and  O8_43 
REMARK   26  A    between atoms: C29_42  and  C35_49 
ROOT
ATOM      1  C14 non d ame     -12.114  14.225  69.891  0.00  0.00     0.089 C 
ATOM      2  H20 non d ame     -13.124  13.832  69.763  0.00  0.00     0.087 H 
ENDROOT
BRANCH   1   3
ATOM      3  N4  non d ame     -11.207  13.089  69.950  0.00  0.00    -0.346 N 
ATOM      4  C10 non d ame     -11.439  11.882  69.074  0.00  0.00     0.241 C 
ATOM      5  O4  non d ame     -12.365  11.849  68.332  0.00  0.00    -0.271 OA
ATOM      6  H19 non d ame     -10.427  13.136  70.590  0.00  0.00     0.163 HD
BRANCH   4   7
ATOM      7  C9  non d ame     -10.487  10.717  69.144  0.00  0.00     0.092 C 
ATOM      8  H11 non d ame      -9.849  10.827  70.021  0.00  0.00     0.088 H 
BRANCH   7   9
ATOM      9  N3  non d ame     -11.247   9.475  69.315  0.00  0.00    -0.346 N 
ATOM     10  C7  non d ame     -11.193   8.764  70.568  0.00  0.00     0.240 C 
ATOM     11  O3  non d ame     -10.543   9.175  71.450  0.00  0.00    -0.271 OA
ATOM     12  H10 non d ame     -11.812   9.106  68.563  0.00  0.00     0.163 HD
BRANCH  10  13
ATOM     13  C6  non d ame     -12.001   7.440  70.742  0.00  0.00     0.086 C 
ATOM     14  H6  non d ame     -13.077   7.606  70.796  0.00  0.00     0.086 H 
BRANCH  13  15
ATOM     15  N2  non d ame     -11.770   6.590  69.585  0.00  0.00    -0.343 N 
ATOM     16  C5  non d ame     -10.432   6.044  69.347  0.00  0.00     0.273 C 
ATOM     17  O2  non d ame      -9.549   6.296  70.090  0.00  0.00    -0.266 OA
ATOM     18  H5  non d ame     -12.530   6.383  68.953  0.00  0.00     0.163 HD
BRANCH  16  19
ATOM     19  C4  non d ame     -10.173   5.144  68.129  0.00  0.00     0.154 A 
ATOM     20  C1  non d ame     -10.520   5.412  66.766  0.00  0.00    -0.017 A 
ATOM     21  C2  non d ame     -10.068   4.283  66.048  0.00  0.00     0.077 A 
ATOM     22  H1  non d ame     -11.020   6.292  66.361  0.00  0.00     0.091 H 
ATOM     23  O1  non d ame      -9.526   3.469  66.905  0.00  0.00    -0.218 OA
ATOM     24  N1  non d ame      -9.576   3.949  68.127  0.00  0.00    -0.123 NA
BRANCH  21  25
ATOM     25  C3  non d ame     -10.192   4.063  64.546  0.00  0.00    -0.029 C 
ATOM     26  H2  non d ame     -11.245   4.012  64.271  0.00  0.00     0.036 H 
ATOM     27  H3  non d ame      -9.718   4.888  64.017  0.00  0.00     0.036 H 
ATOM     28  H4  non d ame      -9.700   3.127  64.274  0.00  0.00     0.036 H 
ENDBRANCH  21  25
ENDBRANCH  16  19
ENDBRANCH  13  15
BRANCH  13  29
ATOM     29  C8  non d ame     -11.554   6.736  71.997  0.00  0.00    -0.049 C 
ATOM     30  H7  non d ame     -12.290   6.896  72.786  0.00  0.00     0.030 H 
ATOM     31  H8  non d ame     -11.457   5.668  71.802  0.00  0.00     0.030 H 
ATOM     32  H9  non d ame     -10.591   7.136  72.314  0.00  0.00     0.030 H 
ENDBRANCH  13  29
ENDBRANCH  10  13
ENDBRANCH   7   9
BRANCH   7  33
ATOM     33  C11 non d ame      -9.663  10.642  67.826  0.00  0.00    -0.033 C 
ATOM     34  H12 non d ame     -10.356  10.773  66.996  0.00  0.00     0.042 H 
BRANCH  33  35
ATOM     35  C12 non d ame      -8.611  11.792  67.746  0.00  0.00    -0.071 C 
ATOM     36  H13 non d ame      -8.017  11.679  66.839  0.00  0.00     0.028 H 
ATOM     37  H14 non d ame      -9.124  12.753  67.727  0.00  0.00     0.028 H 
ATOM     38  H15 non d ame      -7.957  11.745  68.616  0.00  0.00     0.028 H 
ENDBRANCH  33  35
BRANCH  33  39
ATOM     39  C13 non d ame      -8.983   9.243  67.671  0.00  0.00    -0.071 C 
ATOM     40  H16 non d ame      -8.138   9.323  66.988  0.00  0.00     0.028 H 
ATOM     41  H17 non d ame      -8.632   8.899  68.645  0.00  0.00     0.028 H 
ATOM     42  H18 non d ame      -9.705   8.530  67.274  0.00  0.00     0.028 H 
ENDBRANCH  33  39
ENDBRANCH   7  33
ENDBRANCH   4   7
ENDBRANCH   1   3
BRANCH   1  43
ATOM     43  C15 non d ame     -11.686  15.139  68.708  0.00  0.00     0.240 C 
ATOM     44  O5  non d ame     -11.971  16.292  68.718  0.00  0.00    -0.271 OA
ATOM     45  N6  non d ame     -10.909  14.578  67.565  0.00  0.00    -0.355 N 
ATOM     46  H46 non d ame     -10.657  13.600  67.548  0.00  0.00     0.162 HD
BRANCH  45  47
ATOM     47  C20 non d ame     -10.508  15.460  66.449  0.00  0.00     0.013 C 
ATOM     48  H30 non d ame     -11.045  16.402  66.556  0.00  0.00     0.072 H 
BRANCH  47  49
ATOM     49  C21 non d ame     -10.874  14.804  65.136  0.00  0.00    -0.038 C 
ATOM     50  H31 non d ame     -11.840  15.223  64.857  0.00  0.00     0.036 H 
ATOM     51  H32 non d ame     -10.010  14.944  64.486  0.00  0.00     0.036 H 
BRANCH  49  52
ATOM     52  C22 non d ame     -11.081  13.279  65.266  0.00  0.00     0.018 C 
ATOM     53  H33 non d ame     -10.186  12.900  65.761  0.00  0.00     0.048 H 
ATOM     54  H34 non d ame     -12.057  13.152  65.734  0.00  0.00     0.048 H 
BRANCH  52  55
ATOM     55  C23 non d ame     -11.160  12.539  63.901  0.00  0.00     0.259 C 
ATOM     56  O7  non d ame     -12.115  12.660  63.205  0.00  0.00    -0.265 OA
BRANCH  55  57
ATOM     57  O8  non d ame     -10.082  11.704  63.499  0.00  0.00    -0.317 OA
BRANCH  57  58
ATOM     58  C29 non d ame     -10.094  10.407  64.103  0.00  0.00     0.052 C 
ATOM     59  H47 non d ame     -10.024  10.581  65.176  0.00  0.00     0.082 H 
ATOM     60  H48 non d ame     -10.964   9.897  63.689  0.00  0.00     0.082 H 
BRANCH  58  61
ATOM     61  C35 non d ame      -8.818   9.652  63.643  0.00  0.00    -0.034 A 
ATOM     62  C30 non d ame      -8.130  10.072  62.510  0.00  0.00    -0.075 A 
ATOM     63  C31 non d ame      -6.984   9.394  62.097  0.00  0.00    -0.082 A 
ATOM     64  H49 non d ame      -8.488  10.934  61.945  0.00  0.00     0.084 H 
ATOM     65  C32 non d ame      -6.529   8.289  62.821  0.00  0.00    -0.083 A 
ATOM     66  H50 non d ame      -6.445   9.728  61.210  0.00  0.00     0.083 H 
ATOM     67  C33 non d ame      -7.221   7.870  63.949  0.00  0.00    -0.082 A 
ATOM     68  H51 non d ame      -5.633   7.754  62.505  0.00  0.00     0.083 H 
ATOM     69  C34 non d ame      -8.365   8.547  64.366  0.00  0.00    -0.075 A 
ATOM     70  H52 non d ame      -6.864   7.006  64.510  0.00  0.00     0.083 H 
ATOM     71  H53 non d ame      -8.903   8.213  65.255  0.00  0.00     0.084 H 
ENDBRANCH  58  61
ENDBRANCH  57  58
ENDBRANCH  55  57
ENDBRANCH  52  55
ENDBRANCH  49  52
ENDBRANCH  47  49
BRANCH  47  72
ATOM     72  C24 non d ame      -9.000  15.699  66.497  0.00  0.00    -0.039 C 
ATOM     73  H35 non d ame      -8.548  14.708  66.463  0.00  0.00     0.036 H 
ATOM     74  H36 non d ame      -8.795  16.418  65.703  0.00  0.00     0.036 H 
BRANCH  72  75
ATOM     75  C25 non d ame      -8.551  16.378  67.876  0.00  0.00    -0.001 C 
ATOM     76  C26 non d ame      -9.003  17.958  67.896  0.00  0.00    -0.035 C 
ATOM     77  C27 non d ame      -7.927  18.715  68.222  0.00  0.00     0.085 C 
ATOM     78  H38 non d ame      -9.251  18.289  66.888  0.00  0.00     0.036 H 
ATOM     79  H39 non d ame      -9.698  18.138  68.715  0.00  0.00     0.036 H 
ATOM     80  N5  non d ame      -6.711  17.827  68.105  0.00  0.00    -0.049 N 
ATOM     81  H40 non d ame      -7.875  19.492  67.458  0.00  0.00     0.075 H 
ATOM     82  H41 non d ame      -8.069  18.987  69.267  0.00  0.00     0.075 H 
ATOM     83  C28 non d ame      -7.270  16.315  68.034  0.00  0.00     0.193 C 
ATOM     84  H42 non d ame      -6.277  18.052  67.222  0.00  0.00     0.280 HD
ATOM     85  H43 non d ame      -6.193  17.937  68.965  0.00  0.00     0.280 HD
ATOM     86  H44 non d ame      -7.209  15.659  68.902  0.00  0.00     0.129 H 
ATOM     87  H37 non d ame      -8.824  15.773  68.741  0.00  0.00     0.046 H 
BRANCH  83  88
ATOM     88  O6  non d ame      -6.632  15.602  66.972  0.00  0.00    -0.369 OA
ATOM     89  H45 non d ame      -5.727  15.400  67.222  0.00  0.00     0.212 HD
ENDBRANCH  83  88
ENDBRANCH  72  75
ENDBRANCH  47  72
ENDBRANCH  45  47
ENDBRANCH   1  43
BRANCH   1  90
ATOM     90  C16 non d ame     -12.024  15.000  71.195  0.00  0.00    -0.035 C 
ATOM     91  H21 non d ame     -11.048  14.750  71.613  0.00  0.00     0.037 H 
ATOM     92  H22 non d ame     -12.257  16.032  70.935  0.00  0.00     0.037 H 
BRANCH  90  93
ATOM     93  C17 non d ame     -13.082  14.564  72.258  0.00  0.00    -0.059 C 
ATOM     94  H23 non d ame     -13.097  13.475  72.282  0.00  0.00     0.038 H 
BRANCH  93  95
ATOM     95  C18 non d ame     -12.720  15.068  73.692  0.00  0.00    -0.073 C 
ATOM     96  H24 non d ame     -13.620  15.434  74.186  0.00  0.00     0.028 H 
ATOM     97  H25 non d ame     -12.297  14.246  74.269  0.00  0.00     0.028 H 
ATOM     98  H26 non d ame     -11.990  15.875  73.620  0.00  0.00     0.028 H 
ENDBRANCH  93  95
BRANCH  93  99
ATOM     99  C19 non d ame     -14.485  15.028  71.856  0.00  0.00    -0.073 C 
ATOM    100  H27 non d ame     -15.229  14.383  72.326  0.00  0.00     0.028 H 
ATOM    101  H28 non d ame     -14.635  16.056  72.185  0.00  0.00     0.028 H 
ATOM    102  H29 non d ame     -14.589  14.975  70.773  0.00  0.00     0.028 H 
ENDBRANCH  93  99
ENDBRANCH  90  93
ENDBRANCH   1  90
TORSDOF 26
ENDMDL
MODEL 14
REMARK VINA RESULT:      -6.5      3.585      9.355
REMARK  26 active torsions:
REMARK  status: ('A' for Active; 'I' for Inactive)
REMARK    1  A    between atoms: C2_2  and  C3_3 
REMARK    2  A    between atoms: C4_6  and  C5_7 
REMARK       I    between atoms: C5_7  and  N2_9 
REMARK    3  A    between atoms: N2_9  and  C6_10 
REMARK    4  A    between atoms: C6_10  and  C7_11 
REMARK    5  A    between atoms: C6_10  and  C8_13 
REMARK       I    between atoms: C7_11  and  N3_14 
REMARK    6  A    between atoms: N3_14  and  C9_15 
REMARK    7  A    between atoms: C9_15  and  C10_16 
REMARK    8  A    between atoms: C9_15  and  C11_18 
REMARK       I    between atoms: C10_16  and  N4_21 
REMARK    9  A    between atoms: C11_18  and  C12_19 
REMARK   10  A    between atoms: C11_18  and  C13_20 
REMARK   11  A    between atoms: N4_21  and  C14_22 
REMARK   12  A    between atoms: C14_22  and  C15_23 
REMARK   13  A    between atoms: C14_22  and  C16_25 
REMARK       I    between atoms: C15_23  and  N6_40 
REMARK   14  A    between atoms: C16_25  and  C17_26 
REMARK   15  A    between atoms: C17_26  and  C18_27 
REMARK   16  A    between atoms: C17_26  and  C19_28 
REMARK   17  A    between atoms: C20_29  and  C21_30 
REMARK   18  A    between atoms: C20_29  and  C24_33 
REMARK   19  A    between atoms: C20_29  and  N6_40 
REMARK   20  A    between atoms: C21_30  and  C22_31 
REMARK   21  A    between atoms: C22_31  and  C23_32 
REMARK   22  A    between atoms: C23_32  and  O8_43 
REMARK   23  A    between atoms: C24_33  and  C25_34 
REMARK   24  A    between atoms: C28_38  and  O6_39 
REMARK   25  A    between atoms: C29_42  and  O8_43 
REMARK   26  A    between atoms: C29_42  and  C35_49 
ROOT
ATOM      1  C14 non d ame      -8.141   8.506  63.094  0.00  0.00     0.089 C 
ATOM      2  H20 non d ame      -8.999   8.849  62.514  0.00  0.00     0.087 H 
ENDROOT
BRANCH   1   3
ATOM      3  N4  non d ame      -8.159   9.217  64.364  0.00  0.00    -0.346 N 
ATOM      4  C10 non d ame      -9.274  10.183  64.680  0.00  0.00     0.241 C 
ATOM      5  O4  non d ame     -10.145  10.372  63.896  0.00  0.00    -0.271 OA
ATOM      6  H19 non d ame      -7.408   9.044  65.017  0.00  0.00     0.163 HD
BRANCH   4   7
ATOM      7  C9  non d ame      -9.280  10.907  66.001  0.00  0.00     0.092 C 
ATOM      8  H11 non d ame      -8.554  11.719  65.969  0.00  0.00     0.088 H 
BRANCH   7   9
ATOM      9  N3  non d ame     -10.597  11.513  66.220  0.00  0.00    -0.346 N 
ATOM     10  C7  non d ame     -10.762  12.940  66.101  0.00  0.00     0.240 C 
ATOM     11  O3  non d ame      -9.847  13.617  65.830  0.00  0.00    -0.271 OA
ATOM     12  H10 non d ame     -11.397  10.942  66.456  0.00  0.00     0.163 HD
BRANCH  10  13
ATOM     13  C6  non d ame     -12.166  13.580  66.339  0.00  0.00     0.086 C 
ATOM     14  H6  non d ame     -12.945  12.837  66.508  0.00  0.00     0.086 H 
BRANCH  13  15
ATOM     15  N2  non d ame     -12.111  14.405  67.535  0.00  0.00    -0.343 N 
ATOM     16  C5  non d ame     -12.019  13.766  68.849  0.00  0.00     0.273 C 
ATOM     17  O2  non d ame     -11.993  12.587  68.934  0.00  0.00    -0.266 OA
ATOM     18  H5  non d ame     -12.137  15.411  67.453  0.00  0.00     0.163 HD
BRANCH  16  19
ATOM     19  C4  non d ame     -11.960  14.626  70.121  0.00  0.00     0.154 A 
ATOM     20  C1  non d ame     -12.369  14.249  71.440  0.00  0.00    -0.017 A 
ATOM     21  C2  non d ame     -12.109  15.385  72.239  0.00  0.00     0.077 A 
ATOM     22  H1  non d ame     -12.788  13.297  71.767  0.00  0.00     0.091 H 
ATOM     23  O1  non d ame     -11.609  16.300  71.461  0.00  0.00    -0.218 OA
ATOM     24  N1  non d ame     -11.512  15.880  70.220  0.00  0.00    -0.123 NA
BRANCH  21  25
ATOM     25  C3  non d ame     -12.367  15.512  73.734  0.00  0.00    -0.029 C 
ATOM     26  H2  non d ame     -12.990  16.387  73.923  0.00  0.00     0.036 H 
ATOM     27  H3  non d ame     -12.876  14.619  74.093  0.00  0.00     0.036 H 
ATOM     28  H4  non d ame     -11.417  15.624  74.259  0.00  0.00     0.036 H 
ENDBRANCH  21  25
ENDBRANCH  16  19
ENDBRANCH  13  15
BRANCH  13  29
ATOM     29  C8  non d ame     -12.546  14.422  65.148  0.00  0.00    -0.049 C 
ATOM     30  H7  non d ame     -11.661  14.932  64.767  0.00  0.00     0.030 H 
ATOM     31  H8  non d ame     -12.962  13.784  64.369  0.00  0.00     0.030 H 
ATOM     32  H9  non d ame     -13.289  15.161  65.448  0.00  0.00     0.030 H 
ENDBRANCH  13  29
ENDBRANCH  10  13
ENDBRANCH   7   9
BRANCH   7  33
ATOM     33  C11 non d ame      -8.979   9.897  67.147  0.00  0.00    -0.033 C 
ATOM     34  H12 non d ame      -8.905   8.906  66.701  0.00  0.00     0.042 H 
BRANCH  33  35
ATOM     35  C12 non d ame      -7.612  10.207  67.833  0.00  0.00    -0.071 C 
ATOM     36  H13 non d ame      -6.806  10.084  67.110  0.00  0.00     0.028 H 
ATOM     37  H14 non d ame      -7.616  11.232  68.203  0.00  0.00     0.028 H 
ATOM     38  H15 non d ame      -7.461   9.520  68.665  0.00  0.00     0.028 H 
ENDBRANCH  33  35
BRANCH  33  39
ATOM     39  C13 non d ame     -10.143   9.872  68.190  0.00  0.00    -0.071 C 
ATOM     40  H16 non d ame     -11.090  10.049  67.682  0.00  0.00     0.028 H 
ATOM     41  H17 non d ame     -10.170   8.898  68.681  0.00  0.00     0.028 H 
ATOM     42  H18 non d ame      -9.979  10.649  68.936  0.00  0.00     0.028 H 
ENDBRANCH  33  39
ENDBRANCH   7  33
ENDBRANCH   4   7
ENDBRANCH   1   3
BRANCH   1  43
ATOM     43  C15 non d ame      -8.200   6.979  63.382  0.00  0.00     0.240 C 
ATOM     44  O5  non d ame      -8.104   6.203  62.487  0.00  0.00    -0.271 OA
ATOM     45  N6  non d ame      -8.365   6.481  64.779  0.00  0.00    -0.355 N 
ATOM     46  H46 non d ame      -8.443   7.131  65.548  0.00  0.00     0.162 HD
BRANCH  45  47
ATOM     47  C20 non d ame      -8.418   5.027  65.037  0.00  0.00     0.013 C 
ATOM     48  H30 non d ame      -8.151   4.512  64.114  0.00  0.00     0.072 H 
BRANCH  47  49
ATOM     49  C21 non d ame      -9.819   4.643  65.455  0.00  0.00    -0.038 C 
ATOM     50  H31 non d ame     -10.479   5.361  64.968  0.00  0.00     0.036 H 
ATOM     51  H32 non d ame      -9.912   3.579  65.233  0.00  0.00     0.036 H 
BRANCH  49  52
ATOM     52  C22 non d ame     -10.054   4.794  66.974  0.00  0.00     0.018 C 
ATOM     53  H33 non d ame     -10.685   3.952  67.261  0.00  0.00     0.048 H 
ATOM     54  H34 non d ame      -9.064   4.908  67.415  0.00  0.00     0.048 H 
BRANCH  52  55
ATOM     55  C23 non d ame     -10.846   6.074  67.361  0.00  0.00     0.259 C 
ATOM     56  O7  non d ame     -10.962   6.968  66.587  0.00  0.00    -0.265 OA
BRANCH  55  57
ATOM     57  O8  non d ame     -11.422   6.171  68.658  0.00  0.00    -0.317 OA
BRANCH  57  58
ATOM     58  C29 non d ame     -10.627   5.582  69.692  0.00  0.00     0.052 C 
ATOM     59  H47 non d ame     -11.329   5.288  70.472  0.00  0.00     0.082 H 
ATOM     60  H48 non d ame     -10.013   4.829  69.199  0.00  0.00     0.082 H 
BRANCH  58  61
ATOM     61  C35 non d ame      -9.691   6.682  70.261  0.00  0.00    -0.034 A 
ATOM     62  C30 non d ame     -10.189   7.631  71.148  0.00  0.00    -0.075 A 
ATOM     63  C31 non d ame      -9.347   8.618  71.659  0.00  0.00    -0.082 A 
ATOM     64  H49 non d ame     -11.237   7.600  71.445  0.00  0.00     0.084 H 
ATOM     65  C32 non d ame      -8.004   8.657  71.276  0.00  0.00    -0.083 A 
ATOM     66  H50 non d ame      -9.740   9.358  72.357  0.00  0.00     0.083 H 
ATOM     67  C33 non d ame      -7.512   7.710  70.387  0.00  0.00    -0.082 A 
ATOM     68  H51 non d ame      -7.340   9.425  71.671  0.00  0.00     0.083 H 
ATOM     69  C34 non d ame      -8.350   6.720  69.876  0.00  0.00    -0.075 A 
ATOM     70  H52 non d ame      -6.464   7.745  70.089  0.00  0.00     0.083 H 
ATOM     71  H53 non d ame      -7.955   5.979  69.179  0.00  0.00     0.084 H 
ENDBRANCH  58  61
ENDBRANCH  57  58
ENDBRANCH  55  57
ENDBRANCH  52  55
ENDBRANCH  49  52
ENDBRANCH  47  49
BRANCH  47  72
ATOM     72  C24 non d ame      -7.436   4.664  66.149  0.00  0.00    -0.039 C 
ATOM     73  H35 non d ame      -7.964   4.871  67.080  0.00  0.00     0.036 H 
ATOM     74  H36 non d ame      -7.105   3.650  65.925  0.00  0.00     0.036 H 
BRANCH  72  75
ATOM     75  C25 non d ame      -6.138   5.602  66.124  0.00  0.00    -0.001 C 
ATOM     76  C26 non d ame      -5.151   5.157  64.886  0.00  0.00    -0.035 C 
ATOM     77  C27 non d ame      -3.898   4.979  65.370  0.00  0.00     0.085 C 
ATOM     78  H38 non d ame      -5.427   4.168  64.524  0.00  0.00     0.036 H 
ATOM     79  H39 non d ame      -5.037   5.983  64.184  0.00  0.00     0.036 H 
ATOM     80  N5  non d ame      -4.008   4.941  66.876  0.00  0.00    -0.049 N 
ATOM     81  H40 non d ame      -3.585   3.998  65.012  0.00  0.00     0.075 H 
ATOM     82  H41 non d ame      -3.343   5.869  65.077  0.00  0.00     0.075 H 
ATOM     83  C28 non d ame      -5.475   5.514  67.229  0.00  0.00     0.193 C 
ATOM     84  H42 non d ame      -3.970   3.968  67.141  0.00  0.00     0.280 HD
ATOM     85  H43 non d ame      -3.317   5.588  67.229  0.00  0.00     0.280 HD
ATOM     86  H44 non d ame      -5.597   6.526  67.614  0.00  0.00     0.129 H 
ATOM     87  H37 non d ame      -6.391   6.659  66.201  0.00  0.00     0.046 H 
BRANCH  83  88
ATOM     88  O6  non d ame      -6.122   4.664  68.178  0.00  0.00    -0.369 OA
ATOM     89  H45 non d ame      -6.601   5.202  68.814  0.00  0.00     0.212 HD
ENDBRANCH  83  88
ENDBRANCH  72  75
ENDBRANCH  47  72
ENDBRANCH  45  47
ENDBRANCH   1  43
BRANCH   1  90
ATOM     90  C16 non d ame      -6.855   8.839  62.357  0.00  0.00    -0.035 C 
ATOM     91  H21 non d ame      -6.586   7.928  61.820  0.00  0.00     0.037 H 
ATOM     92  H22 non d ame      -7.066   9.754  61.806  0.00  0.00     0.037 H 
BRANCH  90  93
ATOM     93  C17 non d ame      -5.655   9.161  63.304  0.00  0.00    -0.059 C 
ATOM     94  H23 non d ame      -5.984   8.981  64.328  0.00  0.00     0.038 H 
BRANCH  93  95
ATOM     95  C18 non d ame      -4.424   8.239  63.031  0.00  0.00    -0.073 C 
ATOM     96  H24 non d ame      -3.520   8.846  62.984  0.00  0.00     0.028 H 
ATOM     97  H25 non d ame      -4.330   7.511  63.836  0.00  0.00     0.028 H 
ATOM     98  H26 non d ame      -4.563   7.718  62.084  0.00  0.00     0.028 H 
ENDBRANCH  93  95
BRANCH  93  99
ATOM     99  C19 non d ame      -5.262  10.638  63.207  0.00  0.00    -0.073 C 
ATOM    100  H27 non d ame      -6.127  11.223  62.891  0.00  0.00     0.028 H 
ATOM    101  H28 non d ame      -4.922  10.987  64.182  0.00  0.00     0.028 H 
ATOM    102  H29 non d ame      -4.458  10.753  62.480  0.00  0.00     0.028 H 
ENDBRANCH  93  99
ENDBRANCH  90  93
ENDBRANCH   1  90
TORSDOF 26
ENDMDL
MODEL 15
REMARK VINA RESULT:      -6.5      2.364      8.449
REMARK  26 active torsions:
REMARK  status: ('A' for Active; 'I' for Inactive)
REMARK    1  A    between atoms: C2_2  and  C3_3 
REMARK    2  A    between atoms: C4_6  and  C5_7 
REMARK       I    between atoms: C5_7  and  N2_9 
REMARK    3  A    between atoms: N2_9  and  C6_10 
REMARK    4  A    between atoms: C6_10  and  C7_11 
REMARK    5  A    between atoms: C6_10  and  C8_13 
REMARK       I    between atoms: C7_11  and  N3_14 
REMARK    6  A    between atoms: N3_14  and  C9_15 
REMARK    7  A    between atoms: C9_15  and  C10_16 
REMARK    8  A    between atoms: C9_15  and  C11_18 
REMARK       I    between atoms: C10_16  and  N4_21 
REMARK    9  A    between atoms: C11_18  and  C12_19 
REMARK   10  A    between atoms: C11_18  and  C13_20 
REMARK   11  A    between atoms: N4_21  and  C14_22 
REMARK   12  A    between atoms: C14_22  and  C15_23 
REMARK   13  A    between atoms: C14_22  and  C16_25 
REMARK       I    between atoms: C15_23  and  N6_40 
REMARK   14  A    between atoms: C16_25  and  C17_26 
REMARK   15  A    between atoms: C17_26  and  C18_27 
REMARK   16  A    between atoms: C17_26  and  C19_28 
REMARK   17  A    between atoms: C20_29  and  C21_30 
REMARK   18  A    between atoms: C20_29  and  C24_33 
REMARK   19  A    between atoms: C20_29  and  N6_40 
REMARK   20  A    between atoms: C21_30  and  C22_31 
REMARK   21  A    between atoms: C22_31  and  C23_32 
REMARK   22  A    between atoms: C23_32  and  O8_43 
REMARK   23  A    between atoms: C24_33  and  C25_34 
REMARK   24  A    between atoms: C28_38  and  O6_39 
REMARK   25  A    between atoms: C29_42  and  O8_43 
REMARK   26  A    between atoms: C29_42  and  C35_49 
ROOT
ATOM      1  C14 non d ame      -5.952  15.691  67.703  0.00  0.00     0.089 C 
ATOM      2  H20 non d ame      -5.391  16.112  66.868  0.00  0.00     0.087 H 
ENDROOT
BRANCH   1   3
ATOM      3  N4  non d ame      -7.365  15.927  67.445  0.00  0.00    -0.346 N 
ATOM      4  C10 non d ame      -7.793  16.990  66.463  0.00  0.00     0.241 C 
ATOM      5  O4  non d ame      -6.981  17.643  65.894  0.00  0.00    -0.271 OA
ATOM      6  H19 non d ame      -8.040  15.363  67.941  0.00  0.00     0.163 HD
BRANCH   4   7
ATOM      7  C9  non d ame      -9.259  17.218  66.204  0.00  0.00     0.092 C 
ATOM      8  H11 non d ame      -9.378  17.755  65.263  0.00  0.00     0.088 H 
BRANCH   7   9
ATOM      9  N3  non d ame      -9.936  15.926  66.053  0.00  0.00    -0.346 N 
ATOM     10  C7  non d ame     -10.946  15.756  65.039  0.00  0.00     0.240 C 
ATOM     11  O3  non d ame     -11.228  16.647  64.335  0.00  0.00    -0.271 OA
ATOM     12  H10 non d ame      -9.704  15.147  66.654  0.00  0.00     0.163 HD
BRANCH  10  13
ATOM     13  C6  non d ame     -11.665  14.379  64.887  0.00  0.00     0.086 C 
ATOM     14  H6  non d ame     -12.373  14.362  64.058  0.00  0.00     0.086 H 
BRANCH  13  15
ATOM     15  N2  non d ame     -10.671  13.357  64.604  0.00  0.00    -0.343 N 
ATOM     16  C5  non d ame     -11.003  12.258  63.695  0.00  0.00     0.273 C 
ATOM     17  O2  non d ame     -12.074  12.203  63.199  0.00  0.00    -0.266 OA
ATOM     18  H5  non d ame      -9.759  13.410  65.035  0.00  0.00     0.163 HD
BRANCH  16  19
ATOM     19  C4  non d ame      -9.961  11.171  63.388  0.00  0.00     0.154 A 
ATOM     20  C1  non d ame      -9.547  10.102  64.244  0.00  0.00    -0.017 A 
ATOM     21  C2  non d ame      -8.580   9.393  63.499  0.00  0.00     0.077 A 
ATOM     22  H1  non d ame      -9.896   9.876  65.252  0.00  0.00     0.091 H 
ATOM     23  O1  non d ame      -8.462   9.990  62.349  0.00  0.00    -0.218 OA
ATOM     24  N1  non d ame      -9.258  11.031  62.261  0.00  0.00    -0.123 NA
BRANCH  21  25
ATOM     25  C3  non d ame      -7.820   8.155  63.956  0.00  0.00    -0.029 C 
ATOM     26  H2  non d ame      -6.766   8.259  63.697  0.00  0.00     0.036 H 
ATOM     27  H3  non d ame      -7.919   8.045  65.035  0.00  0.00     0.036 H 
ATOM     28  H4  non d ame      -8.230   7.273  63.462  0.00  0.00     0.036 H 
ENDBRANCH  21  25
ENDBRANCH  16  19
ENDBRANCH  13  15
BRANCH  13  29
ATOM     29  C8  non d ame     -12.399  14.048  66.161  0.00  0.00    -0.049 C 
ATOM     30  H7  non d ame     -13.043  13.184  65.995  0.00  0.00     0.030 H 
ATOM     31  H8  non d ame     -11.679  13.819  66.946  0.00  0.00     0.030 H 
ATOM     32  H9  non d ame     -13.007  14.901  66.462  0.00  0.00     0.030 H 
ENDBRANCH  13  29
ENDBRANCH  10  13
ENDBRANCH   7   9
BRANCH   7  33
ATOM     33  C11 non d ame      -9.882  17.992  67.402  0.00  0.00    -0.033 C 
ATOM     34  H12 non d ame      -9.063  18.345  68.028  0.00  0.00     0.042 H 
BRANCH  33  35
ATOM     35  C12 non d ame     -10.677  19.244  66.918  0.00  0.00    -0.071 C 
ATOM     36  H13 non d ame     -10.154  20.149  67.227  0.00  0.00     0.028 H 
ATOM     37  H14 non d ame     -10.760  19.225  65.832  0.00  0.00     0.028 H 
ATOM     38  H15 non d ame     -11.673  19.233  67.359  0.00  0.00     0.028 H 
ENDBRANCH  33  35
BRANCH  33  39
ATOM     39  C13 non d ame     -10.781  17.051  68.268  0.00  0.00    -0.071 C 
ATOM     40  H16 non d ame     -10.212  16.694  69.126  0.00  0.00     0.028 H 
ATOM     41  H17 non d ame     -11.655  17.603  68.616  0.00  0.00     0.028 H 
ATOM     42  H18 non d ame     -11.104  16.202  67.666  0.00  0.00     0.028 H 
ENDBRANCH  33  39
ENDBRANCH   7  33
ENDBRANCH   4   7
ENDBRANCH   1   3
BRANCH   1  43
ATOM     43  C15 non d ame      -5.727  14.159  67.848  0.00  0.00     0.240 C 
ATOM     44  O5  non d ame      -4.794  13.646  67.321  0.00  0.00    -0.271 OA
ATOM     45  N6  non d ame      -6.671  13.332  68.654  0.00  0.00    -0.355 N 
ATOM     46  H46 non d ame      -7.464  13.757  69.110  0.00  0.00     0.162 HD
BRANCH  45  47
ATOM     47  C20 non d ame      -6.442  11.877  68.784  0.00  0.00     0.013 C 
ATOM     48  H30 non d ame      -5.650  11.598  68.089  0.00  0.00     0.072 H 
BRANCH  47  49
ATOM     49  C21 non d ame      -7.715  11.137  68.438  0.00  0.00    -0.038 C 
ATOM     50  H31 non d ame      -7.414  10.329  67.771  0.00  0.00     0.036 H 
ATOM     51  H32 non d ame      -8.191  10.909  69.391  0.00  0.00     0.036 H 
BRANCH  49  52
ATOM     52  C22 non d ame      -8.716  12.006  67.646  0.00  0.00     0.018 C 
ATOM     53  H33 non d ame      -8.524  13.034  67.954  0.00  0.00     0.048 H 
ATOM     54  H34 non d ame      -8.594  11.720  66.601  0.00  0.00     0.048 H 
BRANCH  52  55
ATOM     55  C23 non d ame     -10.204  11.726  67.997  0.00  0.00     0.259 C 
ATOM     56  O7  non d ame     -10.946  11.294  67.175  0.00  0.00    -0.265 OA
BRANCH  55  57
ATOM     57  O8  non d ame     -10.674  12.004  69.310  0.00  0.00    -0.317 OA
BRANCH  57  58
ATOM     58  C29 non d ame     -12.099  11.970  69.436  0.00  0.00     0.052 C 
ATOM     59  H47 non d ame     -12.489  12.243  68.457  0.00  0.00     0.082 H 
ATOM     60  H48 non d ame     -12.333  10.995  69.863  0.00  0.00     0.082 H 
BRANCH  58  61
ATOM     61  C35 non d ame     -12.515  13.064  70.455  0.00  0.00    -0.034 A 
ATOM     62  C30 non d ame     -13.105  12.705  71.663  0.00  0.00    -0.075 A 
ATOM     63  C31 non d ame     -13.479  13.688  72.577  0.00  0.00    -0.082 A 
ATOM     64  H49 non d ame     -13.274  11.652  71.893  0.00  0.00     0.084 H 
ATOM     65  C32 non d ame     -13.265  15.036  72.279  0.00  0.00    -0.083 A 
ATOM     66  H50 non d ame     -13.938  13.403  73.524  0.00  0.00     0.083 H 
ATOM     67  C33 non d ame     -12.679  15.391  71.071  0.00  0.00    -0.082 A 
ATOM     68  H51 non d ame     -13.553  15.811  72.989  0.00  0.00     0.083 H 
ATOM     69  C34 non d ame     -12.302  14.410  70.155  0.00  0.00    -0.075 A 
ATOM     70  H52 non d ame     -12.515  16.444  70.841  0.00  0.00     0.083 H 
ATOM     71  H53 non d ame     -11.841  14.697  69.209  0.00  0.00     0.084 H 
ENDBRANCH  58  61
ENDBRANCH  57  58
ENDBRANCH  55  57
ENDBRANCH  52  55
ENDBRANCH  49  52
ENDBRANCH  47  49
BRANCH  47  72
ATOM     72  C24 non d ame      -6.032  11.545  70.217  0.00  0.00    -0.039 C 
ATOM     73  H35 non d ame      -6.737  12.082  70.852  0.00  0.00     0.036 H 
ATOM     74  H36 non d ame      -5.982  10.456  70.260  0.00  0.00     0.036 H 
BRANCH  72  75
ATOM     75  C25 non d ame      -4.569  12.099  70.560  0.00  0.00    -0.001 C 
ATOM     76  C26 non d ame      -3.677  10.918  71.275  0.00  0.00    -0.035 C 
ATOM     77  C27 non d ame      -3.142  11.408  72.419  0.00  0.00     0.085 C 
ATOM     78  H38 non d ame      -4.327  10.115  71.621  0.00  0.00     0.036 H 
ATOM     79  H39 non d ame      -2.804  10.687  70.665  0.00  0.00     0.036 H 
ATOM     80  N5  non d ame      -3.852  12.707  72.717  0.00  0.00    -0.049 N 
ATOM     81  H40 non d ame      -3.392  10.681  73.193  0.00  0.00     0.075 H 
ATOM     82  H41 non d ame      -2.099  11.619  72.186  0.00  0.00     0.075 H 
ATOM     83  C28 non d ame      -4.627  13.111  71.360  0.00  0.00     0.193 C 
ATOM     84  H42 non d ame      -4.536  12.502  73.430  0.00  0.00     0.280 HD
ATOM     85  H43 non d ame      -3.131  13.393  72.891  0.00  0.00     0.280 HD
ATOM     86  H44 non d ame      -4.241  13.898  70.714  0.00  0.00     0.129 H 
ATOM     87  H37 non d ame      -4.117  12.620  69.715  0.00  0.00     0.046 H 
BRANCH  83  88
ATOM     88  O6  non d ame      -5.974  13.487  71.655  0.00  0.00    -0.369 OA
ATOM     89  H45 non d ame      -5.983  14.075  72.415  0.00  0.00     0.212 HD
ENDBRANCH  83  88
ENDBRANCH  72  75
ENDBRANCH  47  72
ENDBRANCH  45  47
ENDBRANCH   1  43
BRANCH   1  90
ATOM     90  C16 non d ame      -5.560  16.391  68.993  0.00  0.00    -0.035 C 
ATOM     91  H21 non d ame      -6.313  17.166  69.142  0.00  0.00     0.037 H 
ATOM     92  H22 non d ame      -5.444  15.595  69.729  0.00  0.00     0.037 H 
BRANCH  90  93
ATOM     93  C17 non d ame      -4.183  17.124  68.915  0.00  0.00    -0.059 C 
ATOM     94  H23 non d ame      -4.298  18.095  69.395  0.00  0.00     0.038 H 
BRANCH  93  95
ATOM     95  C18 non d ame      -3.058  16.349  69.674  0.00  0.00    -0.073 C 
ATOM     96  H24 non d ame      -2.915  15.372  69.212  0.00  0.00     0.028 H 
ATOM     97  H25 non d ame      -2.129  16.916  69.623  0.00  0.00     0.028 H 
ATOM     98  H26 non d ame      -3.348  16.219  70.717  0.00  0.00     0.028 H 
ENDBRANCH  93  95
BRANCH  93  99
ATOM     99  C19 non d ame      -3.781  17.380  67.460  0.00  0.00    -0.073 C 
ATOM    100  H27 non d ame      -3.657  18.452  67.301  0.00  0.00     0.028 H 
ATOM    101  H28 non d ame      -2.841  16.870  67.249  0.00  0.00     0.028 H 
ATOM    102  H29 non d ame      -4.557  17.000  66.796  0.00  0.00     0.028 H 
ENDBRANCH  93  99
ENDBRANCH  90  93
ENDBRANCH   1  90
TORSDOF 26
ENDMDL
MODEL 16
REMARK VINA RESULT:      -6.4      2.646      7.309
REMARK  26 active torsions:
REMARK  status: ('A' for Active; 'I' for Inactive)
REMARK    1  A    between atoms: C2_2  and  C3_3 
REMARK    2  A    between atoms: C4_6  and  C5_7 
REMARK       I    between atoms: C5_7  and  N2_9 
REMARK    3  A    between atoms: N2_9  and  C6_10 
REMARK    4  A    between atoms: C6_10  and  C7_11 
REMARK    5  A    between atoms: C6_10  and  C8_13 
REMARK       I    between atoms: C7_11  and  N3_14 
REMARK    6  A    between atoms: N3_14  and  C9_15 
REMARK    7  A    between atoms: C9_15  and  C10_16 
REMARK    8  A    between atoms: C9_15  and  C11_18 
REMARK       I    between atoms: C10_16  and  N4_21 
REMARK    9  A    between atoms: C11_18  and  C12_19 
REMARK   10  A    between atoms: C11_18  and  C13_20 
REMARK   11  A    between atoms: N4_21  and  C14_22 
REMARK   12  A    between atoms: C14_22  and  C15_23 
REMARK   13  A    between atoms: C14_22  and  C16_25 
REMARK       I    between atoms: C15_23  and  N6_40 
REMARK   14  A    between atoms: C16_25  and  C17_26 
REMARK   15  A    between atoms: C17_26  and  C18_27 
REMARK   16  A    between atoms: C17_26  and  C19_28 
REMARK   17  A    between atoms: C20_29  and  C21_30 
REMARK   18  A    between atoms: C20_29  and  C24_33 
REMARK   19  A    between atoms: C20_29  and  N6_40 
REMARK   20  A    between atoms: C21_30  and  C22_31 
REMARK   21  A    between atoms: C22_31  and  C23_32 
REMARK   22  A    between atoms: C23_32  and  O8_43 
REMARK   23  A    between atoms: C24_33  and  C25_34 
REMARK   24  A    between atoms: C28_38  and  O6_39 
REMARK   25  A    between atoms: C29_42  and  O8_43 
REMARK   26  A    between atoms: C29_42  and  C35_49 
ROOT
ATOM      1  C14 non d ame      -7.050  13.174  68.154  0.00  0.00     0.089 C 
ATOM      2  H20 non d ame      -6.303  13.003  67.377  0.00  0.00     0.087 H 
ENDROOT
BRANCH   1   3
ATOM      3  N4  non d ame      -7.250  14.611  68.260  0.00  0.00    -0.346 N 
ATOM      4  C10 non d ame      -6.181  15.566  67.789  0.00  0.00     0.241 C 
ATOM      5  O4  non d ame      -5.167  15.153  67.330  0.00  0.00    -0.271 OA
ATOM      6  H19 non d ame      -8.118  14.943  68.655  0.00  0.00     0.163 HD
BRANCH   4   7
ATOM      7  C9  non d ame      -6.406  17.051  67.901  0.00  0.00     0.092 C 
ATOM      8  H11 non d ame      -6.071  17.536  66.984  0.00  0.00     0.088 H 
BRANCH   7   9
ATOM      9  N3  non d ame      -7.842  17.319  68.032  0.00  0.00    -0.346 N 
ATOM     10  C7  non d ame      -8.611  17.704  66.875  0.00  0.00     0.240 C 
ATOM     11  O3  non d ame      -8.092  17.805  65.831  0.00  0.00    -0.271 OA
ATOM     12  H10 non d ame      -8.304  17.237  68.927  0.00  0.00     0.163 HD
BRANCH  10  13
ATOM     13  C6  non d ame     -10.138  17.991  67.021  0.00  0.00     0.086 C 
ATOM     14  H6  non d ame     -10.737  17.483  66.266  0.00  0.00     0.086 H 
BRANCH  13  15
ATOM     15  N2  non d ame     -10.589  17.497  68.312  0.00  0.00    -0.343 N 
ATOM     16  C5  non d ame     -11.230  16.183  68.399  0.00  0.00     0.273 C 
ATOM     17  O2  non d ame     -11.381  15.534  67.424  0.00  0.00    -0.266 OA
ATOM     18  H5  non d ame     -10.458  18.061  69.140  0.00  0.00     0.163 HD
BRANCH  16  19
ATOM     19  C4  non d ame     -11.710  15.649  69.757  0.00  0.00     0.154 A 
ATOM     20  C1  non d ame     -12.356  14.398  70.015  0.00  0.00    -0.017 A 
ATOM     21  C2  non d ame     -12.587  14.389  71.408  0.00  0.00     0.077 A 
ATOM     22  H1  non d ame     -12.616  13.617  69.301  0.00  0.00     0.091 H 
ATOM     23  O1  non d ame     -12.123  15.507  71.885  0.00  0.00    -0.218 OA
ATOM     24  N1  non d ame     -11.606  16.259  70.941  0.00  0.00    -0.123 NA
BRANCH  21  25
ATOM     25  C3  non d ame     -13.254  13.275  72.204  0.00  0.00    -0.029 C 
ATOM     26  H2  non d ame     -12.507  12.536  72.492  0.00  0.00     0.036 H 
ATOM     27  H3  non d ame     -13.715  13.693  73.098  0.00  0.00     0.036 H 
ATOM     28  H4  non d ame     -14.020  12.798  71.590  0.00  0.00     0.036 H 
ENDBRANCH  21  25
ENDBRANCH  16  19
ENDBRANCH  13  15
BRANCH  13  29
ATOM     29  C8  non d ame     -10.386  19.475  66.921  0.00  0.00    -0.049 C 
ATOM     30  H7  non d ame      -9.966  19.973  67.796  0.00  0.00     0.030 H 
ATOM     31  H8  non d ame      -9.912  19.864  66.020  0.00  0.00     0.030 H 
ATOM     32  H9  non d ame     -11.459  19.662  66.878  0.00  0.00     0.030 H 
ENDBRANCH  13  29
ENDBRANCH  10  13
ENDBRANCH   7   9
BRANCH   7  33
ATOM     33  C11 non d ame      -5.663  17.595  69.156  0.00  0.00    -0.033 C 
ATOM     34  H12 non d ame      -5.717  16.828  69.928  0.00  0.00     0.042 H 
BRANCH  33  35
ATOM     35  C12 non d ame      -4.154  17.854  68.855  0.00  0.00    -0.071 C 
ATOM     36  H13 non d ame      -3.794  17.115  68.139  0.00  0.00     0.028 H 
ATOM     37  H14 non d ame      -4.033  18.853  68.439  0.00  0.00     0.028 H 
ATOM     38  H15 non d ame      -3.582  17.773  69.779  0.00  0.00     0.028 H 
ENDBRANCH  33  35
BRANCH  33  39
ATOM     39  C13 non d ame      -6.359  18.882  69.704  0.00  0.00    -0.071 C 
ATOM     40  H16 non d ame      -7.433  18.816  69.532  0.00  0.00     0.028 H 
ATOM     41  H17 non d ame      -6.168  18.970  70.775  0.00  0.00     0.028 H 
ATOM     42  H18 non d ame      -5.961  19.757  69.191  0.00  0.00     0.028 H 
ENDBRANCH  33  39
ENDBRANCH   7  33
ENDBRANCH   4   7
ENDBRANCH   1   3
BRANCH   1  43
ATOM     43  C15 non d ame      -8.414  12.509  67.814  0.00  0.00     0.240 C 
ATOM     44  O5  non d ame      -9.425  13.013  68.181  0.00  0.00    -0.271 OA
ATOM     45  N6  non d ame      -8.460  11.246  67.021  0.00  0.00    -0.355 N 
ATOM     46  H46 non d ame      -7.607  10.812  66.701  0.00  0.00     0.162 HD
BRANCH  45  47
ATOM     47  C20 non d ame      -9.765  10.627  66.706  0.00  0.00     0.013 C 
ATOM     48  H30 non d ame     -10.544  11.223  67.181  0.00  0.00     0.072 H 
BRANCH  47  49
ATOM     49  C21 non d ame      -9.793   9.216  67.248  0.00  0.00    -0.038 C 
ATOM     50  H31 non d ame     -10.309   9.279  68.206  0.00  0.00     0.036 H 
ATOM     51  H32 non d ame     -10.203   8.601  66.447  0.00  0.00     0.036 H 
BRANCH  49  52
ATOM     52  C22 non d ame      -8.383   8.661  67.547  0.00  0.00     0.018 C 
ATOM     53  H33 non d ame      -7.768   9.529  67.784  0.00  0.00     0.048 H 
ATOM     54  H34 non d ame      -8.526   7.876  68.289  0.00  0.00     0.048 H 
BRANCH  52  55
ATOM     55  C23 non d ame      -7.707   7.978  66.325  0.00  0.00     0.259 C 
ATOM     56  O7  non d ame      -6.987   8.597  65.611  0.00  0.00    -0.265 OA
BRANCH  55  57
ATOM     57  O8  non d ame      -7.969   6.605  66.061  0.00  0.00    -0.317 OA
BRANCH  57  58
ATOM     58  C29 non d ame      -7.466   6.149  64.802  0.00  0.00     0.052 C 
ATOM     59  H47 non d ame      -7.353   7.042  64.188  0.00  0.00     0.082 H 
ATOM     60  H48 non d ame      -6.596   5.536  65.037  0.00  0.00     0.082 H 
BRANCH  58  61
ATOM     61  C35 non d ame      -8.546   5.241  64.155  0.00  0.00    -0.034 A 
ATOM     62  C30 non d ame      -9.514   4.635  64.949  0.00  0.00    -0.075 A 
ATOM     63  C31 non d ame     -10.484   3.820  64.368  0.00  0.00    -0.082 A 
ATOM     64  H49 non d ame      -9.513   4.800  66.027  0.00  0.00     0.084 H 
ATOM     65  C32 non d ame     -10.481   3.608  62.987  0.00  0.00    -0.083 A 
ATOM     66  H50 non d ame     -11.243   3.349  64.994  0.00  0.00     0.083 H 
ATOM     67  C33 non d ame      -9.510   4.211  62.199  0.00  0.00    -0.082 A 
ATOM     68  H51 non d ame     -11.236   2.972  62.525  0.00  0.00     0.083 H 
ATOM     69  C34 non d ame      -8.541   5.029  62.775  0.00  0.00    -0.075 A 
ATOM     70  H52 non d ame      -9.510   4.042  61.121  0.00  0.00     0.083 H 
ATOM     71  H53 non d ame      -7.782   5.500  62.149  0.00  0.00     0.084 H 
ENDBRANCH  58  61
ENDBRANCH  57  58
ENDBRANCH  55  57
ENDBRANCH  52  55
ENDBRANCH  49  52
ENDBRANCH  47  49
BRANCH  47  72
ATOM     72  C24 non d ame      -9.969  10.596  65.192  0.00  0.00    -0.039 C 
ATOM     73  H35 non d ame      -8.983  10.396  64.771  0.00  0.00     0.036 H 
ATOM     74  H36 non d ame     -10.786   9.894  65.024  0.00  0.00     0.036 H 
BRANCH  72  75
ATOM     75  C25 non d ame     -10.443  12.019  64.628  0.00  0.00    -0.001 C 
ATOM     76  C26 non d ame     -11.777  12.527  65.445  0.00  0.00    -0.035 C 
ATOM     77  C27 non d ame     -12.732  12.870  64.547  0.00  0.00     0.085 C 
ATOM     78  H38 non d ame     -12.224  11.695  65.987  0.00  0.00     0.036 H 
ATOM     79  H39 non d ame     -11.565  13.463  65.961  0.00  0.00     0.036 H 
ATOM     80  N5  non d ame     -12.291  12.334  63.206  0.00  0.00    -0.049 N 
ATOM     81  H40 non d ame     -13.632  12.341  64.863  0.00  0.00     0.075 H 
ATOM     82  H41 non d ame     -12.723  13.959  64.514  0.00  0.00     0.075 H 
ATOM     83  C28 non d ame     -10.732  11.952  63.372  0.00  0.00     0.193 C 
ATOM     84  H42 non d ame     -12.816  11.485  63.051  0.00  0.00     0.280 HD
ATOM     85  H43 non d ame     -12.366  13.100  62.553  0.00  0.00     0.280 HD
ATOM     86  H44 non d ame      -9.956  12.594  62.955  0.00  0.00     0.129 H 
ATOM     87  H37 non d ame      -9.616  12.724  64.541  0.00  0.00     0.046 H 
BRANCH  83  88
ATOM     88  O6  non d ame     -10.482  10.653  62.831  0.00  0.00    -0.369 OA
ATOM     89  H45 non d ame     -10.093  10.094  63.508  0.00  0.00     0.212 HD
ENDBRANCH  83  88
ENDBRANCH  72  75
ENDBRANCH  47  72
ENDBRANCH  45  47
ENDBRANCH   1  43
BRANCH   1  90
ATOM     90  C16 non d ame      -6.540  12.645  69.484  0.00  0.00    -0.035 C 
ATOM     91  H21 non d ame      -5.911  13.439  69.889  0.00  0.00     0.037 H 
ATOM     92  H22 non d ame      -7.428  12.324  70.027  0.00  0.00     0.037 H 
BRANCH  90  93
ATOM     93  C17 non d ame      -5.626  11.385  69.349  0.00  0.00    -0.059 C 
ATOM     94  H23 non d ame      -6.247  10.563  68.992  0.00  0.00     0.038 H 
BRANCH  93  95
ATOM     95  C18 non d ame      -4.477  11.599  68.313  0.00  0.00    -0.073 C 
ATOM     96  H24 non d ame      -4.522  10.817  67.554  0.00  0.00     0.028 H 
ATOM     97  H25 non d ame      -4.592  12.573  67.839  0.00  0.00     0.028 H 
ATOM     98  H26 non d ame      -3.515  11.554  68.824  0.00  0.00     0.028 H 
ENDBRANCH  93  95
BRANCH  93  99
ATOM     99  C19 non d ame      -5.062  10.970  70.711  0.00  0.00    -0.073 C 
ATOM    100  H27 non d ame      -4.399  10.113  70.583  0.00  0.00     0.028 H 
ATOM    101  H28 non d ame      -4.504  11.802  71.140  0.00  0.00     0.028 H 
ATOM    102  H29 non d ame      -5.881  10.700  71.377  0.00  0.00     0.028 H 
ENDBRANCH  93  99
ENDBRANCH  90  93
ENDBRANCH   1  90
TORSDOF 26
ENDMDL
MODEL 17
REMARK VINA RESULT:      -6.4      4.164     10.370
REMARK  26 active torsions:
REMARK  status: ('A' for Active; 'I' for Inactive)
REMARK    1  A    between atoms: C2_2  and  C3_3 
REMARK    2  A    between atoms: C4_6  and  C5_7 
REMARK       I    between atoms: C5_7  and  N2_9 
REMARK    3  A    between atoms: N2_9  and  C6_10 
REMARK    4  A    between atoms: C6_10  and  C7_11 
REMARK    5  A    between atoms: C6_10  and  C8_13 
REMARK       I    between atoms: C7_11  and  N3_14 
REMARK    6  A    between atoms: N3_14  and  C9_15 
REMARK    7  A    between atoms: C9_15  and  C10_16 
REMARK    8  A    between atoms: C9_15  and  C11_18 
REMARK       I    between atoms: C10_16  and  N4_21 
REMARK    9  A    between atoms: C11_18  and  C12_19 
REMARK   10  A    between atoms: C11_18  and  C13_20 
REMARK   11  A    between atoms: N4_21  and  C14_22 
REMARK   12  A    between atoms: C14_22  and  C15_23 
REMARK   13  A    between atoms: C14_22  and  C16_25 
REMARK       I    between atoms: C15_23  and  N6_40 
REMARK   14  A    between atoms: C16_25  and  C17_26 
REMARK   15  A    between atoms: C17_26  and  C18_27 
REMARK   16  A    between atoms: C17_26  and  C19_28 
REMARK   17  A    between atoms: C20_29  and  C21_30 
REMARK   18  A    between atoms: C20_29  and  C24_33 
REMARK   19  A    between atoms: C20_29  and  N6_40 
REMARK   20  A    between atoms: C21_30  and  C22_31 
REMARK   21  A    between atoms: C22_31  and  C23_32 
REMARK   22  A    between atoms: C23_32  and  O8_43 
REMARK   23  A    between atoms: C24_33  and  C25_34 
REMARK   24  A    between atoms: C28_38  and  O6_39 
REMARK   25  A    between atoms: C29_42  and  O8_43 
REMARK   26  A    between atoms: C29_42  and  C35_49 
ROOT
ATOM      1  C14 non d ame      -8.507   6.221  64.490  0.00  0.00     0.089 C 
ATOM      2  H20 non d ame      -9.307   6.234  63.749  0.00  0.00     0.087 H 
ENDROOT
BRANCH   1   3
ATOM      3  N4  non d ame      -8.111   7.600  64.733  0.00  0.00    -0.346 N 
ATOM      4  C10 non d ame      -8.210   8.626  63.631  0.00  0.00     0.241 C 
ATOM      5  O4  non d ame      -8.608   8.316  62.556  0.00  0.00    -0.271 OA
ATOM      6  H19 non d ame      -7.772   7.843  65.653  0.00  0.00     0.163 HD
BRANCH   4   7
ATOM      7  C9  non d ame      -7.801  10.050  63.901  0.00  0.00     0.092 C 
ATOM      8  H11 non d ame      -7.552  10.537  62.958  0.00  0.00     0.088 H 
BRANCH   7   9
ATOM      9  N3  non d ame      -8.932  10.782  64.480  0.00  0.00    -0.346 N 
ATOM     10  C7  non d ame      -9.877  11.446  63.619  0.00  0.00     0.240 C 
ATOM     11  O3  non d ame      -9.745  11.404  62.457  0.00  0.00    -0.271 OA
ATOM     12  H10 non d ame      -9.059  10.828  65.481  0.00  0.00     0.163 HD
BRANCH  10  13
ATOM     13  C6  non d ame     -11.077  12.226  64.242  0.00  0.00     0.086 C 
ATOM     14  H6  non d ame     -11.314  11.898  65.254  0.00  0.00     0.086 H 
BRANCH  13  15
ATOM     15  N2  non d ame     -10.727  13.634  64.333  0.00  0.00    -0.343 N 
ATOM     16  C5  non d ame     -11.272  14.445  65.425  0.00  0.00     0.273 C 
ATOM     17  O2  non d ame     -11.994  13.955  66.222  0.00  0.00    -0.266 OA
ATOM     18  H5  non d ame     -10.112  14.045  63.645  0.00  0.00     0.163 HD
BRANCH  16  19
ATOM     19  C4  non d ame     -10.910  15.934  65.533  0.00  0.00     0.154 A 
ATOM     20  C1  non d ame     -10.157  16.567  66.573  0.00  0.00    -0.017 A 
ATOM     21  C2  non d ame     -10.106  17.930  66.205  0.00  0.00     0.077 A 
ATOM     22  H1  non d ame      -9.715  16.108  67.457  0.00  0.00     0.091 H 
ATOM     23  O1  non d ame     -10.754  18.054  65.084  0.00  0.00    -0.218 OA
ATOM     24  N1  non d ame     -11.232  16.902  64.672  0.00  0.00    -0.123 NA
BRANCH  21  25
ATOM     25  C3  non d ame      -9.416  19.047  66.978  0.00  0.00    -0.029 C 
ATOM     26  H2  non d ame      -9.039  18.655  67.923  0.00  0.00     0.036 H 
ATOM     27  H3  non d ame      -8.587  19.438  66.390  0.00  0.00     0.036 H 
ATOM     28  H4  non d ame     -10.131  19.847  67.176  0.00  0.00     0.036 H 
ENDBRANCH  21  25
ENDBRANCH  16  19
ENDBRANCH  13  15
BRANCH  13  29
ATOM     29  C8  non d ame     -12.298  12.053  63.375  0.00  0.00    -0.049 C 
ATOM     30  H7  non d ame     -13.013  12.848  63.591  0.00  0.00     0.030 H 
ATOM     31  H8  non d ame     -12.009  12.099  62.326  0.00  0.00     0.030 H 
ATOM     32  H9  non d ame     -12.758  11.087  63.584  0.00  0.00     0.030 H 
ENDBRANCH  13  29
ENDBRANCH  10  13
ENDBRANCH   7   9
BRANCH   7  33
ATOM     33  C11 non d ame      -6.608  10.066  64.900  0.00  0.00    -0.033 C 
ATOM     34  H12 non d ame      -6.413   9.037  65.197  0.00  0.00     0.042 H 
BRANCH  33  35
ATOM     35  C12 non d ame      -5.311  10.616  64.229  0.00  0.00    -0.071 C 
ATOM     36  H13 non d ame      -5.479  10.738  63.159  0.00  0.00     0.028 H 
ATOM     37  H14 non d ame      -5.055  11.580  64.668  0.00  0.00     0.028 H 
ATOM     38  H15 non d ame      -4.494   9.914  64.390  0.00  0.00     0.028 H 
ENDBRANCH  33  35
BRANCH  33  39
ATOM     39  C13 non d ame      -6.967  10.879  66.186  0.00  0.00    -0.071 C 
ATOM     40  H16 non d ame      -6.988  11.942  65.949  0.00  0.00     0.028 H 
ATOM     41  H17 non d ame      -7.947  10.569  66.550  0.00  0.00     0.028 H 
ATOM     42  H18 non d ame      -6.218  10.692  66.955  0.00  0.00     0.028 H 
ENDBRANCH  33  39
ENDBRANCH   7  33
ENDBRANCH   4   7
ENDBRANCH   1   3
BRANCH   1  43
ATOM     43  C15 non d ame      -8.963   5.593  65.837  0.00  0.00     0.240 C 
ATOM     44  O5  non d ame      -9.959   4.947  65.882  0.00  0.00    -0.271 OA
ATOM     45  N6  non d ame      -8.153   5.791  67.073  0.00  0.00    -0.355 N 
ATOM     46  H46 non d ame      -7.303   6.334  67.047  0.00  0.00     0.162 HD
BRANCH  45  47
ATOM     47  C20 non d ame      -8.600   5.187  68.347  0.00  0.00     0.013 C 
ATOM     48  H30 non d ame      -9.294   4.380  68.111  0.00  0.00     0.072 H 
BRANCH  47  49
ATOM     49  C21 non d ame      -9.295   6.238  69.182  0.00  0.00    -0.038 C 
ATOM     50  H31 non d ame      -8.667   6.379  70.061  0.00  0.00     0.036 H 
ATOM     51  H32 non d ame      -9.485   7.073  68.507  0.00  0.00     0.036 H 
BRANCH  49  52
ATOM     52  C22 non d ame     -10.674   5.774  69.701  0.00  0.00     0.018 C 
ATOM     53  H33 non d ame     -11.320   6.651  69.648  0.00  0.00     0.048 H 
ATOM     54  H34 non d ame     -10.920   4.881  69.128  0.00  0.00     0.048 H 
BRANCH  52  55
ATOM     55  C23 non d ame     -10.667   5.338  71.193  0.00  0.00     0.259 C 
ATOM     56  O7  non d ame     -10.114   4.341  71.527  0.00  0.00    -0.265 OA
BRANCH  55  57
ATOM     57  O8  non d ame     -11.342   6.139  72.156  0.00  0.00    -0.317 OA
BRANCH  57  58
ATOM     58  C29 non d ame     -10.642   7.336  72.511  0.00  0.00     0.052 C 
ATOM     59  H47 non d ame     -10.727   7.416  73.594  0.00  0.00     0.082 H 
ATOM     60  H48 non d ame      -9.660   7.251  72.046  0.00  0.00     0.082 H 
BRANCH  58  61
ATOM     61  C35 non d ame     -11.389   8.535  71.868  0.00  0.00    -0.034 A 
ATOM     62  C30 non d ame     -12.711   8.798  72.210  0.00  0.00    -0.075 A 
ATOM     63  C31 non d ame     -13.381   9.875  71.632  0.00  0.00    -0.082 A 
ATOM     64  H49 non d ame     -13.222   8.161  72.933  0.00  0.00     0.084 H 
ATOM     65  C32 non d ame     -12.725  10.689  70.705  0.00  0.00    -0.083 A 
ATOM     66  H50 non d ame     -14.416  10.081  71.906  0.00  0.00     0.083 H 
ATOM     67  C33 non d ame     -11.406  10.420  70.363  0.00  0.00    -0.082 A 
ATOM     68  H51 non d ame     -13.241  11.533  70.249  0.00  0.00     0.083 H 
ATOM     69  C34 non d ame     -10.732   9.346  70.940  0.00  0.00    -0.075 A 
ATOM     70  H52 non d ame     -10.898  11.056  69.637  0.00  0.00     0.083 H 
ATOM     71  H53 non d ame      -9.696   9.142  70.667  0.00  0.00     0.084 H 
ENDBRANCH  58  61
ENDBRANCH  57  58
ENDBRANCH  55  57
ENDBRANCH  52  55
ENDBRANCH  49  52
ENDBRANCH  47  49
BRANCH  47  72
ATOM     72  C24 non d ame      -7.394   4.643  69.111  0.00  0.00    -0.039 C 
ATOM     73  H35 non d ame      -6.523   4.937  68.525  0.00  0.00     0.036 H 
ATOM     74  H36 non d ame      -7.510   5.006  70.133  0.00  0.00     0.036 H 
BRANCH  72  75
ATOM     75  C25 non d ame      -7.404   3.043  69.174  0.00  0.00    -0.001 C 
ATOM     76  C26 non d ame      -8.741   2.461  68.414  0.00  0.00    -0.035 C 
ATOM     77  C27 non d ame      -9.370   1.593  69.243  0.00  0.00     0.085 C 
ATOM     78  H38 non d ame      -9.471   3.258  68.278  0.00  0.00     0.036 H 
ATOM     79  H39 non d ame      -8.450   1.839  67.568  0.00  0.00     0.036 H 
ATOM     80  N5  non d ame      -8.769   1.779  70.615  0.00  0.00    -0.049 N 
ATOM     81  H40 non d ame     -10.412   1.915  69.265  0.00  0.00     0.075 H 
ATOM     82  H41 non d ame      -9.114   0.601  68.874  0.00  0.00     0.075 H 
ATOM     83  C28 non d ame      -7.410   2.622  70.395  0.00  0.00     0.193 C 
ATOM     84  H42 non d ame      -9.419   2.347  71.138  0.00  0.00     0.280 HD
ATOM     85  H43 non d ame      -8.524   0.857  70.947  0.00  0.00     0.280 HD
ATOM     86  H44 non d ame      -6.439   2.130  70.440  0.00  0.00     0.129 H 
ATOM     87  H37 non d ame      -6.444   2.613  68.887  0.00  0.00     0.046 H 
BRANCH  83  88
ATOM     88  O6  non d ame      -7.338   3.696  71.335  0.00  0.00    -0.369 OA
ATOM     89  H45 non d ame      -6.564   3.581  71.892  0.00  0.00     0.212 HD
ENDBRANCH  83  88
ENDBRANCH  72  75
ENDBRANCH  47  72
ENDBRANCH  45  47
ENDBRANCH   1  43
BRANCH   1  90
ATOM     90  C16 non d ame      -7.314   5.451  63.945  0.00  0.00    -0.035 C 
ATOM     91  H21 non d ame      -7.389   4.455  64.383  0.00  0.00     0.037 H 
ATOM     92  H22 non d ame      -7.361   5.575  62.863  0.00  0.00     0.037 H 
BRANCH  90  93
ATOM     93  C17 non d ame      -5.936   6.029  64.397  0.00  0.00    -0.059 C 
ATOM     94  H23 non d ame      -6.132   6.880  65.049  0.00  0.00     0.038 H 
BRANCH  93  95
ATOM     95  C18 non d ame      -5.098   4.990  65.209  0.00  0.00    -0.073 C 
ATOM     96  H24 non d ame      -4.772   5.440  66.147  0.00  0.00     0.028 H 
ATOM     97  H25 non d ame      -5.713   4.115  65.421  0.00  0.00     0.028 H 
ATOM     98  H26 non d ame      -4.227   4.690  64.626  0.00  0.00     0.028 H 
ENDBRANCH  93  95
BRANCH  93  99
ATOM     99  C19 non d ame      -5.141   6.551  63.197  0.00  0.00    -0.073 C 
ATOM    100  H27 non d ame      -4.159   6.075  63.177  0.00  0.00     0.028 H 
ATOM    101  H28 non d ame      -5.678   6.317  62.278  0.00  0.00     0.028 H 
ATOM    102  H29 non d ame      -5.021   7.631  63.282  0.00  0.00     0.028 H 
ENDBRANCH  93  99
ENDBRANCH  90  93
ENDBRANCH   1  90
TORSDOF 26
ENDMDL
MODEL 18
REMARK VINA RESULT:      -6.4      3.284      5.637
REMARK  26 active torsions:
REMARK  status: ('A' for Active; 'I' for Inactive)
REMARK    1  A    between atoms: C2_2  and  C3_3 
REMARK    2  A    between atoms: C4_6  and  C5_7 
REMARK       I    between atoms: C5_7  and  N2_9 
REMARK    3  A    between atoms: N2_9  and  C6_10 
REMARK    4  A    between atoms: C6_10  and  C7_11 
REMARK    5  A    between atoms: C6_10  and  C8_13 
REMARK       I    between atoms: C7_11  and  N3_14 
REMARK    6  A    between atoms: N3_14  and  C9_15 
REMARK    7  A    between atoms: C9_15  and  C10_16 
REMARK    8  A    between atoms: C9_15  and  C11_18 
REMARK       I    between atoms: C10_16  and  N4_21 
REMARK    9  A    between atoms: C11_18  and  C12_19 
REMARK   10  A    between atoms: C11_18  and  C13_20 
REMARK   11  A    between atoms: N4_21  and  C14_22 
REMARK   12  A    between atoms: C14_22  and  C15_23 
REMARK   13  A    between atoms: C14_22  and  C16_25 
REMARK       I    between atoms: C15_23  and  N6_40 
REMARK   14  A    between atoms: C16_25  and  C17_26 
REMARK   15  A    between atoms: C17_26  and  C18_27 
REMARK   16  A    between atoms: C17_26  and  C19_28 
REMARK   17  A    between atoms: C20_29  and  C21_30 
REMARK   18  A    between atoms: C20_29  and  C24_33 
REMARK   19  A    between atoms: C20_29  and  N6_40 
REMARK   20  A    between atoms: C21_30  and  C22_31 
REMARK   21  A    between atoms: C22_31  and  C23_32 
REMARK   22  A    between atoms: C23_32  and  O8_43 
REMARK   23  A    between atoms: C24_33  and  C25_34 
REMARK   24  A    between atoms: C28_38  and  O6_39 
REMARK   25  A    between atoms: C29_42  and  O8_43 
REMARK   26  A    between atoms: C29_42  and  C35_49 
ROOT
ATOM      1  C14 non d ame     -10.142  10.454  68.216  0.00  0.00     0.089 C 
ATOM      2  H20 non d ame      -9.600  10.695  69.131  0.00  0.00     0.087 H 
ENDROOT
BRANCH   1   3
ATOM      3  N4  non d ame     -10.823   9.186  68.432  0.00  0.00    -0.346 N 
ATOM      4  C10 non d ame     -10.921   8.600  69.819  0.00  0.00     0.241 C 
ATOM      5  O4  non d ame     -10.440   9.167  70.745  0.00  0.00    -0.271 OA
ATOM      6  H19 non d ame     -11.224   8.718  67.631  0.00  0.00     0.163 HD
BRANCH   4   7
ATOM      7  C9  non d ame     -11.634   7.290  70.026  0.00  0.00     0.092 C 
ATOM      8  H11 non d ame     -12.456   7.212  69.314  0.00  0.00     0.088 H 
BRANCH   7   9
ATOM      9  N3  non d ame     -10.714   6.183  69.747  0.00  0.00    -0.346 N 
ATOM     10  C7  non d ame     -10.576   5.682  68.402  0.00  0.00     0.240 C 
ATOM     11  O3  non d ame     -11.198   6.157  67.531  0.00  0.00    -0.271 OA
ATOM     12  H10 non d ame     -10.171   5.762  70.488  0.00  0.00     0.163 HD
BRANCH  10  13
ATOM     13  C6  non d ame      -9.597   4.501  68.112  0.00  0.00     0.086 C 
ATOM     14  H6  non d ame      -9.898   3.906  67.250  0.00  0.00     0.086 H 
BRANCH  13  15
ATOM     15  N2  non d ame      -8.283   5.043  67.806  0.00  0.00    -0.343 N 
ATOM     16  C5  non d ame      -7.814   5.059  66.419  0.00  0.00     0.273 C 
ATOM     17  O2  non d ame      -8.500   4.631  65.557  0.00  0.00    -0.266 OA
ATOM     18  H5  non d ame      -7.703   5.404  68.549  0.00  0.00     0.163 HD
BRANCH  16  19
ATOM     19  C4  non d ame      -6.428   5.630  66.081  0.00  0.00     0.154 A 
ATOM     20  C1  non d ame      -5.912   6.916  66.439  0.00  0.00    -0.017 A 
ATOM     21  C2  non d ame      -4.608   6.947  65.895  0.00  0.00     0.077 A 
ATOM     22  H1  non d ame      -6.406   7.704  67.006  0.00  0.00     0.091 H 
ATOM     23  O1  non d ame      -4.409   5.808  65.300  0.00  0.00    -0.218 OA
ATOM     24  N1  non d ame      -5.457   5.022  65.395  0.00  0.00    -0.123 NA
BRANCH  21  25
ATOM     25  C3  non d ame      -3.620   8.102  65.992  0.00  0.00    -0.029 C 
ATOM     26  H2  non d ame      -2.730   7.775  66.530  0.00  0.00     0.036 H 
ATOM     27  H3  non d ame      -3.340   8.426  64.990  0.00  0.00     0.036 H 
ATOM     28  H4  non d ame      -4.082   8.933  66.526  0.00  0.00     0.036 H 
ENDBRANCH  21  25
ENDBRANCH  16  19
ENDBRANCH  13  15
BRANCH  13  29
ATOM     29  C8  non d ame      -9.517   3.603  69.320  0.00  0.00    -0.049 C 
ATOM     30  H7  non d ame      -9.825   2.594  69.043  0.00  0.00     0.030 H 
ATOM     31  H8  non d ame      -8.493   3.582  69.690  0.00  0.00     0.030 H 
ATOM     32  H9  non d ame     -10.178   3.983  70.099  0.00  0.00     0.030 H 
ENDBRANCH  13  29
ENDBRANCH  10  13
ENDBRANCH   7   9
BRANCH   7  33
ATOM     33  C11 non d ame     -12.125   7.194  71.500  0.00  0.00    -0.033 C 
ATOM     34  H12 non d ame     -11.703   8.038  72.043  0.00  0.00     0.042 H 
BRANCH  33  35
ATOM     35  C12 non d ame     -13.679   7.308  71.590  0.00  0.00    -0.071 C 
ATOM     36  H13 non d ame     -13.952   7.853  72.493  0.00  0.00     0.028 H 
ATOM     37  H14 non d ame     -14.056   7.840  70.717  0.00  0.00     0.028 H 
ATOM     38  H15 non d ame     -14.113   6.309  71.623  0.00  0.00     0.028 H 
ENDBRANCH  33  35
BRANCH  33  39
ATOM     39  C13 non d ame     -11.614   5.881  72.175  0.00  0.00    -0.071 C 
ATOM     40  H16 non d ame     -10.581   6.015  72.495  0.00  0.00     0.028 H 
ATOM     41  H17 non d ame     -12.236   5.652  73.042  0.00  0.00     0.028 H 
ATOM     42  H18 non d ame     -11.671   5.059  71.461  0.00  0.00     0.028 H 
ENDBRANCH  33  39
ENDBRANCH   7  33
ENDBRANCH   4   7
ENDBRANCH   1   3
BRANCH   1  43
ATOM     43  C15 non d ame     -11.205  11.532  67.861  0.00  0.00     0.240 C 
ATOM     44  O5  non d ame     -12.341  11.364  68.164  0.00  0.00    -0.271 OA
ATOM     45  N6  non d ame     -10.803  12.780  67.151  0.00  0.00    -0.355 N 
ATOM     46  H46 non d ame      -9.840  12.936  66.893  0.00  0.00     0.162 HD
BRANCH  45  47
ATOM     47  C20 non d ame     -11.825  13.796  66.821  0.00  0.00     0.013 C 
ATOM     48  H30 non d ame     -12.663  13.665  67.506  0.00  0.00     0.072 H 
BRANCH  47  49
ATOM     49  C21 non d ame     -12.288  13.596  65.396  0.00  0.00    -0.038 C 
ATOM     50  H31 non d ame     -13.055  12.823  65.441  0.00  0.00     0.036 H 
ATOM     51  H32 non d ame     -12.538  14.591  65.025  0.00  0.00     0.036 H 
BRANCH  49  52
ATOM     52  C22 non d ame     -11.174  13.054  64.475  0.00  0.00     0.018 C 
ATOM     53  H33 non d ame     -10.929  13.870  63.794  0.00  0.00     0.048 H 
ATOM     54  H34 non d ame     -10.410  12.652  65.140  0.00  0.00     0.048 H 
BRANCH  52  55
ATOM     55  C23 non d ame     -11.626  11.869  63.576  0.00  0.00     0.259 C 
ATOM     56  O7  non d ame     -12.751  11.790  63.203  0.00  0.00    -0.265 OA
BRANCH  55  57
ATOM     57  O8  non d ame     -10.681  10.870  63.214  0.00  0.00    -0.317 OA
BRANCH  57  58
ATOM     58  C29 non d ame      -9.363  11.374  62.975  0.00  0.00     0.052 C 
ATOM     59  H47 non d ame      -9.388  11.803  61.975  0.00  0.00     0.082 H 
ATOM     60  H48 non d ame      -9.130  12.004  63.833  0.00  0.00     0.082 H 
BRANCH  58  61
ATOM     61  C35 non d ame      -8.384  10.170  62.970  0.00  0.00    -0.034 A 
ATOM     62  C30 non d ame      -7.120  10.302  62.404  0.00  0.00    -0.075 A 
ATOM     63  C31 non d ame      -6.241   9.220  62.399  0.00  0.00    -0.082 A 
ATOM     64  H49 non d ame      -6.818  11.253  61.964  0.00  0.00     0.084 H 
ATOM     65  C32 non d ame      -6.631   8.001  62.961  0.00  0.00    -0.083 A 
ATOM     66  H50 non d ame      -5.250   9.328  61.957  0.00  0.00     0.083 H 
ATOM     67  C33 non d ame      -7.895   7.873  63.522  0.00  0.00    -0.082 A 
ATOM     68  H51 non d ame      -5.949   7.151  62.962  0.00  0.00     0.083 H 
ATOM     69  C34 non d ame      -8.775   8.953  63.531  0.00  0.00    -0.075 A 
ATOM     70  H52 non d ame      -8.196   6.920  63.958  0.00  0.00     0.083 H 
ATOM     71  H53 non d ame      -9.766   8.844  63.974  0.00  0.00     0.084 H 
ENDBRANCH  58  61
ENDBRANCH  57  58
ENDBRANCH  55  57
ENDBRANCH  52  55
ENDBRANCH  49  52
ENDBRANCH  47  49
BRANCH  47  72
ATOM     72  C24 non d ame     -11.230  15.195  66.973  0.00  0.00    -0.039 C 
ATOM     73  H35 non d ame     -11.481  15.718  66.050  0.00  0.00     0.036 H 
ATOM     74  H36 non d ame     -11.603  15.567  67.928  0.00  0.00     0.036 H 
BRANCH  72  75
ATOM     75  C25 non d ame      -9.632  15.152  67.073  0.00  0.00    -0.001 C 
ATOM     76  C26 non d ame      -9.154  15.608  68.579  0.00  0.00    -0.035 C 
ATOM     77  C27 non d ame      -8.215  16.578  68.464  0.00  0.00     0.085 C 
ATOM     78  H38 non d ame      -9.973  16.105  69.098  0.00  0.00     0.036 H 
ATOM     79  H39 non d ame      -8.618  14.792  69.064  0.00  0.00     0.036 H 
ATOM     80  N5  non d ame      -8.248  17.055  67.032  0.00  0.00    -0.049 N 
ATOM     81  H40 non d ame      -8.550  17.386  69.115  0.00  0.00     0.075 H 
ATOM     82  H41 non d ame      -7.263  16.085  68.652  0.00  0.00     0.075 H 
ATOM     83  C28 non d ame      -9.087  15.946  66.213  0.00  0.00     0.193 C 
ATOM     84  H42 non d ame      -8.770  17.919  67.030  0.00  0.00     0.280 HD
ATOM     85  H43 non d ame      -7.293  17.041  66.704  0.00  0.00     0.280 HD
ATOM     86  H44 non d ame      -8.578  15.225  65.573  0.00  0.00     0.129 H 
ATOM     87  H37 non d ame      -9.219  14.223  66.682  0.00  0.00     0.046 H 
BRANCH  83  88
ATOM     88  O6  non d ame     -10.057  16.579  65.376  0.00  0.00    -0.369 OA
ATOM     89  H45 non d ame      -9.681  16.724  64.504  0.00  0.00     0.212 HD
ENDBRANCH  83  88
ENDBRANCH  72  75
ENDBRANCH  47  72
ENDBRANCH  45  47
ENDBRANCH   1  43
BRANCH   1  90
ATOM     90  C16 non d ame      -9.164  10.300  67.063  0.00  0.00    -0.035 C 
ATOM     91  H21 non d ame      -9.156   9.234  66.831  0.00  0.00     0.037 H 
ATOM     92  H22 non d ame      -9.489  11.019  66.311  0.00  0.00     0.037 H 
BRANCH  90  93
ATOM     93  C17 non d ame      -7.695  10.681  67.432  0.00  0.00    -0.059 C 
ATOM     94  H23 non d ame      -7.701  11.708  67.798  0.00  0.00     0.038 H 
BRANCH  93  95
ATOM     95  C18 non d ame      -7.118   9.775  68.566  0.00  0.00    -0.073 C 
ATOM     96  H24 non d ame      -6.029   9.769  68.508  0.00  0.00     0.028 H 
ATOM     97  H25 non d ame      -7.428  10.165  69.535  0.00  0.00     0.028 H 
ATOM     98  H26 non d ame      -7.494   8.759  68.445  0.00  0.00     0.028 H 
ENDBRANCH  93  95
BRANCH  93  99
ATOM     99  C19 non d ame      -6.793  10.646  66.195  0.00  0.00    -0.073 C 
ATOM    100  H27 non d ame      -5.749  10.605  66.508  0.00  0.00     0.028 H 
ATOM    101  H28 non d ame      -7.030   9.764  65.599  0.00  0.00     0.028 H 
ATOM    102  H29 non d ame      -6.960  11.542  65.598  0.00  0.00     0.028 H 
ENDBRANCH  93  99
ENDBRANCH  90  93
ENDBRANCH   1  90
TORSDOF 26
ENDMDL
MODEL 19
REMARK VINA RESULT:      -6.4      4.395      7.920
REMARK  26 active torsions:
REMARK  status: ('A' for Active; 'I' for Inactive)
REMARK    1  A    between atoms: C2_2  and  C3_3 
REMARK    2  A    between atoms: C4_6  and  C5_7 
REMARK       I    between atoms: C5_7  and  N2_9 
REMARK    3  A    between atoms: N2_9  and  C6_10 
REMARK    4  A    between atoms: C6_10  and  C7_11 
REMARK    5  A    between atoms: C6_10  and  C8_13 
REMARK       I    between atoms: C7_11  and  N3_14 
REMARK    6  A    between atoms: N3_14  and  C9_15 
REMARK    7  A    between atoms: C9_15  and  C10_16 
REMARK    8  A    between atoms: C9_15  and  C11_18 
REMARK       I    between atoms: C10_16  and  N4_21 
REMARK    9  A    between atoms: C11_18  and  C12_19 
REMARK   10  A    between atoms: C11_18  and  C13_20 
REMARK   11  A    between atoms: N4_21  and  C14_22 
REMARK   12  A    between atoms: C14_22  and  C15_23 
REMARK   13  A    between atoms: C14_22  and  C16_25 
REMARK       I    between atoms: C15_23  and  N6_40 
REMARK   14  A    between atoms: C16_25  and  C17_26 
REMARK   15  A    between atoms: C17_26  and  C18_27 
REMARK   16  A    between atoms: C17_26  and  C19_28 
REMARK   17  A    between atoms: C20_29  and  C21_30 
REMARK   18  A    between atoms: C20_29  and  C24_33 
REMARK   19  A    between atoms: C20_29  and  N6_40 
REMARK   20  A    between atoms: C21_30  and  C22_31 
REMARK   21  A    between atoms: C22_31  and  C23_32 
REMARK   22  A    between atoms: C23_32  and  O8_43 
REMARK   23  A    between atoms: C24_33  and  C25_34 
REMARK   24  A    between atoms: C28_38  and  O6_39 
REMARK   25  A    between atoms: C29_42  and  O8_43 
REMARK   26  A    between atoms: C29_42  and  C35_49 
ROOT
ATOM      1  C14 non d ame      -5.915   8.770  67.452  0.00  0.00     0.089 C 
ATOM      2  H20 non d ame      -5.165   9.271  68.066  0.00  0.00     0.087 H 
ENDROOT
BRANCH   1   3
ATOM      3  N4  non d ame      -6.077   7.421  67.974  0.00  0.00    -0.346 N 
ATOM      4  C10 non d ame      -5.812   7.131  69.431  0.00  0.00     0.241 C 
ATOM      5  O4  non d ame      -5.468   8.000  70.163  0.00  0.00    -0.271 OA
ATOM      6  H19 non d ame      -6.368   6.695  67.335  0.00  0.00     0.163 HD
BRANCH   4   7
ATOM      7  C9  non d ame      -5.990   5.730  69.956  0.00  0.00     0.092 C 
ATOM      8  H11 non d ame      -5.372   5.599  70.844  0.00  0.00     0.088 H 
BRANCH   7   9
ATOM      9  N3  non d ame      -7.384   5.535  70.366  0.00  0.00    -0.346 N 
ATOM     10  C7  non d ame      -7.716   5.441  71.766  0.00  0.00     0.240 C 
ATOM     11  O3  non d ame      -6.876   5.520  72.577  0.00  0.00    -0.271 OA
ATOM     12  H10 non d ame      -8.121   5.464  69.679  0.00  0.00     0.163 HD
BRANCH  10  13
ATOM     13  C6  non d ame      -9.202   5.230  72.196  0.00  0.00     0.086 C 
ATOM     14  H6  non d ame      -9.338   5.272  73.277  0.00  0.00     0.086 H 
BRANCH  13  15
ATOM     15  N2  non d ame     -10.012   6.297  71.633  0.00  0.00    -0.343 N 
ATOM     16  C5  non d ame     -10.374   7.446  72.466  0.00  0.00     0.273 C 
ATOM     17  O2  non d ame     -10.012   7.499  73.590  0.00  0.00    -0.266 OA
ATOM     18  H5  non d ame     -10.320   6.242  70.672  0.00  0.00     0.163 HD
BRANCH  16  19
ATOM     19  C4  non d ame     -11.229   8.581  71.883  0.00  0.00     0.154 A 
ATOM     20  C1  non d ame     -10.850   9.515  70.867  0.00  0.00    -0.017 A 
ATOM     21  C2  non d ame     -11.981  10.342  70.693  0.00  0.00     0.077 A 
ATOM     22  H1  non d ame      -9.899   9.582  70.337  0.00  0.00     0.091 H 
ATOM     23  O1  non d ame     -12.898   9.923  71.515  0.00  0.00    -0.218 OA
ATOM     24  N1  non d ame     -12.483   8.896  72.221  0.00  0.00    -0.123 NA
BRANCH  21  25
ATOM     25  C3  non d ame     -12.105  11.508  69.721  0.00  0.00    -0.029 C 
ATOM     26  H2  non d ame     -12.429  12.398  70.259  0.00  0.00     0.036 H 
ATOM     27  H3  non d ame     -11.138  11.697  69.255  0.00  0.00     0.036 H 
ATOM     28  H4  non d ame     -12.838  11.263  68.950  0.00  0.00     0.036 H 
ENDBRANCH  21  25
ENDBRANCH  16  19
ENDBRANCH  13  15
BRANCH  13  29
ATOM     29  C8  non d ame      -9.688   3.894  71.696  0.00  0.00    -0.049 C 
ATOM     30  H7  non d ame      -8.838   3.224  71.563  0.00  0.00     0.030 H 
ATOM     31  H8  non d ame     -10.380   3.464  72.419  0.00  0.00     0.030 H 
ATOM     32  H9  non d ame     -10.196   4.027  70.740  0.00  0.00     0.030 H 
ENDBRANCH  13  29
ENDBRANCH  10  13
ENDBRANCH   7   9
BRANCH   7  33
ATOM     33  C11 non d ame      -5.633   4.709  68.837  0.00  0.00    -0.033 C 
ATOM     34  H12 non d ame      -5.836   5.185  67.879  0.00  0.00     0.042 H 
BRANCH  33  35
ATOM     35  C12 non d ame      -4.116   4.340  68.867  0.00  0.00    -0.071 C 
ATOM     36  H13 non d ame      -4.005   3.278  69.084  0.00  0.00     0.028 H 
ATOM     37  H14 non d ame      -3.670   4.562  67.898  0.00  0.00     0.028 H 
ATOM     38  H15 non d ame      -3.618   4.923  69.640  0.00  0.00     0.028 H 
ENDBRANCH  33  35
BRANCH  33  39
ATOM     39  C13 non d ame      -6.527   3.431  68.940  0.00  0.00    -0.071 C 
ATOM     40  H16 non d ame      -6.081   2.627  68.355  0.00  0.00     0.028 H 
ATOM     41  H17 non d ame      -6.601   3.123  69.984  0.00  0.00     0.028 H 
ATOM     42  H18 non d ame      -7.523   3.652  68.556  0.00  0.00     0.028 H 
ENDBRANCH  33  39
ENDBRANCH   7  33
ENDBRANCH   4   7
ENDBRANCH   1   3
BRANCH   1  43
ATOM     43  C15 non d ame      -7.293   9.488  67.505  0.00  0.00     0.240 C 
ATOM     44  O5  non d ame      -7.549  10.212  68.412  0.00  0.00    -0.271 OA
ATOM     45  N6  non d ame      -8.293   9.281  66.418  0.00  0.00    -0.355 N 
ATOM     46  H46 non d ame      -8.085   8.672  65.640  0.00  0.00     0.162 HD
BRANCH  45  47
ATOM     47  C20 non d ame      -9.598   9.972  66.481  0.00  0.00     0.013 C 
ATOM     48  H30 non d ame      -9.464  10.893  67.049  0.00  0.00     0.072 H 
BRANCH  47  49
ATOM     49  C21 non d ame     -10.603   9.081  67.175  0.00  0.00    -0.038 C 
ATOM     50  H31 non d ame     -10.346   9.115  68.234  0.00  0.00     0.036 H 
ATOM     51  H32 non d ame     -11.582   9.424  66.841  0.00  0.00     0.036 H 
BRANCH  49  52
ATOM     52  C22 non d ame     -10.489   7.602  66.746  0.00  0.00     0.018 C 
ATOM     53  H33 non d ame     -11.508   7.215  66.745  0.00  0.00     0.048 H 
ATOM     54  H34 non d ame      -9.907   7.606  65.825  0.00  0.00     0.048 H 
BRANCH  52  55
ATOM     55  C23 non d ame      -9.697   6.718  67.750  0.00  0.00     0.259 C 
ATOM     56  O7  non d ame     -10.104   6.546  68.853  0.00  0.00    -0.265 OA
BRANCH  55  57
ATOM     57  O8  non d ame      -8.470   6.126  67.340  0.00  0.00    -0.317 OA
BRANCH  57  58
ATOM     58  C29 non d ame      -8.603   5.209  66.249  0.00  0.00     0.052 C 
ATOM     59  H47 non d ame      -8.370   4.227  66.659  0.00  0.00     0.082 H 
ATOM     60  H48 non d ame      -9.586   5.401  65.821  0.00  0.00     0.082 H 
BRANCH  58  61
ATOM     61  C35 non d ame      -7.528   5.567  65.189  0.00  0.00    -0.034 A 
ATOM     62  C30 non d ame      -6.245   5.040  65.291  0.00  0.00    -0.075 A 
ATOM     63  C31 non d ame      -5.279   5.362  64.339  0.00  0.00    -0.082 A 
ATOM     64  H49 non d ame      -5.996   4.372  66.117  0.00  0.00     0.084 H 
ATOM     65  C32 non d ame      -5.599   6.219  63.283  0.00  0.00    -0.083 A 
ATOM     66  H50 non d ame      -4.275   4.944  64.420  0.00  0.00     0.083 H 
ATOM     67  C33 non d ame      -6.880   6.747  63.187  0.00  0.00    -0.082 A 
ATOM     68  H51 non d ame      -4.851   6.476  62.534  0.00  0.00     0.083 H 
ATOM     69  C34 non d ame      -7.849   6.425  64.136  0.00  0.00    -0.075 A 
ATOM     70  H52 non d ame      -7.126   7.417  62.363  0.00  0.00     0.083 H 
ATOM     71  H53 non d ame      -8.853   6.843  64.052  0.00  0.00     0.084 H 
ENDBRANCH  58  61
ENDBRANCH  57  58
ENDBRANCH  55  57
ENDBRANCH  52  55
ENDBRANCH  49  52
ENDBRANCH  47  49
BRANCH  47  72
ATOM     72  C24 non d ame     -10.085  10.286  65.068  0.00  0.00    -0.039 C 
ATOM     73  H35 non d ame      -9.287   9.950  64.405  0.00  0.00     0.036 H 
ATOM     74  H36 non d ame     -11.077   9.839  64.997  0.00  0.00     0.036 H 
BRANCH  72  75
ATOM     75  C25 non d ame     -10.259  11.862  64.836  0.00  0.00    -0.001 C 
ATOM     76  C26 non d ame     -11.382  12.459  65.878  0.00  0.00    -0.035 C 
ATOM     77  C27 non d ame     -12.293  13.174  65.174  0.00  0.00     0.085 C 
ATOM     78  H38 non d ame     -11.969  11.646  66.302  0.00  0.00     0.036 H 
ATOM     79  H39 non d ame     -10.927  13.202  66.533  0.00  0.00     0.036 H 
ATOM     80  N5  non d ame     -12.079  12.846  63.715  0.00  0.00    -0.049 N 
ATOM     81  H40 non d ame     -13.266  12.792  65.485  0.00  0.00     0.075 H 
ATOM     82  H41 non d ame     -12.037  14.219  65.344  0.00  0.00     0.075 H 
ATOM     83  C28 non d ame     -10.640  12.119  63.630  0.00  0.00     0.193 C 
ATOM     84  H42 non d ame     -12.793  12.178  63.465  0.00  0.00     0.280 HD
ATOM     85  H43 non d ame     -12.021  13.729  63.229  0.00  0.00     0.280 HD
ATOM     86  H44 non d ame      -9.769  12.655  63.256  0.00  0.00     0.129 H 
ATOM     87  H37 non d ame      -9.301  12.380  64.789  0.00  0.00     0.046 H 
BRANCH  83  88
ATOM     88  O6  non d ame     -10.731  10.937  62.831  0.00  0.00    -0.369 OA
ATOM     89  H45 non d ame      -9.878  10.755  62.431  0.00  0.00     0.212 HD
ENDBRANCH  83  88
ENDBRANCH  72  75
ENDBRANCH  47  72
ENDBRANCH  45  47
ENDBRANCH   1  43
BRANCH   1  90
ATOM     90  C16 non d ame      -5.434   8.690  66.013  0.00  0.00    -0.035 C 
ATOM     91  H21 non d ame      -5.733   7.701  65.663  0.00  0.00     0.037 H 
ATOM     92  H22 non d ame      -5.829   9.582  65.527  0.00  0.00     0.037 H 
BRANCH  90  93
ATOM     93  C17 non d ame      -3.881   8.759  65.866  0.00  0.00    -0.059 C 
ATOM     94  H23 non d ame      -3.523   9.560  66.513  0.00  0.00     0.038 H 
BRANCH  93  95
ATOM     95  C18 non d ame      -3.186   7.435  66.320  0.00  0.00    -0.073 C 
ATOM     96  H24 non d ame      -2.695   6.971  65.464  0.00  0.00     0.028 H 
ATOM     97  H25 non d ame      -2.445   7.658  67.087  0.00  0.00     0.028 H 
ATOM     98  H26 non d ame      -3.934   6.753  66.724  0.00  0.00     0.028 H 
ENDBRANCH  93  95
BRANCH  93  99
ATOM     99  C19 non d ame      -3.481   9.119  64.433  0.00  0.00    -0.073 C 
ATOM    100  H27 non d ame      -4.292   9.674  63.959  0.00  0.00     0.028 H 
ATOM    101  H28 non d ame      -2.581   9.734  64.451  0.00  0.00     0.028 H 
ATOM    102  H29 non d ame      -3.286   8.207  63.869  0.00  0.00     0.028 H 
ENDBRANCH  93  99
ENDBRANCH  90  93
ENDBRANCH   1  90
TORSDOF 26
ENDMDL
MODEL 20
REMARK VINA RESULT:      -6.4      3.566      9.491
REMARK  26 active torsions:
REMARK  status: ('A' for Active; 'I' for Inactive)
REMARK    1  A    between atoms: C2_2  and  C3_3 
REMARK    2  A    between atoms: C4_6  and  C5_7 
REMARK       I    between atoms: C5_7  and  N2_9 
REMARK    3  A    between atoms: N2_9  and  C6_10 
REMARK    4  A    between atoms: C6_10  and  C7_11 
REMARK    5  A    between atoms: C6_10  and  C8_13 
REMARK       I    between atoms: C7_11  and  N3_14 
REMARK    6  A    between atoms: N3_14  and  C9_15 
REMARK    7  A    between atoms: C9_15  and  C10_16 
REMARK    8  A    between atoms: C9_15  and  C11_18 
REMARK       I    between atoms: C10_16  and  N4_21 
REMARK    9  A    between atoms: C11_18  and  C12_19 
REMARK   10  A    between atoms: C11_18  and  C13_20 
REMARK   11  A    between atoms: N4_21  and  C14_22 
REMARK   12  A    between atoms: C14_22  and  C15_23 
REMARK   13  A    between atoms: C14_22  and  C16_25 
REMARK       I    between atoms: C15_23  and  N6_40 
REMARK   14  A    between atoms: C16_25  and  C17_26 
REMARK   15  A    between atoms: C17_26  and  C18_27 
REMARK   16  A    between atoms: C17_26  and  C19_28 
REMARK   17  A    between atoms: C20_29  and  C21_30 
REMARK   18  A    between atoms: C20_29  and  C24_33 
REMARK   19  A    between atoms: C20_29  and  N6_40 
REMARK   20  A    between atoms: C21_30  and  C22_31 
REMARK   21  A    between atoms: C22_31  and  C23_32 
REMARK   22  A    between atoms: C23_32  and  O8_43 
REMARK   23  A    between atoms: C24_33  and  C25_34 
REMARK   24  A    between atoms: C28_38  and  O6_39 
REMARK   25  A    between atoms: C29_42  and  O8_43 
REMARK   26  A    between atoms: C29_42  and  C35_49 
ROOT
ATOM      1  C14 non d ame      -8.032   8.461  64.128  0.00  0.00     0.089 C 
ATOM      2  H20 non d ame      -7.950   8.778  63.088  0.00  0.00     0.087 H 
ENDROOT
BRANCH   1   3
ATOM      3  N4  non d ame      -9.131   9.204  64.727  0.00  0.00    -0.346 N 
ATOM      4  C10 non d ame      -9.637  10.469  64.079  0.00  0.00     0.241 C 
ATOM      5  O4  non d ame      -9.142  10.870  63.077  0.00  0.00    -0.271 OA
ATOM      6  H19 non d ame      -9.537   8.849  65.581  0.00  0.00     0.163 HD
BRANCH   4   7
ATOM      7  C9  non d ame     -10.778  11.224  64.709  0.00  0.00     0.092 C 
ATOM      8  H11 non d ame     -11.552  10.518  65.012  0.00  0.00     0.088 H 
BRANCH   7   9
ATOM      9  N3  non d ame     -10.307  11.897  65.924  0.00  0.00    -0.346 N 
ATOM     10  C7  non d ame     -11.023  11.729  67.164  0.00  0.00     0.240 C 
ATOM     11  O3  non d ame     -11.980  11.056  67.204  0.00  0.00    -0.271 OA
ATOM     12  H10 non d ame      -9.483  12.482  65.905  0.00  0.00     0.163 HD
BRANCH  10  13
ATOM     13  C6  non d ame     -10.518  12.451  68.453  0.00  0.00     0.086 C 
ATOM     14  H6  non d ame      -9.438  12.378  68.582  0.00  0.00     0.086 H 
BRANCH  13  15
ATOM     15  N2  non d ame     -10.829  13.868  68.351  0.00  0.00    -0.343 N 
ATOM     16  C5  non d ame      -9.894  14.765  67.669  0.00  0.00     0.273 C 
ATOM     17  O2  non d ame      -8.894  14.338  67.208  0.00  0.00    -0.266 OA
ATOM     18  H5  non d ame     -11.686  14.224  68.751  0.00  0.00     0.163 HD
BRANCH  16  19
ATOM     19  C4  non d ame     -10.212  16.264  67.554  0.00  0.00     0.154 A 
ATOM     20  C1  non d ame     -10.025  17.103  66.410  0.00  0.00    -0.017 A 
ATOM     21  C2  non d ame     -10.467  18.380  66.819  0.00  0.00     0.077 A 
ATOM     22  H1  non d ame      -9.630  16.826  65.432  0.00  0.00     0.091 H 
ATOM     23  O1  non d ame     -10.862  18.276  68.054  0.00  0.00    -0.218 OA
ATOM     24  N1  non d ame     -10.722  17.051  68.506  0.00  0.00    -0.123 NA
BRANCH  21  25
ATOM     25  C3  non d ame     -10.481  19.644  65.969  0.00  0.00    -0.029 C 
ATOM     26  H2  non d ame     -11.376  20.224  66.195  0.00  0.00     0.036 H 
ATOM     27  H3  non d ame      -9.597  20.240  66.190  0.00  0.00     0.036 H 
ATOM     28  H4  non d ame     -10.482  19.372  64.913  0.00  0.00     0.036 H 
ENDBRANCH  21  25
ENDBRANCH  16  19
ENDBRANCH  13  15
BRANCH  13  29
ATOM     29  C8  non d ame     -11.195  11.859  69.662  0.00  0.00    -0.049 C 
ATOM     30  H7  non d ame     -12.029  11.234  69.341  0.00  0.00     0.030 H 
ATOM     31  H8  non d ame     -10.481  11.254  70.220  0.00  0.00     0.030 H 
ATOM     32  H9  non d ame     -11.568  12.661  70.298  0.00  0.00     0.030 H 
ENDBRANCH  13  29
ENDBRANCH  10  13
ENDBRANCH   7   9
BRANCH   7  33
ATOM     33  C11 non d ame     -11.315  12.285  63.705  0.00  0.00    -0.033 C 
ATOM     34  H12 non d ame     -10.654  12.284  62.840  0.00  0.00     0.042 H 
BRANCH  33  35
ATOM     35  C12 non d ame     -12.747  11.920  63.203  0.00  0.00    -0.071 C 
ATOM     36  H13 non d ame     -13.091  11.018  63.710  0.00  0.00     0.028 H 
ATOM     37  H14 non d ame     -13.429  12.741  63.420  0.00  0.00     0.028 H 
ATOM     38  H15 non d ame     -12.719  11.743  62.128  0.00  0.00     0.028 H 
ENDBRANCH  33  35
BRANCH  33  39
ATOM     39  C13 non d ame     -11.285  13.715  64.334  0.00  0.00    -0.071 C 
ATOM     40  H16 non d ame     -10.597  13.726  65.179  0.00  0.00     0.028 H 
ATOM     41  H17 non d ame     -10.952  14.435  63.585  0.00  0.00     0.028 H 
ATOM     42  H18 non d ame     -12.284  13.984  64.676  0.00  0.00     0.028 H 
ENDBRANCH  33  39
ENDBRANCH   7  33
ENDBRANCH   4   7
ENDBRANCH   1   3
BRANCH   1  43
ATOM     43  C15 non d ame      -8.337   6.941  64.257  0.00  0.00     0.240 C 
ATOM     44  O5  non d ame      -8.090   6.210  63.353  0.00  0.00    -0.271 OA
ATOM     45  N6  non d ame      -8.927   6.395  65.512  0.00  0.00    -0.355 N 
ATOM     46  H46 non d ame      -9.136   7.006  66.288  0.00  0.00     0.162 HD
BRANCH  45  47
ATOM     47  C20 non d ame      -9.210   4.948  65.620  0.00  0.00     0.013 C 
ATOM     48  H30 non d ame      -9.389   4.565  64.615  0.00  0.00     0.072 H 
BRANCH  47  49
ATOM     49  C21 non d ame     -10.437   4.739  66.477  0.00  0.00    -0.038 C 
ATOM     50  H31 non d ame     -11.257   4.567  65.781  0.00  0.00     0.036 H 
ATOM     51  H32 non d ame     -10.164   3.970  67.200  0.00  0.00     0.036 H 
BRANCH  49  52
ATOM     52  C22 non d ame     -10.815   5.993  67.296  0.00  0.00     0.018 C 
ATOM     53  H33 non d ame     -10.195   6.800  66.904  0.00  0.00     0.048 H 
ATOM     54  H34 non d ame     -11.901   6.065  67.242  0.00  0.00     0.048 H 
BRANCH  52  55
ATOM     55  C23 non d ame     -10.468   5.883  68.807  0.00  0.00     0.259 C 
ATOM     56  O7  non d ame     -10.255   4.823  69.301  0.00  0.00    -0.265 OA
BRANCH  55  57
ATOM     57  O8  non d ame     -10.422   7.063  69.599  0.00  0.00    -0.317 OA
BRANCH  57  58
ATOM     58  C29 non d ame     -10.649   6.837  70.994  0.00  0.00     0.052 C 
ATOM     59  H47 non d ame     -10.813   5.765  71.096  0.00  0.00     0.082 H 
ATOM     60  H48 non d ame      -9.814   7.312  71.509  0.00  0.00     0.082 H 
BRANCH  58  61
ATOM     61  C35 non d ame     -11.955   7.575  71.392  0.00  0.00    -0.034 A 
ATOM     62  C30 non d ame     -13.160   6.883  71.439  0.00  0.00    -0.075 A 
ATOM     63  C31 non d ame     -14.333   7.546  71.797  0.00  0.00    -0.082 A 
ATOM     64  H49 non d ame     -13.186   5.820  71.196  0.00  0.00     0.084 H 
ATOM     65  C32 non d ame     -14.298   8.908  72.105  0.00  0.00    -0.083 A 
ATOM     66  H50 non d ame     -15.276   6.999  71.836  0.00  0.00     0.083 H 
ATOM     67  C33 non d ame     -13.093   9.597  72.053  0.00  0.00    -0.082 A 
ATOM     68  H51 non d ame     -15.210   9.434  72.386  0.00  0.00     0.083 H 
ATOM     69  C34 non d ame     -11.918   8.936  71.698  0.00  0.00    -0.075 A 
ATOM     70  H52 non d ame     -13.069  10.660  72.293  0.00  0.00     0.083 H 
ATOM     71  H53 non d ame     -10.975   9.484  71.662  0.00  0.00     0.084 H 
ENDBRANCH  58  61
ENDBRANCH  57  58
ENDBRANCH  55  57
ENDBRANCH  52  55
ENDBRANCH  49  52
ENDBRANCH  47  49
BRANCH  47  72
ATOM     72  C24 non d ame      -8.017   4.235  66.254  0.00  0.00    -0.039 C 
ATOM     73  H35 non d ame      -8.436   3.626  67.055  0.00  0.00     0.036 H 
ATOM     74  H36 non d ame      -7.490   3.758  65.427  0.00  0.00     0.036 H 
BRANCH  72  75
ATOM     75  C25 non d ame      -6.998   5.269  66.929  0.00  0.00    -0.001 C 
ATOM     76  C26 non d ame      -5.551   5.220  66.149  0.00  0.00    -0.035 C 
ATOM     77  C27 non d ame      -4.567   5.051  67.065  0.00  0.00     0.085 C 
ATOM     78  H38 non d ame      -5.487   4.321  65.537  0.00  0.00     0.036 H 
ATOM     79  H39 non d ame      -5.328   6.193  65.713  0.00  0.00     0.036 H 
ATOM     80  N5  non d ame      -5.234   4.653  68.360  0.00  0.00    -0.049 N 
ATOM     81  H40 non d ame      -3.970   4.214  66.701  0.00  0.00     0.075 H 
ATOM     82  H41 non d ame      -4.112   6.033  67.187  0.00  0.00     0.075 H 
ATOM     83  C28 non d ame      -6.802   4.989  68.175  0.00  0.00     0.193 C 
ATOM     84  H42 non d ame      -5.126   3.653  68.442  0.00  0.00     0.280 HD
ATOM     85  H43 non d ame      -4.858   5.261  69.074  0.00  0.00     0.280 HD
ATOM     86  H44 non d ame      -7.241   5.867  68.647  0.00  0.00     0.129 H 
ATOM     87  H37 non d ame      -7.446   6.252  67.080  0.00  0.00     0.046 H 
BRANCH  83  88
ATOM     88  O6  non d ame      -7.598   3.884  68.609  0.00  0.00    -0.369 OA
ATOM     89  H45 non d ame      -7.162   3.446  69.344  0.00  0.00     0.212 HD
ENDBRANCH  83  88
ENDBRANCH  72  75
ENDBRANCH  47  72
ENDBRANCH  45  47
ENDBRANCH   1  43
BRANCH   1  90
ATOM     90  C16 non d ame      -6.748   8.790  64.870  0.00  0.00    -0.035 C 
ATOM     91  H21 non d ame      -6.685   9.880  64.869  0.00  0.00     0.037 H 
ATOM     92  H22 non d ame      -6.813   8.249  65.814  0.00  0.00     0.037 H 
BRANCH  90  93
ATOM     93  C17 non d ame      -5.460   8.274  64.154  0.00  0.00    -0.059 C 
ATOM     94  H23 non d ame      -5.515   7.186  64.118  0.00  0.00     0.038 H 
BRANCH  93  95
ATOM     95  C18 non d ame      -5.353   8.794  62.685  0.00  0.00    -0.073 C 
ATOM     96  H24 non d ame      -4.428   8.431  62.237  0.00  0.00     0.028 H 
ATOM     97  H25 non d ame      -6.204   8.430  62.108  0.00  0.00     0.028 H 
ATOM     98  H26 non d ame      -5.354   9.885  62.684  0.00  0.00     0.028 H 
ENDBRANCH  93  95
BRANCH  93  99
ATOM     99  C19 non d ame      -4.205   8.639  64.953  0.00  0.00    -0.073 C 
ATOM    100  H27 non d ame      -4.057   7.909  65.749  0.00  0.00     0.028 H 
ATOM    101  H28 non d ame      -3.340   8.636  64.290  0.00  0.00     0.028 H 
ATOM    102  H29 non d ame      -4.326   9.632  65.386  0.00  0.00     0.028 H 
ENDBRANCH  93  99
ENDBRANCH  90  93
ENDBRANCH   1  90
TORSDOF 26
ENDMDL
