MODEL 1
REMARK VINA RESULT:      -7.0      0.000      0.000
REMARK  26 active torsions:
REMARK  status: ('A' for Active; 'I' for Inactive)
REMARK    1  A    between atoms: C2_2  and  C3_3 
REMARK    2  A    between atoms: C4_6  and  C5_7 
REMARK       I    between atoms: C5_7  and  N2_9 
REMARK    3  A    between atoms: N2_9  and  C6_10 
REMARK    4  A    between atoms: C6_10  and  C7_11 
REMARK    5  A    between atoms: C6_10  and  C8_13 
REMARK       I    between atoms: C7_11  and  N3_14 
REMARK    6  A    between atoms: N3_14  and  C9_15 
REMARK    7  A    between atoms: C9_15  and  C10_16 
REMARK    8  A    between atoms: C9_15  and  C11_18 
REMARK       I    between atoms: C10_16  and  N4_21 
REMARK    9  A    between atoms: C11_18  and  C12_19 
REMARK   10  A    between atoms: C11_18  and  C13_20 
REMARK   11  A    between atoms: N4_21  and  C14_22 
REMARK   12  A    between atoms: C14_22  and  C15_23 
REMARK   13  A    between atoms: C14_22  and  C16_25 
REMARK       I    between atoms: C15_23  and  N6_40 
REMARK   14  A    between atoms: C16_25  and  C17_26 
REMARK   15  A    between atoms: C17_26  and  C18_27 
REMARK   16  A    between atoms: C17_26  and  C19_28 
REMARK   17  A    between atoms: C20_29  and  C21_30 
REMARK   18  A    between atoms: C20_29  and  C24_33 
REMARK   19  A    between atoms: C20_29  and  N6_40 
REMARK   20  A    between atoms: C21_30  and  C22_31 
REMARK   21  A    between atoms: C22_31  and  C23_32 
REMARK   22  A    between atoms: C23_32  and  O8_43 
REMARK   23  A    between atoms: C24_33  and  C25_34 
REMARK   24  A    between atoms: C28_38  and  O6_39 
REMARK   25  A    between atoms: C29_42  and  O8_43 
REMARK   26  A    between atoms: C29_42  and  C35_49 
ROOT
ATOM      1  C14 non d ame     -12.211  14.488  70.535  0.00  0.00     0.089 C 
ATOM      2  H20 non d ame     -13.298  14.542  70.607  0.00  0.00     0.087 H 
ENDROOT
BRANCH   1   3
ATOM      3  N4  non d ame     -11.861  13.110  70.222  0.00  0.00    -0.346 N 
ATOM      4  C10 non d ame     -12.536  11.970  70.944  0.00  0.00     0.241 C 
ATOM      5  O4  non d ame     -13.356  12.187  71.775  0.00  0.00    -0.271 OA
ATOM      6  H19 non d ame     -11.159  12.946  69.515  0.00  0.00     0.163 HD
BRANCH   4   7
ATOM      7  C9  non d ame     -12.166  10.550  70.604  0.00  0.00     0.092 C 
ATOM      8  H11 non d ame     -12.689  10.250  69.696  0.00  0.00     0.088 H 
BRANCH   7   9
ATOM      9  N3  non d ame     -10.729  10.474  70.321  0.00  0.00    -0.346 N 
ATOM     10  C7  non d ame     -10.273  10.096  69.007  0.00  0.00     0.240 C 
ATOM     11  O3  non d ame     -11.047   9.850  68.164  0.00  0.00    -0.271 OA
ATOM     12  H10 non d ame     -10.049  10.683  71.038  0.00  0.00     0.163 HD
BRANCH  10  13
ATOM     13  C6  non d ame      -8.742  10.014  68.713  0.00  0.00     0.086 C 
ATOM     14  H6  non d ame      -8.525   9.677  67.699  0.00  0.00     0.086 H 
BRANCH  13  15
ATOM     15  N2  non d ame      -8.165  11.342  68.842  0.00  0.00    -0.343 N 
ATOM     16  C5  non d ame      -6.982  11.695  68.055  0.00  0.00     0.273 C 
ATOM     17  O2  non d ame      -6.500  10.903  67.323  0.00  0.00    -0.266 OA
ATOM     18  H5  non d ame      -8.583  12.012  69.473  0.00  0.00     0.163 HD
BRANCH  16  19
ATOM     19  C4  non d ame      -6.363  13.096  68.182  0.00  0.00     0.154 A 
ATOM     20  C1  non d ame      -6.444  13.979  69.306  0.00  0.00    -0.017 A 
ATOM     21  C2  non d ame      -5.715  15.125  68.920  0.00  0.00     0.077 A 
ATOM     22  H1  non d ame      -6.953  13.813  70.255  0.00  0.00     0.091 H 
ATOM     23  O1  non d ame      -5.270  14.915  67.716  0.00  0.00    -0.218 OA
ATOM     24  N1  non d ame      -5.635  13.737  67.264  0.00  0.00    -0.123 NA
BRANCH  21  25
ATOM     25  C3  non d ame      -5.490  16.376  69.760  0.00  0.00    -0.029 C 
ATOM     26  H2  non d ame      -4.654  16.212  70.440  0.00  0.00     0.036 H 
ATOM     27  H3  non d ame      -5.268  17.218  69.106  0.00  0.00     0.036 H 
ATOM     28  H4  non d ame      -6.390  16.592  70.338  0.00  0.00     0.036 H 
ENDBRANCH  21  25
ENDBRANCH  16  19
ENDBRANCH  13  15
BRANCH  13  29
ATOM     29  C8  non d ame      -8.090   9.070  69.690  0.00  0.00    -0.049 C 
ATOM     30  H7  non d ame      -8.320   9.386  70.708  0.00  0.00     0.030 H 
ATOM     31  H8  non d ame      -8.466   8.061  69.529  0.00  0.00     0.030 H 
ATOM     32  H9  non d ame      -7.010   9.084  69.542  0.00  0.00     0.030 H 
ENDBRANCH  13  29
ENDBRANCH  10  13
ENDBRANCH   7   9
BRANCH   7  33
ATOM     33  C11 non d ame     -12.505   9.624  71.809  0.00  0.00    -0.033 C 
ATOM     34  H12 non d ame     -12.653  10.259  72.681  0.00  0.00     0.042 H 
BRANCH  33  35
ATOM     35  C12 non d ame     -13.833   8.841  71.567  0.00  0.00    -0.071 C 
ATOM     36  H13 non d ame     -14.578   9.512  71.140  0.00  0.00     0.028 H 
ATOM     37  H14 non d ame     -13.649   8.017  70.878  0.00  0.00     0.028 H 
ATOM     38  H15 non d ame     -14.199   8.448  72.515  0.00  0.00     0.028 H 
ENDBRANCH  33  35
BRANCH  33  39
ATOM     39  C13 non d ame     -11.322   8.650  72.115  0.00  0.00    -0.071 C 
ATOM     40  H16 non d ame     -11.059   8.102  71.210  0.00  0.00     0.028 H 
ATOM     41  H17 non d ame     -10.459   9.222  72.457  0.00  0.00     0.028 H 
ATOM     42  H18 non d ame     -11.622   7.946  72.891  0.00  0.00     0.028 H 
ENDBRANCH  33  39
ENDBRANCH   7  33
ENDBRANCH   4   7
ENDBRANCH   1   3
BRANCH   1  43
ATOM     43  C15 non d ame     -11.649  15.407  69.414  0.00  0.00     0.240 C 
ATOM     44  O5  non d ame     -12.323  16.278  68.969  0.00  0.00    -0.271 OA
ATOM     45  N6  non d ame     -10.263  15.207  68.900  0.00  0.00    -0.355 N 
ATOM     46  H46 non d ame      -9.679  14.473  69.274  0.00  0.00     0.162 HD
BRANCH  45  47
ATOM     47  C20 non d ame      -9.742  16.090  67.834  0.00  0.00     0.013 C 
ATOM     48  H30 non d ame     -10.593  16.573  67.353  0.00  0.00     0.072 H 
BRANCH  47  49
ATOM     49  C21 non d ame      -8.981  15.261  66.825  0.00  0.00    -0.038 C 
ATOM     50  H31 non d ame      -8.415  15.973  66.226  0.00  0.00     0.036 H 
ATOM     51  H32 non d ame      -8.459  14.499  67.404  0.00  0.00     0.036 H 
BRANCH  49  52
ATOM     52  C22 non d ame      -9.909  14.507  65.847  0.00  0.00     0.018 C 
ATOM     53  H33 non d ame     -10.838  15.076  65.823  0.00  0.00     0.048 H 
ATOM     54  H34 non d ame      -9.329  14.372  64.935  0.00  0.00     0.048 H 
BRANCH  52  55
ATOM     55  C23 non d ame     -10.294  13.079  66.325  0.00  0.00     0.259 C 
ATOM     56  O7  non d ame     -11.175  12.922  67.107  0.00  0.00    -0.265 OA
BRANCH  55  57
ATOM     57  O8  non d ame      -9.573  11.959  65.826  0.00  0.00    -0.317 OA
BRANCH  57  58
ATOM     58  C29 non d ame     -10.327  11.130  64.937  0.00  0.00     0.052 C 
ATOM     59  H47 non d ame     -10.697  10.305  65.545  0.00  0.00     0.082 H 
ATOM     60  H48 non d ame     -11.030  11.797  64.438  0.00  0.00     0.082 H 
BRANCH  58  61
ATOM     61  C35 non d ame      -9.353  10.560  63.872  0.00  0.00    -0.034 A 
ATOM     62  C30 non d ame      -8.756   9.318  64.067  0.00  0.00    -0.075 A 
ATOM     63  C31 non d ame      -7.881   8.806  63.110  0.00  0.00    -0.082 A 
ATOM     64  H49 non d ame      -8.976   8.746  64.969  0.00  0.00     0.084 H 
ATOM     65  C32 non d ame      -7.599   9.543  61.957  0.00  0.00    -0.083 A 
ATOM     66  H50 non d ame      -7.418   7.831  63.265  0.00  0.00     0.083 H 
ATOM     67  C33 non d ame      -8.194  10.783  61.768  0.00  0.00    -0.082 A 
ATOM     68  H51 non d ame      -6.917   9.149  61.204  0.00  0.00     0.083 H 
ATOM     69  C34 non d ame      -9.071  11.297  62.721  0.00  0.00    -0.075 A 
ATOM     70  H52 non d ame      -7.970  11.356  60.868  0.00  0.00     0.083 H 
ATOM     71  H53 non d ame      -9.535  12.272  62.565  0.00  0.00     0.084 H 
ENDBRANCH  58  61
ENDBRANCH  57  58
ENDBRANCH  55  57
ENDBRANCH  52  55
ENDBRANCH  49  52
ENDBRANCH  47  49
BRANCH  47  72
ATOM     72  C24 non d ame      -8.811  17.137  68.441  0.00  0.00    -0.039 C 
ATOM     73  H35 non d ame      -8.783  16.916  69.509  0.00  0.00     0.036 H 
ATOM     74  H36 non d ame      -7.896  17.088  67.851  0.00  0.00     0.036 H 
BRANCH  72  75
ATOM     75  C25 non d ame      -9.399  18.619  68.281  0.00  0.00    -0.001 C 
ATOM     76  C26 non d ame     -10.586  18.629  67.142  0.00  0.00    -0.035 C 
ATOM     77  C27 non d ame     -10.324  19.613  66.249  0.00  0.00     0.085 C 
ATOM     78  H38 non d ame     -10.537  17.721  66.543  0.00  0.00     0.036 H 
ATOM     79  H39 non d ame     -11.530  18.937  67.590  0.00  0.00     0.036 H 
ATOM     80  N5  non d ame      -8.900  20.058  66.486  0.00  0.00    -0.049 N 
ATOM     81  H40 non d ame     -10.389  19.141  65.268  0.00  0.00     0.075 H 
ATOM     82  H41 non d ame     -10.998  20.428  66.507  0.00  0.00     0.075 H 
ATOM     83  C28 non d ame      -8.479  19.451  67.922  0.00  0.00     0.193 C 
ATOM     84  H42 non d ame      -8.339  19.615  65.773  0.00  0.00     0.280 HD
ATOM     85  H43 non d ame      -8.923  21.065  66.558  0.00  0.00     0.280 HD
ATOM     86  H44 non d ame      -8.436  20.091  68.803  0.00  0.00     0.129 H 
ATOM     87  H37 non d ame      -9.630  19.077  69.242  0.00  0.00     0.046 H 
BRANCH  83  88
ATOM     88  O6  non d ame      -7.195  18.831  67.838  0.00  0.00    -0.369 OA
ATOM     89  H45 non d ame      -6.519  19.457  68.109  0.00  0.00     0.212 HD
ENDBRANCH  83  88
ENDBRANCH  72  75
ENDBRANCH  47  72
ENDBRANCH  45  47
ENDBRANCH   1  43
BRANCH   1  90
ATOM     90  C16 non d ame     -11.587  14.867  71.868  0.00  0.00    -0.035 C 
ATOM     91  H21 non d ame     -11.438  13.924  72.396  0.00  0.00     0.037 H 
ATOM     92  H22 non d ame     -10.731  15.493  71.619  0.00  0.00     0.037 H 
BRANCH  90  93
ATOM     93  C17 non d ame     -12.520  15.734  72.773  0.00  0.00    -0.059 C 
ATOM     94  H23 non d ame     -12.215  16.775  72.659  0.00  0.00     0.038 H 
BRANCH  93  95
ATOM     95  C18 non d ame     -14.019  15.628  72.347  0.00  0.00    -0.073 C 
ATOM     96  H24 non d ame     -14.294  14.578  72.247  0.00  0.00     0.028 H 
ATOM     97  H25 non d ame     -14.646  16.097  73.106  0.00  0.00     0.028 H 
ATOM     98  H26 non d ame     -14.162  16.135  71.393  0.00  0.00     0.028 H 
ENDBRANCH  93  95
BRANCH  93  99
ATOM     99  C19 non d ame     -12.345  15.368  74.249  0.00  0.00    -0.073 C 
ATOM    100  H27 non d ame     -11.979  14.344  74.328  0.00  0.00     0.028 H 
ATOM    101  H28 non d ame     -11.628  16.049  74.709  0.00  0.00     0.028 H 
ATOM    102  H29 non d ame     -13.304  15.453  74.761  0.00  0.00     0.028 H 
ENDBRANCH  93  99
ENDBRANCH  90  93
ENDBRANCH   1  90
TORSDOF 26
ENDMDL
MODEL 2
REMARK VINA RESULT:      -6.8      2.523      6.912
REMARK  26 active torsions:
REMARK  status: ('A' for Active; 'I' for Inactive)
REMARK    1  A    between atoms: C2_2  and  C3_3 
REMARK    2  A    between atoms: C4_6  and  C5_7 
REMARK       I    between atoms: C5_7  and  N2_9 
REMARK    3  A    between atoms: N2_9  and  C6_10 
REMARK    4  A    between atoms: C6_10  and  C7_11 
REMARK    5  A    between atoms: C6_10  and  C8_13 
REMARK       I    between atoms: C7_11  and  N3_14 
REMARK    6  A    between atoms: N3_14  and  C9_15 
REMARK    7  A    between atoms: C9_15  and  C10_16 
REMARK    8  A    between atoms: C9_15  and  C11_18 
REMARK       I    between atoms: C10_16  and  N4_21 
REMARK    9  A    between atoms: C11_18  and  C12_19 
REMARK   10  A    between atoms: C11_18  and  C13_20 
REMARK   11  A    between atoms: N4_21  and  C14_22 
REMARK   12  A    between atoms: C14_22  and  C15_23 
REMARK   13  A    between atoms: C14_22  and  C16_25 
REMARK       I    between atoms: C15_23  and  N6_40 
REMARK   14  A    between atoms: C16_25  and  C17_26 
REMARK   15  A    between atoms: C17_26  and  C18_27 
REMARK   16  A    between atoms: C17_26  and  C19_28 
REMARK   17  A    between atoms: C20_29  and  C21_30 
REMARK   18  A    between atoms: C20_29  and  C24_33 
REMARK   19  A    between atoms: C20_29  and  N6_40 
REMARK   20  A    between atoms: C21_30  and  C22_31 
REMARK   21  A    between atoms: C22_31  and  C23_32 
REMARK   22  A    between atoms: C23_32  and  O8_43 
REMARK   23  A    between atoms: C24_33  and  C25_34 
REMARK   24  A    between atoms: C28_38  and  O6_39 
REMARK   25  A    between atoms: C29_42  and  O8_43 
REMARK   26  A    between atoms: C29_42  and  C35_49 
ROOT
ATOM      1  C14 non d ame     -10.423   9.579  69.487  0.00  0.00     0.089 C 
ATOM      2  H20 non d ame     -10.735   8.698  68.925  0.00  0.00     0.087 H 
ENDROOT
BRANCH   1   3
ATOM      3  N4  non d ame      -9.101   9.957  69.011  0.00  0.00    -0.346 N 
ATOM      4  C10 non d ame      -8.065   8.900  68.716  0.00  0.00     0.241 C 
ATOM      5  O4  non d ame      -8.320   7.751  68.874  0.00  0.00    -0.271 OA
ATOM      6  H19 non d ame      -8.903  10.940  68.886  0.00  0.00     0.163 HD
BRANCH   4   7
ATOM      7  C9  non d ame      -6.704   9.309  68.219  0.00  0.00     0.092 C 
ATOM      8  H11 non d ame      -6.086   8.420  68.092  0.00  0.00     0.088 H 
BRANCH   7   9
ATOM      9  N3  non d ame      -6.834   9.937  66.900  0.00  0.00    -0.346 N 
ATOM     10  C7  non d ame      -6.743   9.133  65.707  0.00  0.00     0.240 C 
ATOM     11  O3  non d ame      -6.566   7.979  65.788  0.00  0.00    -0.271 OA
ATOM     12  H10 non d ame      -6.987  10.932  66.814  0.00  0.00     0.163 HD
BRANCH  10  13
ATOM     13  C6  non d ame      -6.879   9.808  64.306  0.00  0.00     0.086 C 
ATOM     14  H6  non d ame      -7.122   9.097  63.516  0.00  0.00     0.086 H 
BRANCH  13  15
ATOM     15  N2  non d ame      -7.970  10.769  64.350  0.00  0.00    -0.343 N 
ATOM     16  C5  non d ame      -9.216  10.479  63.637  0.00  0.00     0.273 C 
ATOM     17  O2  non d ame      -9.329   9.473  63.028  0.00  0.00    -0.266 OA
ATOM     18  H5  non d ame      -7.862  11.628  64.870  0.00  0.00     0.163 HD
BRANCH  16  19
ATOM     19  C4  non d ame     -10.376  11.485  63.676  0.00  0.00     0.154 A 
ATOM     20  C1  non d ame     -10.382  12.776  64.295  0.00  0.00    -0.017 A 
ATOM     21  C2  non d ame     -11.673  13.292  64.047  0.00  0.00     0.077 A 
ATOM     22  H1  non d ame      -9.573  13.263  64.840  0.00  0.00     0.091 H 
ATOM     23  O1  non d ame     -12.324  12.397  63.362  0.00  0.00    -0.218 OA
ATOM     24  N1  non d ame     -11.588  11.333  63.134  0.00  0.00    -0.123 NA
BRANCH  21  25
ATOM     25  C3  non d ame     -12.204  14.647  64.495  0.00  0.00    -0.029 C 
ATOM     26  H2  non d ame     -13.196  14.524  64.929  0.00  0.00     0.036 H 
ATOM     27  H3  non d ame     -11.532  15.072  65.240  0.00  0.00     0.036 H 
ATOM     28  H4  non d ame     -12.263  15.317  63.636  0.00  0.00     0.036 H 
ENDBRANCH  21  25
ENDBRANCH  16  19
ENDBRANCH  13  15
BRANCH  13  29
ATOM     29  C8  non d ame      -5.590  10.506  63.954  0.00  0.00    -0.049 C 
ATOM     30  H7  non d ame      -5.509  11.429  64.529  0.00  0.00     0.030 H 
ATOM     31  H8  non d ame      -4.748   9.856  64.189  0.00  0.00     0.030 H 
ATOM     32  H9  non d ame      -5.584  10.741  62.890  0.00  0.00     0.030 H 
ENDBRANCH  13  29
ENDBRANCH  10  13
ENDBRANCH   7   9
BRANCH   7  33
ATOM     33  C11 non d ame      -6.072  10.324  69.214  0.00  0.00    -0.033 C 
ATOM     34  H12 non d ame      -6.755  11.168  69.302  0.00  0.00     0.042 H 
BRANCH  33  35
ATOM     35  C12 non d ame      -5.910   9.701  70.636  0.00  0.00    -0.071 C 
ATOM     36  H13 non d ame      -6.883   9.375  71.003  0.00  0.00     0.028 H 
ATOM     37  H14 non d ame      -5.237   8.846  70.583  0.00  0.00     0.028 H 
ATOM     38  H15 non d ame      -5.498  10.448  71.314  0.00  0.00     0.028 H 
ENDBRANCH  33  35
BRANCH  33  39
ATOM     39  C13 non d ame      -4.707  10.861  68.674  0.00  0.00    -0.071 C 
ATOM     40  H16 non d ame      -3.965  10.835  69.471  0.00  0.00     0.028 H 
ATOM     41  H17 non d ame      -4.373  10.236  67.845  0.00  0.00     0.028 H 
ATOM     42  H18 non d ame      -4.832  11.887  68.327  0.00  0.00     0.028 H 
ENDBRANCH  33  39
ENDBRANCH   7  33
ENDBRANCH   4   7
ENDBRANCH   1   3
BRANCH   1  43
ATOM     43  C15 non d ame     -11.386  10.781  69.279  0.00  0.00     0.240 C 
ATOM     44  O5  non d ame     -12.226  10.728  68.440  0.00  0.00    -0.271 OA
ATOM     45  N6  non d ame     -11.268  11.998  70.133  0.00  0.00    -0.355 N 
ATOM     46  H46 non d ame     -10.562  12.053  70.852  0.00  0.00     0.162 HD
BRANCH  45  47
ATOM     47  C20 non d ame     -12.192  13.133  69.923  0.00  0.00     0.013 C 
ATOM     48  H30 non d ame     -12.937  12.828  69.187  0.00  0.00     0.072 H 
BRANCH  47  49
ATOM     49  C21 non d ame     -11.415  14.323  69.407  0.00  0.00    -0.038 C 
ATOM     50  H31 non d ame     -12.126  15.147  69.375  0.00  0.00     0.036 H 
ATOM     51  H32 non d ame     -10.529  14.392  70.039  0.00  0.00     0.036 H 
BRANCH  49  52
ATOM     52  C22 non d ame     -10.907  14.126  67.963  0.00  0.00     0.018 C 
ATOM     53  H33 non d ame     -11.329  13.179  67.627  0.00  0.00     0.048 H 
ATOM     54  H34 non d ame     -11.151  15.048  67.436  0.00  0.00     0.048 H 
BRANCH  52  55
ATOM     55  C23 non d ame      -9.364  13.968  67.857  0.00  0.00     0.259 C 
ATOM     56  O7  non d ame      -8.837  12.959  68.199  0.00  0.00    -0.265 OA
BRANCH  55  57
ATOM     57  O8  non d ame      -8.585  15.049  67.359  0.00  0.00    -0.317 OA
BRANCH  57  58
ATOM     58  C29 non d ame      -9.226  15.799  66.323  0.00  0.00     0.052 C 
ATOM     59  H47 non d ame      -8.487  15.897  65.529  0.00  0.00     0.082 H 
ATOM     60  H48 non d ame     -10.169  15.288  66.129  0.00  0.00     0.082 H 
BRANCH  58  61
ATOM     61  C35 non d ame      -9.541  17.213  66.880  0.00  0.00    -0.034 A 
ATOM     62  C30 non d ame     -10.297  18.107  66.128  0.00  0.00    -0.075 A 
ATOM     63  C31 non d ame     -10.579  19.377  66.629  0.00  0.00    -0.082 A 
ATOM     64  H49 non d ame     -10.669  17.812  65.147  0.00  0.00     0.084 H 
ATOM     65  C32 non d ame     -10.098  19.753  67.886  0.00  0.00    -0.083 A 
ATOM     66  H50 non d ame     -11.174  20.073  66.039  0.00  0.00     0.083 H 
ATOM     67  C33 non d ame      -9.341  18.860  68.632  0.00  0.00    -0.082 A 
ATOM     68  H51 non d ame     -10.315  20.744  68.286  0.00  0.00     0.083 H 
ATOM     69  C34 non d ame      -9.059  17.588  68.135  0.00  0.00    -0.075 A 
ATOM     70  H52 non d ame      -8.967  19.158  69.612  0.00  0.00     0.083 H 
ATOM     71  H53 non d ame      -8.465  16.892  68.728  0.00  0.00     0.084 H 
ENDBRANCH  58  61
ENDBRANCH  57  58
ENDBRANCH  55  57
ENDBRANCH  52  55
ENDBRANCH  49  52
ENDBRANCH  47  49
BRANCH  47  72
ATOM     72  C24 non d ame     -12.869  13.498  71.242  0.00  0.00    -0.039 C 
ATOM     73  H35 non d ame     -13.914  13.208  71.122  0.00  0.00     0.036 H 
ATOM     74  H36 non d ame     -12.261  13.033  72.019  0.00  0.00     0.036 H 
BRANCH  72  75
ATOM     75  C25 non d ame     -12.845  15.078  71.505  0.00  0.00    -0.001 C 
ATOM     76  C26 non d ame     -11.878  15.416  72.791  0.00  0.00    -0.035 C 
ATOM     77  C27 non d ame     -12.564  16.199  73.658  0.00  0.00     0.085 C 
ATOM     78  H38 non d ame     -11.685  14.510  73.363  0.00  0.00     0.036 H 
ATOM     79  H39 non d ame     -11.048  16.050  72.478  0.00  0.00     0.036 H 
ATOM     80  N5  non d ame     -14.014  16.154  73.241  0.00  0.00    -0.049 N 
ATOM     81  H40 non d ame     -12.459  15.716  74.631  0.00  0.00     0.075 H 
ATOM     82  H41 non d ame     -12.182  17.207  73.506  0.00  0.00     0.075 H 
ATOM     83  C28 non d ame     -14.029  15.530  71.752  0.00  0.00     0.193 C 
ATOM     84  H42 non d ame     -14.472  15.506  73.865  0.00  0.00     0.280 HD
ATOM     85  H43 non d ame     -14.327  17.113  73.190  0.00  0.00     0.280 HD
ATOM     86  H44 non d ame     -14.182  16.171  70.884  0.00  0.00     0.129 H 
ATOM     87  H37 non d ame     -12.671  15.645  70.590  0.00  0.00     0.046 H 
BRANCH  83  88
ATOM     88  O6  non d ame     -15.026  14.511  71.653  0.00  0.00    -0.369 OA
ATOM     89  H45 non d ame     -15.874  14.866  71.930  0.00  0.00     0.212 HD
ENDBRANCH  83  88
ENDBRANCH  72  75
ENDBRANCH  47  72
ENDBRANCH  45  47
ENDBRANCH   1  43
BRANCH   1  90
ATOM     90  C16 non d ame     -10.338   9.241  70.967  0.00  0.00    -0.035 C 
ATOM     91  H21 non d ame      -9.347   8.807  71.108  0.00  0.00     0.037 H 
ATOM     92  H22 non d ame     -10.610  10.159  71.488  0.00  0.00     0.037 H 
BRANCH  90  93
ATOM     93  C17 non d ame     -11.364   8.155  71.422  0.00  0.00    -0.059 C 
ATOM     94  H23 non d ame     -12.348   8.622  71.452  0.00  0.00     0.038 H 
BRANCH  93  95
ATOM     95  C18 non d ame     -11.436   6.956  70.423  0.00  0.00    -0.073 C 
ATOM     96  H24 non d ame     -11.950   7.271  69.515  0.00  0.00     0.028 H 
ATOM     97  H25 non d ame     -10.426   6.630  70.175  0.00  0.00     0.028 H 
ATOM     98  H26 non d ame     -11.981   6.132  70.884  0.00  0.00     0.028 H 
ENDBRANCH  93  95
BRANCH  93  99
ATOM     99  C19 non d ame     -11.051   7.666  72.839  0.00  0.00    -0.073 C 
ATOM    100  H27 non d ame     -10.591   8.474  73.409  0.00  0.00     0.028 H 
ATOM    101  H28 non d ame     -11.975   7.356  73.327  0.00  0.00     0.028 H 
ATOM    102  H29 non d ame     -10.366   6.820  72.789  0.00  0.00     0.028 H 
ENDBRANCH  93  99
ENDBRANCH  90  93
ENDBRANCH   1  90
TORSDOF 26
ENDMDL
MODEL 3
REMARK VINA RESULT:      -6.6      3.073      9.215
REMARK  26 active torsions:
REMARK  status: ('A' for Active; 'I' for Inactive)
REMARK    1  A    between atoms: C2_2  and  C3_3 
REMARK    2  A    between atoms: C4_6  and  C5_7 
REMARK       I    between atoms: C5_7  and  N2_9 
REMARK    3  A    between atoms: N2_9  and  C6_10 
REMARK    4  A    between atoms: C6_10  and  C7_11 
REMARK    5  A    between atoms: C6_10  and  C8_13 
REMARK       I    between atoms: C7_11  and  N3_14 
REMARK    6  A    between atoms: N3_14  and  C9_15 
REMARK    7  A    between atoms: C9_15  and  C10_16 
REMARK    8  A    between atoms: C9_15  and  C11_18 
REMARK       I    between atoms: C10_16  and  N4_21 
REMARK    9  A    between atoms: C11_18  and  C12_19 
REMARK   10  A    between atoms: C11_18  and  C13_20 
REMARK   11  A    between atoms: N4_21  and  C14_22 
REMARK   12  A    between atoms: C14_22  and  C15_23 
REMARK   13  A    between atoms: C14_22  and  C16_25 
REMARK       I    between atoms: C15_23  and  N6_40 
REMARK   14  A    between atoms: C16_25  and  C17_26 
REMARK   15  A    between atoms: C17_26  and  C18_27 
REMARK   16  A    between atoms: C17_26  and  C19_28 
REMARK   17  A    between atoms: C20_29  and  C21_30 
REMARK   18  A    between atoms: C20_29  and  C24_33 
REMARK   19  A    between atoms: C20_29  and  N6_40 
REMARK   20  A    between atoms: C21_30  and  C22_31 
REMARK   21  A    between atoms: C22_31  and  C23_32 
REMARK   22  A    between atoms: C23_32  and  O8_43 
REMARK   23  A    between atoms: C24_33  and  C25_34 
REMARK   24  A    between atoms: C28_38  and  O6_39 
REMARK   25  A    between atoms: C29_42  and  O8_43 
REMARK   26  A    between atoms: C29_42  and  C35_49 
ROOT
ATOM      1  C14 non d ame      -9.073   6.752  66.475  0.00  0.00     0.089 C 
ATOM      2  H20 non d ame      -9.458   6.257  65.582  0.00  0.00     0.087 H 
ENDROOT
BRANCH   1   3
ATOM      3  N4  non d ame      -8.675   8.098  66.092  0.00  0.00    -0.346 N 
ATOM      4  C10 non d ame      -8.070   8.356  64.734  0.00  0.00     0.241 C 
ATOM      5  O4  non d ame      -7.912   7.463  63.968  0.00  0.00    -0.271 OA
ATOM      6  H19 non d ame      -8.815   8.844  66.759  0.00  0.00     0.163 HD
BRANCH   4   7
ATOM      7  C9  non d ame      -7.668   9.756  64.352  0.00  0.00     0.092 C 
ATOM      8  H11 non d ame      -7.613   9.831  63.266  0.00  0.00     0.088 H 
BRANCH   7   9
ATOM      9  N3  non d ame      -8.698  10.700  64.799  0.00  0.00    -0.346 N 
ATOM     10  C7  non d ame      -9.686  11.183  63.866  0.00  0.00     0.240 C 
ATOM     11  O3  non d ame      -9.668  10.824  62.752  0.00  0.00    -0.271 OA
ATOM     12  H10 non d ame      -8.727  11.020  65.757  0.00  0.00     0.163 HD
BRANCH  10  13
ATOM     13  C6  non d ame     -10.778  12.189  64.347  0.00  0.00     0.086 C 
ATOM     14  H6  non d ame     -11.239  11.893  65.289  0.00  0.00     0.086 H 
BRANCH  13  15
ATOM     15  N2  non d ame     -10.157  13.483  64.577  0.00  0.00    -0.343 N 
ATOM     16  C5  non d ame     -10.805  14.447  65.470  0.00  0.00     0.273 C 
ATOM     17  O2  non d ame     -11.826  14.172  65.996  0.00  0.00    -0.266 OA
ATOM     18  H5  non d ame      -9.285  13.711  64.120  0.00  0.00     0.163 HD
BRANCH  16  19
ATOM     19  C4  non d ame     -10.158  15.817  65.722  0.00  0.00     0.154 A 
ATOM     20  C1  non d ame      -8.996  16.094  66.511  0.00  0.00    -0.017 A 
ATOM     21  C2  non d ame      -8.821  17.493  66.421  0.00  0.00     0.077 A 
ATOM     22  H1  non d ame      -8.375  15.388  67.062  0.00  0.00     0.091 H 
ATOM     23  O1  non d ame      -9.774  17.955  65.666  0.00  0.00    -0.218 OA
ATOM     24  N1  non d ame     -10.568  16.997  65.246  0.00  0.00    -0.123 NA
BRANCH  21  25
ATOM     25  C3  non d ame      -7.719  18.307  67.085  0.00  0.00    -0.029 C 
ATOM     26  H2  non d ame      -8.077  19.319  67.274  0.00  0.00     0.036 H 
ATOM     27  H3  non d ame      -7.438  17.839  68.028  0.00  0.00     0.036 H 
ATOM     28  H4  non d ame      -6.849  18.347  66.427  0.00  0.00     0.036 H 
ENDBRANCH  21  25
ENDBRANCH  16  19
ENDBRANCH  13  15
BRANCH  13  29
ATOM     29  C8  non d ame     -11.851  12.311  63.295  0.00  0.00    -0.049 C 
ATOM     30  H7  non d ame     -11.388  12.461  62.319  0.00  0.00     0.030 H 
ATOM     31  H8  non d ame     -12.449  11.401  63.278  0.00  0.00     0.030 H 
ATOM     32  H9  non d ame     -12.491  13.163  63.527  0.00  0.00     0.030 H 
ENDBRANCH  13  29
ENDBRANCH  10  13
ENDBRANCH   7   9
BRANCH   7  33
ATOM     33  C11 non d ame      -6.314  10.111  65.033  0.00  0.00    -0.033 C 
ATOM     34  H12 non d ame      -5.917   9.196  65.471  0.00  0.00     0.042 H 
BRANCH  33  35
ATOM     35  C12 non d ame      -5.271  10.624  63.991  0.00  0.00    -0.071 C 
ATOM     36  H13 non d ame      -5.484  10.184  63.017  0.00  0.00     0.028 H 
ATOM     37  H14 non d ame      -5.332  11.709  63.921  0.00  0.00     0.028 H 
ATOM     38  H15 non d ame      -4.270  10.335  64.309  0.00  0.00     0.028 H 
ENDBRANCH  33  35
BRANCH  33  39
ATOM     39  C13 non d ame      -6.520  11.148  66.184  0.00  0.00    -0.071 C 
ATOM     40  H16 non d ame      -6.734  10.621  67.113  0.00  0.00     0.028 H 
ATOM     41  H17 non d ame      -5.614  11.743  66.304  0.00  0.00     0.028 H 
ATOM     42  H18 non d ame      -7.355  11.803  65.937  0.00  0.00     0.028 H 
ENDBRANCH  33  39
ENDBRANCH   7  33
ENDBRANCH   4   7
ENDBRANCH   1   3
BRANCH   1  43
ATOM     43  C15 non d ame     -10.144   6.854  67.598  0.00  0.00     0.240 C 
ATOM     44  O5  non d ame     -11.210   6.350  67.448  0.00  0.00    -0.271 OA
ATOM     45  N6  non d ame      -9.837   7.573  68.868  0.00  0.00    -0.355 N 
ATOM     46  H46 non d ame      -8.934   8.001  69.009  0.00  0.00     0.162 HD
BRANCH  45  47
ATOM     47  C20 non d ame     -10.865   7.661  69.927  0.00  0.00     0.013 C 
ATOM     48  H30 non d ame     -11.785   7.222  69.540  0.00  0.00     0.072 H 
BRANCH  47  49
ATOM     49  C21 non d ame     -11.096   9.113  70.281  0.00  0.00    -0.038 C 
ATOM     50  H31 non d ame     -12.144   9.308  70.057  0.00  0.00     0.036 H 
ATOM     51  H32 non d ame     -10.726   9.229  71.300  0.00  0.00     0.036 H 
BRANCH  49  52
ATOM     52  C22 non d ame     -10.274  10.081  69.404  0.00  0.00     0.018 C 
ATOM     53  H33 non d ame     -10.055  10.941  70.038  0.00  0.00     0.048 H 
ATOM     54  H34 non d ame      -9.458   9.487  68.992  0.00  0.00     0.048 H 
BRANCH  52  55
ATOM     55  C23 non d ame     -11.057  10.639  68.182  0.00  0.00     0.259 C 
ATOM     56  O7  non d ame     -10.940  10.137  67.112  0.00  0.00    -0.265 OA
BRANCH  55  57
ATOM     57  O8  non d ame     -11.906  11.766  68.355  0.00  0.00    -0.317 OA
BRANCH  57  58
ATOM     58  C29 non d ame     -11.280  12.870  69.017  0.00  0.00     0.052 C 
ATOM     59  H47 non d ame     -10.364  12.471  69.452  0.00  0.00     0.082 H 
ATOM     60  H48 non d ame     -11.229  13.667  68.277  0.00  0.00     0.082 H 
BRANCH  58  61
ATOM     61  C35 non d ame     -12.213  13.328  70.169  0.00  0.00    -0.034 A 
ATOM     62  C30 non d ame     -12.647  12.412  71.122  0.00  0.00    -0.075 A 
ATOM     63  C31 non d ame     -13.486  12.825  72.156  0.00  0.00    -0.082 A 
ATOM     64  H49 non d ame     -12.330  11.371  71.058  0.00  0.00     0.084 H 
ATOM     65  C32 non d ame     -13.893  14.159  72.234  0.00  0.00    -0.083 A 
ATOM     66  H50 non d ame     -13.821  12.105  72.903  0.00  0.00     0.083 H 
ATOM     67  C33 non d ame     -13.461  15.070  71.279  0.00  0.00    -0.082 A 
ATOM     68  H51 non d ame     -14.548  14.490  73.040  0.00  0.00     0.083 H 
ATOM     69  C34 non d ame     -12.621  14.661  70.245  0.00  0.00    -0.075 A 
ATOM     70  H52 non d ame     -13.783  16.110  71.342  0.00  0.00     0.083 H 
ATOM     71  H53 non d ame     -12.284  15.383  69.499  0.00  0.00     0.084 H 
ENDBRANCH  58  61
ENDBRANCH  57  58
ENDBRANCH  55  57
ENDBRANCH  52  55
ENDBRANCH  49  52
ENDBRANCH  47  49
BRANCH  47  72
ATOM     72  C24 non d ame     -10.396   6.901  71.166  0.00  0.00    -0.039 C 
ATOM     73  H35 non d ame     -11.210   6.220  71.414  0.00  0.00     0.036 H 
ATOM     74  H36 non d ame      -9.414   6.504  70.909  0.00  0.00     0.036 H 
BRANCH  72  75
ATOM     75  C25 non d ame     -10.197   7.877  72.421  0.00  0.00    -0.001 C 
ATOM     76  C26 non d ame      -8.596   8.169  72.655  0.00  0.00    -0.035 C 
ATOM     77  C27 non d ame      -8.293   7.922  73.952  0.00  0.00     0.085 C 
ATOM     78  H38 non d ame      -7.999   7.438  72.110  0.00  0.00     0.036 H 
ATOM     79  H39 non d ame      -8.390   9.233  72.543  0.00  0.00     0.036 H 
ATOM     80  N5  non d ame      -9.465   7.177  74.545  0.00  0.00    -0.049 N 
ATOM     81  H40 non d ame      -7.426   7.260  73.928  0.00  0.00     0.075 H 
ATOM     82  H41 non d ame      -8.219   8.901  74.425  0.00  0.00     0.075 H 
ATOM     83  C28 non d ame     -10.682   7.358  73.499  0.00  0.00     0.193 C 
ATOM     84  H42 non d ame      -9.202   6.202  74.567  0.00  0.00     0.280 HD
ATOM     85  H43 non d ame      -9.704   7.655  75.401  0.00  0.00     0.280 HD
ATOM     86  H44 non d ame     -11.493   8.055  73.708  0.00  0.00     0.129 H 
ATOM     87  H37 non d ame     -10.858   8.743  72.378  0.00  0.00     0.046 H 
BRANCH  83  88
ATOM     88  O6  non d ame     -11.313   6.100  73.255  0.00  0.00    -0.369 OA
ATOM     89  H45 non d ame     -12.027   6.218  72.623  0.00  0.00     0.212 HD
ENDBRANCH  83  88
ENDBRANCH  72  75
ENDBRANCH  47  72
ENDBRANCH  45  47
ENDBRANCH   1  43
BRANCH   1  90
ATOM     90  C16 non d ame      -7.857   6.003  66.994  0.00  0.00    -0.035 C 
ATOM     91  H21 non d ame      -7.002   6.635  66.749  0.00  0.00     0.037 H 
ATOM     92  H22 non d ame      -8.082   5.773  68.035  0.00  0.00     0.037 H 
BRANCH  90  93
ATOM     93  C17 non d ame      -7.611   4.635  66.283  0.00  0.00    -0.059 C 
ATOM     94  H23 non d ame      -8.066   4.690  65.294  0.00  0.00     0.038 H 
BRANCH  93  95
ATOM     95  C18 non d ame      -6.090   4.334  66.091  0.00  0.00    -0.073 C 
ATOM     96  H24 non d ame      -5.695   3.870  66.994  0.00  0.00     0.028 H 
ATOM     97  H25 non d ame      -5.958   3.658  65.247  0.00  0.00     0.028 H 
ATOM     98  H26 non d ame      -5.558   5.266  65.897  0.00  0.00     0.028 H 
ENDBRANCH  93  95
BRANCH  93  99
ATOM     99  C19 non d ame      -8.301   3.494  67.037  0.00  0.00    -0.073 C 
ATOM    100  H27 non d ame      -9.234   3.238  66.533  0.00  0.00     0.028 H 
ATOM    101  H28 non d ame      -7.645   2.623  67.054  0.00  0.00     0.028 H 
ATOM    102  H29 non d ame      -8.513   3.809  68.058  0.00  0.00     0.028 H 
ENDBRANCH  93  99
ENDBRANCH  90  93
ENDBRANCH   1  90
TORSDOF 26
ENDMDL
MODEL 4
REMARK VINA RESULT:      -6.6      2.284      7.663
REMARK  26 active torsions:
REMARK  status: ('A' for Active; 'I' for Inactive)
REMARK    1  A    between atoms: C2_2  and  C3_3 
REMARK    2  A    between atoms: C4_6  and  C5_7 
REMARK       I    between atoms: C5_7  and  N2_9 
REMARK    3  A    between atoms: N2_9  and  C6_10 
REMARK    4  A    between atoms: C6_10  and  C7_11 
REMARK    5  A    between atoms: C6_10  and  C8_13 
REMARK       I    between atoms: C7_11  and  N3_14 
REMARK    6  A    between atoms: N3_14  and  C9_15 
REMARK    7  A    between atoms: C9_15  and  C10_16 
REMARK    8  A    between atoms: C9_15  and  C11_18 
REMARK       I    between atoms: C10_16  and  N4_21 
REMARK    9  A    between atoms: C11_18  and  C12_19 
REMARK   10  A    between atoms: C11_18  and  C13_20 
REMARK   11  A    between atoms: N4_21  and  C14_22 
REMARK   12  A    between atoms: C14_22  and  C15_23 
REMARK   13  A    between atoms: C14_22  and  C16_25 
REMARK       I    between atoms: C15_23  and  N6_40 
REMARK   14  A    between atoms: C16_25  and  C17_26 
REMARK   15  A    between atoms: C17_26  and  C18_27 
REMARK   16  A    between atoms: C17_26  and  C19_28 
REMARK   17  A    between atoms: C20_29  and  C21_30 
REMARK   18  A    between atoms: C20_29  and  C24_33 
REMARK   19  A    between atoms: C20_29  and  N6_40 
REMARK   20  A    between atoms: C21_30  and  C22_31 
REMARK   21  A    between atoms: C22_31  and  C23_32 
REMARK   22  A    between atoms: C23_32  and  O8_43 
REMARK   23  A    between atoms: C24_33  and  C25_34 
REMARK   24  A    between atoms: C28_38  and  O6_39 
REMARK   25  A    between atoms: C29_42  and  O8_43 
REMARK   26  A    between atoms: C29_42  and  C35_49 
ROOT
ATOM      1  C14 non d ame     -10.024  12.015  65.433  0.00  0.00     0.089 C 
ATOM      2  H20 non d ame      -9.857  12.378  64.418  0.00  0.00     0.087 H 
ENDROOT
BRANCH   1   3
ATOM      3  N4  non d ame      -9.291  10.767  65.577  0.00  0.00    -0.346 N 
ATOM      4  C10 non d ame      -9.130   9.837  64.400  0.00  0.00     0.241 C 
ATOM      5  O4  non d ame      -9.603  10.115  63.347  0.00  0.00    -0.271 OA
ATOM      6  H19 non d ame      -8.899  10.547  66.482  0.00  0.00     0.163 HD
BRANCH   4   7
ATOM      7  C9  non d ame      -8.364   8.551  64.566  0.00  0.00     0.092 C 
ATOM      8  H11 non d ame      -7.440   8.750  65.109  0.00  0.00     0.088 H 
BRANCH   7   9
ATOM      9  N3  non d ame      -9.149   7.615  65.378  0.00  0.00    -0.346 N 
ATOM     10  C7  non d ame      -8.967   7.573  66.807  0.00  0.00     0.240 C 
ATOM     11  O3  non d ame      -8.193   8.283  67.322  0.00  0.00    -0.271 OA
ATOM     12  H10 non d ame      -9.821   6.995  64.947  0.00  0.00     0.163 HD
BRANCH  10  13
ATOM     13  C6  non d ame      -9.803   6.572  67.665  0.00  0.00     0.086 C 
ATOM     14  H6  non d ame      -9.192   6.007  68.368  0.00  0.00     0.086 H 
BRANCH  13  15
ATOM     15  N2  non d ame     -10.765   7.321  68.457  0.00  0.00    -0.343 N 
ATOM     16  C5  non d ame     -10.435   7.688  69.835  0.00  0.00     0.273 C 
ATOM     17  O2  non d ame      -9.394   7.374  70.298  0.00  0.00    -0.266 OA
ATOM     18  H5  non d ame     -11.654   7.582  68.054  0.00  0.00     0.163 HD
BRANCH  16  19
ATOM     19  C4  non d ame     -11.442   8.480  70.683  0.00  0.00     0.154 A 
ATOM     20  C1  non d ame     -11.697   9.888  70.634  0.00  0.00    -0.017 A 
ATOM     21  C2  non d ame     -12.701  10.109  71.602  0.00  0.00     0.077 A 
ATOM     22  H1  non d ame     -11.226  10.633  69.992  0.00  0.00     0.091 H 
ATOM     23  O1  non d ame     -12.984   8.958  72.138  0.00  0.00    -0.218 OA
ATOM     24  N1  non d ame     -12.262   7.992  71.618  0.00  0.00    -0.123 NA
BRANCH  21  25
ATOM     25  C3  non d ame     -13.336  11.449  71.951  0.00  0.00    -0.029 C 
ATOM     26  H2  non d ame     -13.620  11.967  71.035  0.00  0.00     0.036 H 
ATOM     27  H3  non d ame     -14.221  11.283  72.564  0.00  0.00     0.036 H 
ATOM     28  H4  non d ame     -12.619  12.057  72.506  0.00  0.00     0.036 H 
ENDBRANCH  21  25
ENDBRANCH  16  19
ENDBRANCH  13  15
BRANCH  13  29
ATOM     29  C8  non d ame     -10.522   5.606  66.757  0.00  0.00    -0.049 C 
ATOM     30  H7  non d ame      -9.824   4.841  66.417  0.00  0.00     0.030 H 
ATOM     31  H8  non d ame     -11.340   5.136  67.301  0.00  0.00     0.030 H 
ATOM     32  H9  non d ame     -10.918   6.144  65.896  0.00  0.00     0.030 H 
ENDBRANCH  13  29
ENDBRANCH  10  13
ENDBRANCH   7   9
BRANCH   7  33
ATOM     33  C11 non d ame      -8.097   7.923  63.167  0.00  0.00    -0.033 C 
ATOM     34  H12 non d ame      -8.905   8.234  62.507  0.00  0.00     0.042 H 
BRANCH  33  35
ATOM     35  C12 non d ame      -6.761   8.447  62.554  0.00  0.00    -0.071 C 
ATOM     36  H13 non d ame      -6.973   8.998  61.638  0.00  0.00     0.028 H 
ATOM     37  H14 non d ame      -6.268   9.106  63.268  0.00  0.00     0.028 H 
ATOM     38  H15 non d ame      -6.111   7.603  62.327  0.00  0.00     0.028 H 
ENDBRANCH  33  35
BRANCH  33  39
ATOM     39  C13 non d ame      -8.109   6.362  63.243  0.00  0.00    -0.071 C 
ATOM     40  H16 non d ame      -7.149   6.009  63.618  0.00  0.00     0.028 H 
ATOM     41  H17 non d ame      -8.904   6.037  63.916  0.00  0.00     0.028 H 
ATOM     42  H18 non d ame      -8.285   5.951  62.250  0.00  0.00     0.028 H 
ENDBRANCH  33  39
ENDBRANCH   7  33
ENDBRANCH   4   7
ENDBRANCH   1   3
BRANCH   1  43
ATOM     43  C15 non d ame      -9.511  13.016  66.507  0.00  0.00     0.240 C 
ATOM     44  O5  non d ame      -9.631  12.759  67.660  0.00  0.00    -0.271 OA
ATOM     45  N6  non d ame      -8.862  14.294  66.096  0.00  0.00    -0.355 N 
ATOM     46  H46 non d ame      -8.751  14.522  65.119  0.00  0.00     0.162 HD
BRANCH  45  47
ATOM     47  C20 non d ame      -8.379  15.235  67.129  0.00  0.00     0.013 C 
ATOM     48  H30 non d ame      -8.937  15.045  68.045  0.00  0.00     0.072 H 
BRANCH  47  49
ATOM     49  C21 non d ame      -8.618  16.654  66.665  0.00  0.00    -0.038 C 
ATOM     50  H31 non d ame      -8.155  17.292  67.417  0.00  0.00     0.036 H 
ATOM     51  H32 non d ame      -8.272  16.689  65.631  0.00  0.00     0.036 H 
BRANCH  49  52
ATOM     52  C22 non d ame     -10.116  17.030  66.636  0.00  0.00     0.018 C 
ATOM     53  H33 non d ame     -10.191  17.896  65.977  0.00  0.00     0.048 H 
ATOM     54  H34 non d ame     -10.646  16.111  66.389  0.00  0.00     0.048 H 
BRANCH  52  55
ATOM     55  C23 non d ame     -10.673  17.490  68.012  0.00  0.00     0.259 C 
ATOM     56  O7  non d ame     -10.386  18.556  68.453  0.00  0.00    -0.265 OA
BRANCH  55  57
ATOM     57  O8  non d ame     -11.520  16.617  68.748  0.00  0.00    -0.317 OA
BRANCH  57  58
ATOM     58  C29 non d ame     -10.855  15.909  69.798  0.00  0.00     0.052 C 
ATOM     59  H47 non d ame     -10.528  14.968  69.358  0.00  0.00     0.082 H 
ATOM     60  H48 non d ame     -10.121  16.605  70.204  0.00  0.00     0.082 H 
BRANCH  58  61
ATOM     61  C35 non d ame     -11.900  15.599  70.903  0.00  0.00    -0.034 A 
ATOM     62  C30 non d ame     -11.506  15.530  72.236  0.00  0.00    -0.075 A 
ATOM     63  C31 non d ame     -12.445  15.251  73.228  0.00  0.00    -0.082 A 
ATOM     64  H49 non d ame     -10.462  15.696  72.503  0.00  0.00     0.084 H 
ATOM     65  C32 non d ame     -13.782  15.037  72.883  0.00  0.00    -0.083 A 
ATOM     66  H50 non d ame     -12.134  15.202  74.272  0.00  0.00     0.083 H 
ATOM     67  C33 non d ame     -14.170  15.102  71.551  0.00  0.00    -0.082 A 
ATOM     68  H51 non d ame     -14.523  14.819  73.652  0.00  0.00     0.083 H 
ATOM     69  C34 non d ame     -13.235  15.383  70.557  0.00  0.00    -0.075 A 
ATOM     70  H52 non d ame     -15.214  14.933  71.285  0.00  0.00     0.083 H 
ATOM     71  H53 non d ame     -13.548  15.434  69.513  0.00  0.00     0.084 H 
ENDBRANCH  58  61
ENDBRANCH  57  58
ENDBRANCH  55  57
ENDBRANCH  52  55
ENDBRANCH  49  52
ENDBRANCH  47  49
BRANCH  47  72
ATOM     72  C24 non d ame      -6.885  15.021  67.364  0.00  0.00    -0.039 C 
ATOM     73  H35 non d ame      -6.532  14.462  66.497  0.00  0.00     0.036 H 
ATOM     74  H36 non d ame      -6.479  16.011  67.575  0.00  0.00     0.036 H 
BRANCH  72  75
ATOM     75  C25 non d ame      -6.611  14.113  68.655  0.00  0.00    -0.001 C 
ATOM     76  C26 non d ame      -5.529  14.858  69.643  0.00  0.00    -0.035 C 
ATOM     77  C27 non d ame      -4.536  13.984  69.940  0.00  0.00     0.085 C 
ATOM     78  H38 non d ame      -5.015  15.653  69.104  0.00  0.00     0.036 H 
ATOM     79  H39 non d ame      -5.985  15.062  70.612  0.00  0.00     0.036 H 
ATOM     80  N5  non d ame      -4.671  12.823  68.984  0.00  0.00    -0.049 N 
ATOM     81  H40 non d ame      -3.608  14.515  69.726  0.00  0.00     0.075 H 
ATOM     82  H41 non d ame      -4.746  13.638  70.951  0.00  0.00     0.075 H 
ATOM     83  C28 non d ame      -6.138  12.958  68.324  0.00  0.00     0.193 C 
ATOM     84  H42 non d ame      -3.979  12.964  68.263  0.00  0.00     0.280 HD
ATOM     85  H43 non d ame      -4.649  11.985  69.548  0.00  0.00     0.280 HD
ATOM     86  H44 non d ame      -6.952  12.310  68.645  0.00  0.00     0.129 H 
ATOM     87  H37 non d ame      -7.535  13.756  69.111  0.00  0.00     0.046 H 
BRANCH  83  88
ATOM     88  O6  non d ame      -6.058  12.796  66.907  0.00  0.00    -0.369 OA
ATOM     89  H45 non d ame      -5.161  12.977  66.614  0.00  0.00     0.212 HD
ENDBRANCH  83  88
ENDBRANCH  72  75
ENDBRANCH  47  72
ENDBRANCH  45  47
ENDBRANCH   1  43
BRANCH   1  90
ATOM     90  C16 non d ame     -11.505  11.749  65.648  0.00  0.00    -0.035 C 
ATOM     91  H21 non d ame     -11.671  10.734  65.283  0.00  0.00     0.037 H 
ATOM     92  H22 non d ame     -11.693  11.989  66.694  0.00  0.00     0.037 H 
BRANCH  90  93
ATOM     93  C17 non d ame     -12.438  12.677  64.807  0.00  0.00    -0.059 C 
ATOM     94  H23 non d ame     -13.416  12.199  64.751  0.00  0.00     0.038 H 
BRANCH  93  95
ATOM     95  C18 non d ame     -12.630  14.078  65.471  0.00  0.00    -0.073 C 
ATOM     96  H24 non d ame     -11.744  14.688  65.294  0.00  0.00     0.028 H 
ATOM     97  H25 non d ame     -13.501  14.569  65.038  0.00  0.00     0.028 H 
ATOM     98  H26 non d ame     -12.778  13.954  66.544  0.00  0.00     0.028 H 
ENDBRANCH  93  95
BRANCH  93  99
ATOM     99  C19 non d ame     -11.920  12.820  63.373  0.00  0.00    -0.073 C 
ATOM    100  H27 non d ame     -11.019  13.435  63.372  0.00  0.00     0.028 H 
ATOM    101  H28 non d ame     -11.687  11.834  62.972  0.00  0.00     0.028 H 
ATOM    102  H29 non d ame     -12.684  13.292  62.756  0.00  0.00     0.028 H 
ENDBRANCH  93  99
ENDBRANCH  90  93
ENDBRANCH   1  90
TORSDOF 26
ENDMDL
MODEL 5
REMARK VINA RESULT:      -6.5      3.027      8.400
REMARK  26 active torsions:
REMARK  status: ('A' for Active; 'I' for Inactive)
REMARK    1  A    between atoms: C2_2  and  C3_3 
REMARK    2  A    between atoms: C4_6  and  C5_7 
REMARK       I    between atoms: C5_7  and  N2_9 
REMARK    3  A    between atoms: N2_9  and  C6_10 
REMARK    4  A    between atoms: C6_10  and  C7_11 
REMARK    5  A    between atoms: C6_10  and  C8_13 
REMARK       I    between atoms: C7_11  and  N3_14 
REMARK    6  A    between atoms: N3_14  and  C9_15 
REMARK    7  A    between atoms: C9_15  and  C10_16 
REMARK    8  A    between atoms: C9_15  and  C11_18 
REMARK       I    between atoms: C10_16  and  N4_21 
REMARK    9  A    between atoms: C11_18  and  C12_19 
REMARK   10  A    between atoms: C11_18  and  C13_20 
REMARK   11  A    between atoms: N4_21  and  C14_22 
REMARK   12  A    between atoms: C14_22  and  C15_23 
REMARK   13  A    between atoms: C14_22  and  C16_25 
REMARK       I    between atoms: C15_23  and  N6_40 
REMARK   14  A    between atoms: C16_25  and  C17_26 
REMARK   15  A    between atoms: C17_26  and  C18_27 
REMARK   16  A    between atoms: C17_26  and  C19_28 
REMARK   17  A    between atoms: C20_29  and  C21_30 
REMARK   18  A    between atoms: C20_29  and  C24_33 
REMARK   19  A    between atoms: C20_29  and  N6_40 
REMARK   20  A    between atoms: C21_30  and  C22_31 
REMARK   21  A    between atoms: C22_31  and  C23_32 
REMARK   22  A    between atoms: C23_32  and  O8_43 
REMARK   23  A    between atoms: C24_33  and  C25_34 
REMARK   24  A    between atoms: C28_38  and  O6_39 
REMARK   25  A    between atoms: C29_42  and  O8_43 
REMARK   26  A    between atoms: C29_42  and  C35_49 
ROOT
ATOM      1  C14 non d ame      -7.674   9.543  66.257  0.00  0.00     0.089 C 
ATOM      2  H20 non d ame      -7.908   8.823  65.472  0.00  0.00     0.087 H 
ENDROOT
BRANCH   1   3
ATOM      3  N4  non d ame      -8.481  10.730  66.017  0.00  0.00    -0.346 N 
ATOM      4  C10 non d ame      -9.941  10.599  65.657  0.00  0.00     0.241 C 
ATOM      5  O4  non d ame     -10.442   9.526  65.565  0.00  0.00    -0.271 OA
ATOM      6  H19 non d ame      -8.036  11.633  66.098  0.00  0.00     0.163 HD
BRANCH   4   7
ATOM      7  C9  non d ame     -10.763  11.837  65.417  0.00  0.00     0.092 C 
ATOM      8  H11 non d ame     -11.768  11.683  65.810  0.00  0.00     0.088 H 
BRANCH   7   9
ATOM      9  N3  non d ame     -10.179  12.962  66.155  0.00  0.00    -0.346 N 
ATOM     10  C7  non d ame     -10.662  13.287  67.474  0.00  0.00     0.240 C 
ATOM     11  O3  non d ame     -11.520  12.655  67.958  0.00  0.00    -0.271 OA
ATOM     12  H10 non d ame      -9.439  13.518  65.751  0.00  0.00     0.163 HD
BRANCH  10  13
ATOM     13  C6  non d ame     -10.039  14.487  68.253  0.00  0.00     0.086 C 
ATOM     14  H6  non d ame     -10.227  15.447  67.770  0.00  0.00     0.086 H 
BRANCH  13  15
ATOM     15  N2  non d ame     -10.647  14.560  69.572  0.00  0.00    -0.343 N 
ATOM     16  C5  non d ame     -11.704  15.541  69.827  0.00  0.00     0.273 C 
ATOM     17  O2  non d ame     -12.055  16.269  68.965  0.00  0.00    -0.266 OA
ATOM     18  H5  non d ame     -10.338  13.935  70.303  0.00  0.00     0.163 HD
BRANCH  16  19
ATOM     19  C4  non d ame     -12.355  15.628  71.215  0.00  0.00     0.154 A 
ATOM     20  C1  non d ame     -11.693  15.805  72.472  0.00  0.00    -0.017 A 
ATOM     21  C2  non d ame     -12.730  15.819  73.430  0.00  0.00     0.077 A 
ATOM     22  H1  non d ame     -10.624  15.909  72.659  0.00  0.00     0.091 H 
ATOM     23  O1  non d ame     -13.852  15.669  72.789  0.00  0.00    -0.218 OA
ATOM     24  N1  non d ame     -13.659  15.555  71.495  0.00  0.00    -0.123 NA
BRANCH  21  25
ATOM     25  C3  non d ame     -12.565  15.982  74.935  0.00  0.00    -0.029 C 
ATOM     26  H2  non d ame     -11.654  16.544  75.142  0.00  0.00     0.036 H 
ATOM     27  H3  non d ame     -13.422  16.519  75.340  0.00  0.00     0.036 H 
ATOM     28  H4  non d ame     -12.498  14.999  75.403  0.00  0.00     0.036 H 
ENDBRANCH  21  25
ENDBRANCH  16  19
ENDBRANCH  13  15
BRANCH  13  29
ATOM     29  C8  non d ame      -8.550  14.289  68.381  0.00  0.00    -0.049 C 
ATOM     30  H7  non d ame      -8.033  15.176  68.013  0.00  0.00     0.030 H 
ATOM     31  H8  non d ame      -8.293  14.125  69.427  0.00  0.00     0.030 H 
ATOM     32  H9  non d ame      -8.248  13.423  67.792  0.00  0.00     0.030 H 
ENDBRANCH  13  29
ENDBRANCH  10  13
ENDBRANCH   7   9
BRANCH   7  33
ATOM     33  C11 non d ame     -10.772  12.167  63.896  0.00  0.00    -0.033 C 
ATOM     34  H12 non d ame     -10.499  13.215  63.785  0.00  0.00     0.042 H 
BRANCH  33  35
ATOM     35  C12 non d ame      -9.711  11.320  63.125  0.00  0.00    -0.071 C 
ATOM     36  H13 non d ame     -10.215  10.541  62.553  0.00  0.00     0.028 H 
ATOM     37  H14 non d ame      -9.154  11.966  62.447  0.00  0.00     0.028 H 
ATOM     38  H15 non d ame      -9.026  10.863  63.837  0.00  0.00     0.028 H 
ENDBRANCH  33  35
BRANCH  33  39
ATOM     39  C13 non d ame     -12.199  11.972  63.290  0.00  0.00    -0.071 C 
ATOM     40  H16 non d ame     -12.295  12.571  62.385  0.00  0.00     0.028 H 
ATOM     41  H17 non d ame     -12.351  10.920  63.047  0.00  0.00     0.028 H 
ATOM     42  H18 non d ame     -12.949  12.288  64.016  0.00  0.00     0.028 H 
ENDBRANCH  33  39
ENDBRANCH   7  33
ENDBRANCH   4   7
ENDBRANCH   1   3
BRANCH   1  43
ATOM     43  C15 non d ame      -8.008   8.997  67.674  0.00  0.00     0.240 C 
ATOM     44  O5  non d ame      -7.529   9.509  68.633  0.00  0.00    -0.271 OA
ATOM     45  N6  non d ame      -8.932   7.838  67.836  0.00  0.00    -0.355 N 
ATOM     46  H46 non d ame      -9.348   7.397  67.029  0.00  0.00     0.162 HD
BRANCH  45  47
ATOM     47  C20 non d ame      -9.241   7.331  69.190  0.00  0.00     0.013 C 
ATOM     48  H30 non d ame      -8.606   7.861  69.900  0.00  0.00     0.072 H 
BRANCH  47  49
ATOM     49  C21 non d ame      -8.951   5.848  69.247  0.00  0.00    -0.038 C 
ATOM     50  H31 non d ame      -8.009   5.711  68.718  0.00  0.00     0.036 H 
ATOM     51  H32 non d ame      -9.032   5.572  70.299  0.00  0.00     0.036 H 
BRANCH  49  52
ATOM     52  C22 non d ame     -10.001   5.004  68.493  0.00  0.00     0.018 C 
ATOM     53  H33 non d ame     -10.714   4.673  69.249  0.00  0.00     0.048 H 
ATOM     54  H34 non d ame     -10.338   5.623  67.662  0.00  0.00     0.048 H 
BRANCH  52  55
ATOM     55  C23 non d ame      -9.424   3.709  67.855  0.00  0.00     0.259 C 
ATOM     56  O7  non d ame      -9.186   2.760  68.529  0.00  0.00    -0.265 OA
BRANCH  55  57
ATOM     57  O8  non d ame      -9.169   3.675  66.456  0.00  0.00    -0.317 OA
BRANCH  57  58
ATOM     58  C29 non d ame      -9.317   4.942  65.807  0.00  0.00     0.052 C 
ATOM     59  H47 non d ame     -10.098   4.802  65.062  0.00  0.00     0.082 H 
ATOM     60  H48 non d ame      -9.451   5.669  66.608  0.00  0.00     0.082 H 
BRANCH  58  61
ATOM     61  C35 non d ame      -7.987   5.261  65.073  0.00  0.00    -0.034 A 
ATOM     62  C30 non d ame      -8.008   5.695  63.751  0.00  0.00    -0.075 A 
ATOM     63  C31 non d ame      -6.813   5.982  63.092  0.00  0.00    -0.082 A 
ATOM     64  H49 non d ame      -8.960   5.811  63.232  0.00  0.00     0.084 H 
ATOM     65  C32 non d ame      -5.595   5.829  63.758  0.00  0.00    -0.083 A 
ATOM     66  H50 non d ame      -6.833   6.325  62.057  0.00  0.00     0.083 H 
ATOM     67  C33 non d ame      -5.578   5.393  65.076  0.00  0.00    -0.082 A 
ATOM     68  H51 non d ame      -4.656   6.052  63.250  0.00  0.00     0.083 H 
ATOM     69  C34 non d ame      -6.770   5.108  65.739  0.00  0.00    -0.075 A 
ATOM     70  H52 non d ame      -4.625   5.273  65.592  0.00  0.00     0.083 H 
ATOM     71  H53 non d ame      -6.749   4.766  66.775  0.00  0.00     0.084 H 
ENDBRANCH  58  61
ENDBRANCH  57  58
ENDBRANCH  55  57
ENDBRANCH  52  55
ENDBRANCH  49  52
ENDBRANCH  47  49
BRANCH  47  72
ATOM     72  C24 non d ame     -10.714   7.576  69.510  0.00  0.00    -0.039 C 
ATOM     73  H35 non d ame     -11.174   7.855  68.561  0.00  0.00     0.036 H 
ATOM     74  H36 non d ame     -11.050   6.681  70.035  0.00  0.00     0.036 H 
BRANCH  72  75
ATOM     75  C25 non d ame     -10.907   8.812  70.511  0.00  0.00    -0.001 C 
ATOM     76  C26 non d ame     -12.025   8.435  71.656  0.00  0.00    -0.035 C 
ATOM     77  C27 non d ame     -12.950   9.423  71.704  0.00  0.00     0.085 C 
ATOM     78  H38 non d ame     -12.599   7.563  71.346  0.00  0.00     0.036 H 
ATOM     79  H39 non d ame     -11.571   8.464  72.646  0.00  0.00     0.036 H 
ATOM     80  N5  non d ame     -12.748  10.276  70.474  0.00  0.00    -0.049 N 
ATOM     81  H40 non d ame     -13.916   8.921  71.633  0.00  0.00     0.075 H 
ATOM     82  H41 non d ame     -12.704  10.010  72.587  0.00  0.00     0.075 H 
ATOM     83  C28 non d ame     -11.303   9.867  69.882  0.00  0.00     0.193 C 
ATOM     84  H42 non d ame     -13.458   9.997  69.812  0.00  0.00     0.280 HD
ATOM     85  H43 non d ame     -12.705  11.233  70.794  0.00  0.00     0.280 HD
ATOM     86  H44 non d ame     -10.441  10.518  70.023  0.00  0.00     0.129 H 
ATOM     87  H37 non d ame      -9.954   9.211  70.860  0.00  0.00     0.046 H 
BRANCH  83  88
ATOM     88  O6  non d ame     -11.391   9.652  68.472  0.00  0.00    -0.369 OA
ATOM     89  H45 non d ame     -10.547   9.330  68.145  0.00  0.00     0.212 HD
ENDBRANCH  83  88
ENDBRANCH  72  75
ENDBRANCH  47  72
ENDBRANCH  45  47
ENDBRANCH   1  43
BRANCH   1  90
ATOM     90  C16 non d ame      -6.203   9.921  66.188  0.00  0.00    -0.035 C 
ATOM     91  H21 non d ame      -6.190  10.985  65.944  0.00  0.00     0.037 H 
ATOM     92  H22 non d ame      -5.771   9.572  67.125  0.00  0.00     0.037 H 
BRANCH  90  93
ATOM     93  C17 non d ame      -5.423   9.198  65.045  0.00  0.00    -0.059 C 
ATOM     94  H23 non d ame      -5.597   8.127  65.152  0.00  0.00     0.038 H 
BRANCH  93  95
ATOM     95  C18 non d ame      -5.925   9.622  63.627  0.00  0.00    -0.073 C 
ATOM     96  H24 non d ame      -6.374  10.613  63.683  0.00  0.00     0.028 H 
ATOM     97  H25 non d ame      -5.084   9.642  62.935  0.00  0.00     0.028 H 
ATOM     98  H26 non d ame      -6.668   8.905  63.276  0.00  0.00     0.028 H 
ENDBRANCH  93  95
BRANCH  93  99
ATOM     99  C19 non d ame      -3.915   9.429  65.180  0.00  0.00    -0.073 C 
ATOM    100  H27 non d ame      -3.401   8.978  64.330  0.00  0.00     0.028 H 
ATOM    101  H28 non d ame      -3.714  10.500  65.200  0.00  0.00     0.028 H 
ATOM    102  H29 non d ame      -3.559   8.975  66.104  0.00  0.00     0.028 H 
ENDBRANCH  93  99
ENDBRANCH  90  93
ENDBRANCH   1  90
TORSDOF 26
ENDMDL
MODEL 6
REMARK VINA RESULT:      -6.5      2.088      8.182
REMARK  26 active torsions:
REMARK  status: ('A' for Active; 'I' for Inactive)
REMARK    1  A    between atoms: C2_2  and  C3_3 
REMARK    2  A    between atoms: C4_6  and  C5_7 
REMARK       I    between atoms: C5_7  and  N2_9 
REMARK    3  A    between atoms: N2_9  and  C6_10 
REMARK    4  A    between atoms: C6_10  and  C7_11 
REMARK    5  A    between atoms: C6_10  and  C8_13 
REMARK       I    between atoms: C7_11  and  N3_14 
REMARK    6  A    between atoms: N3_14  and  C9_15 
REMARK    7  A    between atoms: C9_15  and  C10_16 
REMARK    8  A    between atoms: C9_15  and  C11_18 
REMARK       I    between atoms: C10_16  and  N4_21 
REMARK    9  A    between atoms: C11_18  and  C12_19 
REMARK   10  A    between atoms: C11_18  and  C13_20 
REMARK   11  A    between atoms: N4_21  and  C14_22 
REMARK   12  A    between atoms: C14_22  and  C15_23 
REMARK   13  A    between atoms: C14_22  and  C16_25 
REMARK       I    between atoms: C15_23  and  N6_40 
REMARK   14  A    between atoms: C16_25  and  C17_26 
REMARK   15  A    between atoms: C17_26  and  C18_27 
REMARK   16  A    between atoms: C17_26  and  C19_28 
REMARK   17  A    between atoms: C20_29  and  C21_30 
REMARK   18  A    between atoms: C20_29  and  C24_33 
REMARK   19  A    between atoms: C20_29  and  N6_40 
REMARK   20  A    between atoms: C21_30  and  C22_31 
REMARK   21  A    between atoms: C22_31  and  C23_32 
REMARK   22  A    between atoms: C23_32  and  O8_43 
REMARK   23  A    between atoms: C24_33  and  C25_34 
REMARK   24  A    between atoms: C28_38  and  O6_39 
REMARK   25  A    between atoms: C29_42  and  O8_43 
REMARK   26  A    between atoms: C29_42  and  C35_49 
ROOT
ATOM      1  C14 non d ame      -6.402  13.765  68.145  0.00  0.00     0.089 C 
ATOM      2  H20 non d ame      -5.706  13.767  67.306  0.00  0.00     0.087 H 
ENDROOT
BRANCH   1   3
ATOM      3  N4  non d ame      -6.750  15.149  68.429  0.00  0.00    -0.346 N 
ATOM      4  C10 non d ame      -6.075  16.273  67.682  0.00  0.00     0.241 C 
ATOM      5  O4  non d ame      -5.254  16.037  66.857  0.00  0.00    -0.271 OA
ATOM      6  H19 non d ame      -7.449  15.329  69.136  0.00  0.00     0.163 HD
BRANCH   4   7
ATOM      7  C9  non d ame      -6.451  17.699  67.985  0.00  0.00     0.092 C 
ATOM      8  H11 non d ame      -6.137  18.337  67.158  0.00  0.00     0.088 H 
BRANCH   7   9
ATOM      9  N3  non d ame      -7.910  17.810  68.086  0.00  0.00    -0.346 N 
ATOM     10  C7  non d ame      -8.710  17.896  66.891  0.00  0.00     0.240 C 
ATOM     11  O3  non d ame      -8.199  17.878  65.838  0.00  0.00    -0.271 OA
ATOM     12  H10 non d ame      -8.365  17.828  68.988  0.00  0.00     0.163 HD
BRANCH  10  13
ATOM     13  C6  non d ame     -10.262  18.017  67.006  0.00  0.00     0.086 C 
ATOM     14  H6  non d ame     -10.787  17.485  66.212  0.00  0.00     0.086 H 
BRANCH  13  15
ATOM     15  N2  non d ame     -10.690  17.419  68.260  0.00  0.00    -0.343 N 
ATOM     16  C5  non d ame     -11.134  16.024  68.280  0.00  0.00     0.273 C 
ATOM     17  O2  non d ame     -11.146  15.392  67.282  0.00  0.00    -0.266 OA
ATOM     18  H5  non d ame     -10.679  17.968  69.108  0.00  0.00     0.163 HD
BRANCH  16  19
ATOM     19  C4  non d ame     -11.587  15.380  69.599  0.00  0.00     0.154 A 
ATOM     20  C1  non d ame     -11.732  16.021  70.871  0.00  0.00    -0.017 A 
ATOM     21  C2  non d ame     -12.171  15.002  71.744  0.00  0.00     0.077 A 
ATOM     22  H1  non d ame     -11.548  17.066  71.120  0.00  0.00     0.091 H 
ATOM     23  O1  non d ame     -12.266  13.908  71.047  0.00  0.00    -0.218 OA
ATOM     24  N1  non d ame     -11.931  14.103  69.792  0.00  0.00    -0.123 NA
BRANCH  21  25
ATOM     25  C3  non d ame     -12.478  15.157  73.228  0.00  0.00    -0.029 C 
ATOM     26  H2  non d ame     -13.272  15.892  73.360  0.00  0.00     0.036 H 
ATOM     27  H3  non d ame     -12.798  14.198  73.635  0.00  0.00     0.036 H 
ATOM     28  H4  non d ame     -11.581  15.492  73.752  0.00  0.00     0.036 H 
ENDBRANCH  21  25
ENDBRANCH  16  19
ENDBRANCH  13  15
BRANCH  13  29
ATOM     29  C8  non d ame     -10.660  19.470  66.964  0.00  0.00    -0.049 C 
ATOM     30  H7  non d ame     -10.374  19.952  67.900  0.00  0.00     0.030 H 
ATOM     31  H8  non d ame     -10.157  19.963  66.133  0.00  0.00     0.030 H 
ATOM     32  H9  non d ame     -11.740  19.547  66.833  0.00  0.00     0.030 H 
ENDBRANCH  13  29
ENDBRANCH  10  13
ENDBRANCH   7   9
BRANCH   7  33
ATOM     33  C11 non d ame      -5.805  18.130  69.334  0.00  0.00    -0.033 C 
ATOM     34  H12 non d ame      -6.110  17.408  70.090  0.00  0.00     0.042 H 
BRANCH  33  35
ATOM     35  C12 non d ame      -4.247  18.098  69.254  0.00  0.00    -0.071 C 
ATOM     36  H13 non d ame      -3.892  18.974  68.711  0.00  0.00     0.028 H 
ATOM     37  H14 non d ame      -3.831  18.102  70.261  0.00  0.00     0.028 H 
ATOM     38  H15 non d ame      -3.930  17.195  68.734  0.00  0.00     0.028 H 
ENDBRANCH  33  35
BRANCH  33  39
ATOM     39  C13 non d ame      -6.319  19.538  69.776  0.00  0.00    -0.071 C 
ATOM     40  H16 non d ame      -5.518  20.074  70.284  0.00  0.00     0.028 H 
ATOM     41  H17 non d ame      -6.634  20.102  68.897  0.00  0.00     0.028 H 
ATOM     42  H18 non d ame      -7.165  19.420  70.453  0.00  0.00     0.028 H 
ENDBRANCH  33  39
ENDBRANCH   7  33
ENDBRANCH   4   7
ENDBRANCH   1   3
BRANCH   1  43
ATOM     43  C15 non d ame      -7.708  12.983  67.824  0.00  0.00     0.240 C 
ATOM     44  O5  non d ame      -8.722  13.277  68.369  0.00  0.00    -0.271 OA
ATOM     45  N6  non d ame      -7.696  11.874  66.828  0.00  0.00    -0.355 N 
ATOM     46  H46 non d ame      -6.841  11.619  66.355  0.00  0.00     0.162 HD
BRANCH  45  47
ATOM     47  C20 non d ame      -8.945  11.141  66.532  0.00  0.00     0.013 C 
ATOM     48  H30 non d ame      -9.783  11.799  66.763  0.00  0.00     0.072 H 
BRANCH  47  49
ATOM     49  C21 non d ame      -9.013   9.899  67.392  0.00  0.00    -0.038 C 
ATOM     50  H31 non d ame      -8.573   9.102  66.794  0.00  0.00     0.036 H 
ATOM     51  H32 non d ame      -8.563  10.177  68.346  0.00  0.00     0.036 H 
BRANCH  49  52
ATOM     52  C22 non d ame     -10.462   9.464  67.703  0.00  0.00     0.018 C 
ATOM     53  H33 non d ame     -10.949   9.345  66.734  0.00  0.00     0.048 H 
ATOM     54  H34 non d ame     -10.376   8.612  68.377  0.00  0.00     0.048 H 
BRANCH  52  55
ATOM     55  C23 non d ame     -11.288  10.535  68.468  0.00  0.00     0.259 C 
ATOM     56  O7  non d ame     -12.195  11.089  67.937  0.00  0.00    -0.265 OA
BRANCH  55  57
ATOM     57  O8  non d ame     -10.938  10.858  69.808  0.00  0.00    -0.317 OA
BRANCH  57  58
ATOM     58  C29 non d ame     -11.791  10.262  70.791  0.00  0.00     0.052 C 
ATOM     59  H47 non d ame     -12.016  11.054  71.505  0.00  0.00     0.082 H 
ATOM     60  H48 non d ame     -12.597   9.787  70.233  0.00  0.00     0.082 H 
BRANCH  58  61
ATOM     61  C35 non d ame     -10.981   9.157  71.520  0.00  0.00    -0.034 A 
ATOM     62  C30 non d ame     -11.621   8.292  72.402  0.00  0.00    -0.075 A 
ATOM     63  C31 non d ame     -10.893   7.299  73.057  0.00  0.00    -0.082 A 
ATOM     64  H49 non d ame     -12.692   8.390  72.579  0.00  0.00     0.084 H 
ATOM     65  C32 non d ame      -9.520   7.176  72.830  0.00  0.00    -0.083 A 
ATOM     66  H50 non d ame     -11.398   6.620  73.745  0.00  0.00     0.083 H 
ATOM     67  C33 non d ame      -8.885   8.045  71.952  0.00  0.00    -0.082 A 
ATOM     68  H51 non d ame      -8.943   6.402  73.338  0.00  0.00     0.083 H 
ATOM     69  C34 non d ame      -9.609   9.037  71.294  0.00  0.00    -0.075 A 
ATOM     70  H52 non d ame      -7.812   7.947  71.779  0.00  0.00     0.083 H 
ATOM     71  H53 non d ame      -9.103   9.714  70.605  0.00  0.00     0.084 H 
ENDBRANCH  58  61
ENDBRANCH  57  58
ENDBRANCH  55  57
ENDBRANCH  52  55
ENDBRANCH  49  52
ENDBRANCH  47  49
BRANCH  47  72
ATOM     72  C24 non d ame      -8.974  10.743  65.058  0.00  0.00    -0.039 C 
ATOM     73  H35 non d ame      -7.933  10.762  64.733  0.00  0.00     0.036 H 
ATOM     74  H36 non d ame      -9.539   9.811  65.020  0.00  0.00     0.036 H 
BRANCH  72  75
ATOM     75  C25 non d ame      -9.767  11.814  64.169  0.00  0.00    -0.001 C 
ATOM     76  C26 non d ame     -10.953  12.516  65.065  0.00  0.00    -0.035 C 
ATOM     77  C27 non d ame     -12.120  12.436  64.382  0.00  0.00     0.085 C 
ATOM     78  H38 non d ame     -11.142  11.928  65.962  0.00  0.00     0.036 H 
ATOM     79  H39 non d ame     -10.778  13.589  65.143  0.00  0.00     0.036 H 
ATOM     80  N5  non d ame     -11.905  11.456  63.253  0.00  0.00    -0.049 N 
ATOM     81  H40 non d ame     -12.841  12.015  65.084  0.00  0.00     0.075 H 
ATOM     82  H41 non d ame     -12.282  13.429  63.964  0.00  0.00     0.075 H 
ATOM     83  C28 non d ame     -10.307  11.258  63.136  0.00  0.00     0.193 C 
ATOM     84  H42 non d ame     -12.317  10.584  63.548  0.00  0.00     0.280 HD
ATOM     85  H43 non d ame     -12.233  11.911  62.413  0.00  0.00     0.280 HD
ATOM     86  H44 non d ame      -9.745  11.738  62.336  0.00  0.00     0.129 H 
ATOM     87  H37 non d ame      -9.094  12.480  63.628  0.00  0.00     0.046 H 
BRANCH  83  88
ATOM     88  O6  non d ame      -9.988   9.868  63.045  0.00  0.00    -0.369 OA
ATOM     89  H45 non d ame      -9.107   9.765  62.678  0.00  0.00     0.212 HD
ENDBRANCH  83  88
ENDBRANCH  72  75
ENDBRANCH  47  72
ENDBRANCH  45  47
ENDBRANCH   1  43
BRANCH   1  90
ATOM     90  C16 non d ame      -5.732  13.160  69.368  0.00  0.00    -0.035 C 
ATOM     91  H21 non d ame      -6.023  13.800  70.203  0.00  0.00     0.037 H 
ATOM     92  H22 non d ame      -6.017  12.109  69.364  0.00  0.00     0.037 H 
BRANCH  90  93
ATOM     93  C17 non d ame      -4.172  13.195  69.310  0.00  0.00    -0.059 C 
ATOM     94  H23 non d ame      -3.802  12.320  69.844  0.00  0.00     0.038 H 
BRANCH  93  95
ATOM     95  C18 non d ame      -3.634  13.121  67.845  0.00  0.00    -0.073 C 
ATOM     96  H24 non d ame      -4.469  13.202  67.148  0.00  0.00     0.028 H 
ATOM     97  H25 non d ame      -2.936  13.940  67.673  0.00  0.00     0.028 H 
ATOM     98  H26 non d ame      -3.124  12.170  67.694  0.00  0.00     0.028 H 
ENDBRANCH  93  95
BRANCH  93  99
ATOM     99  C19 non d ame      -3.624  14.431  70.029  0.00  0.00    -0.073 C 
ATOM    100  H27 non d ame      -4.425  14.902  70.601  0.00  0.00     0.028 H 
ATOM    101  H28 non d ame      -2.822  14.132  70.703  0.00  0.00     0.028 H 
ATOM    102  H29 non d ame      -3.237  15.137  69.295  0.00  0.00     0.028 H 
ENDBRANCH  93  99
ENDBRANCH  90  93
ENDBRANCH   1  90
TORSDOF 26
ENDMDL
MODEL 7
REMARK VINA RESULT:      -6.3      3.462      9.682
REMARK  26 active torsions:
REMARK  status: ('A' for Active; 'I' for Inactive)
REMARK    1  A    between atoms: C2_2  and  C3_3 
REMARK    2  A    between atoms: C4_6  and  C5_7 
REMARK       I    between atoms: C5_7  and  N2_9 
REMARK    3  A    between atoms: N2_9  and  C6_10 
REMARK    4  A    between atoms: C6_10  and  C7_11 
REMARK    5  A    between atoms: C6_10  and  C8_13 
REMARK       I    between atoms: C7_11  and  N3_14 
REMARK    6  A    between atoms: N3_14  and  C9_15 
REMARK    7  A    between atoms: C9_15  and  C10_16 
REMARK    8  A    between atoms: C9_15  and  C11_18 
REMARK       I    between atoms: C10_16  and  N4_21 
REMARK    9  A    between atoms: C11_18  and  C12_19 
REMARK   10  A    between atoms: C11_18  and  C13_20 
REMARK   11  A    between atoms: N4_21  and  C14_22 
REMARK   12  A    between atoms: C14_22  and  C15_23 
REMARK   13  A    between atoms: C14_22  and  C16_25 
REMARK       I    between atoms: C15_23  and  N6_40 
REMARK   14  A    between atoms: C16_25  and  C17_26 
REMARK   15  A    between atoms: C17_26  and  C18_27 
REMARK   16  A    between atoms: C17_26  and  C19_28 
REMARK   17  A    between atoms: C20_29  and  C21_30 
REMARK   18  A    between atoms: C20_29  and  C24_33 
REMARK   19  A    between atoms: C20_29  and  N6_40 
REMARK   20  A    between atoms: C21_30  and  C22_31 
REMARK   21  A    between atoms: C22_31  and  C23_32 
REMARK   22  A    between atoms: C23_32  and  O8_43 
REMARK   23  A    between atoms: C24_33  and  C25_34 
REMARK   24  A    between atoms: C28_38  and  O6_39 
REMARK   25  A    between atoms: C29_42  and  O8_43 
REMARK   26  A    between atoms: C29_42  and  C35_49 
ROOT
ATOM      1  C14 non d ame      -6.951   6.011  64.503  0.00  0.00     0.089 C 
ATOM      2  H20 non d ame      -7.208   5.718  63.484  0.00  0.00     0.087 H 
ENDROOT
BRANCH   1   3
ATOM      3  N4  non d ame      -6.669   7.438  64.491  0.00  0.00    -0.346 N 
ATOM      4  C10 non d ame      -7.373   8.346  63.513  0.00  0.00     0.241 C 
ATOM      5  O4  non d ame      -8.160   7.903  62.743  0.00  0.00    -0.271 OA
ATOM      6  H19 non d ame      -5.994   7.796  65.152  0.00  0.00     0.163 HD
BRANCH   4   7
ATOM      7  C9  non d ame      -7.072   9.822  63.517  0.00  0.00     0.092 C 
ATOM      8  H11 non d ame      -7.041  10.185  62.490  0.00  0.00     0.088 H 
BRANCH   7   9
ATOM      9  N3  non d ame      -8.156  10.539  64.196  0.00  0.00    -0.346 N 
ATOM     10  C7  non d ame      -9.245  11.093  63.430  0.00  0.00     0.240 C 
ATOM     11  O3  non d ame      -9.266  10.971  62.266  0.00  0.00    -0.271 OA
ATOM     12  H10 non d ame      -8.152  10.653  65.200  0.00  0.00     0.163 HD
BRANCH  10  13
ATOM     13  C6  non d ame     -10.394  11.858  64.158  0.00  0.00     0.086 C 
ATOM     14  H6  non d ame     -10.592  11.470  65.157  0.00  0.00     0.086 H 
BRANCH  13  15
ATOM     15  N2  non d ame     -10.004  13.249  64.321  0.00  0.00    -0.343 N 
ATOM     16  C5  non d ame     -10.509  14.011  65.466  0.00  0.00     0.273 C 
ATOM     17  O2  non d ame     -11.230  13.496  66.247  0.00  0.00    -0.266 OA
ATOM     18  H5  non d ame      -9.388  13.681  63.647  0.00  0.00     0.163 HD
BRANCH  16  19
ATOM     19  C4  non d ame     -10.103  15.481  65.651  0.00  0.00     0.154 A 
ATOM     20  C1  non d ame      -9.032  15.989  66.453  0.00  0.00    -0.017 A 
ATOM     21  C2  non d ame      -9.083  17.390  66.282  0.00  0.00     0.077 A 
ATOM     22  H1  non d ame      -8.327  15.426  67.065  0.00  0.00     0.091 H 
ATOM     23  O1  non d ame     -10.069  17.646  65.473  0.00  0.00    -0.218 OA
ATOM     24  N1  non d ame     -10.680  16.548  65.091  0.00  0.00    -0.123 NA
BRANCH  21  25
ATOM     25  C3  non d ame      -8.153  18.410  66.925  0.00  0.00    -0.029 C 
ATOM     26  H2  non d ame      -7.125  18.054  66.865  0.00  0.00     0.036 H 
ATOM     27  H3  non d ame      -8.238  19.361  66.400  0.00  0.00     0.036 H 
ATOM     28  H4  non d ame      -8.430  18.547  67.971  0.00  0.00     0.036 H 
ENDBRANCH  21  25
ENDBRANCH  16  19
ENDBRANCH  13  15
BRANCH  13  29
ATOM     29  C8  non d ame     -11.657  11.769  63.341  0.00  0.00    -0.049 C 
ATOM     30  H7  non d ame     -12.188  12.720  63.388  0.00  0.00     0.030 H 
ATOM     31  H8  non d ame     -11.407  11.543  62.305  0.00  0.00     0.030 H 
ATOM     32  H9  non d ame     -12.294  10.980  63.742  0.00  0.00     0.030 H 
ENDBRANCH  13  29
ENDBRANCH  10  13
ENDBRANCH   7   9
BRANCH   7  33
ATOM     33  C11 non d ame      -5.734  10.076  64.270  0.00  0.00    -0.033 C 
ATOM     34  H12 non d ame      -5.289   9.106  64.487  0.00  0.00     0.042 H 
BRANCH  33  35
ATOM     35  C12 non d ame      -4.724  10.868  63.382  0.00  0.00    -0.071 C 
ATOM     36  H13 non d ame      -3.731  10.429  63.480  0.00  0.00     0.028 H 
ATOM     37  H14 non d ame      -5.041  10.821  62.341  0.00  0.00     0.028 H 
ATOM     38  H15 non d ame      -4.694  11.908  63.707  0.00  0.00     0.028 H 
ENDBRANCH  33  35
BRANCH  33  39
ATOM     39  C13 non d ame      -5.986  10.807  65.628  0.00  0.00    -0.071 C 
ATOM     40  H16 non d ame      -7.045  10.754  65.877  0.00  0.00     0.028 H 
ATOM     41  H17 non d ame      -5.403  10.324  66.414  0.00  0.00     0.028 H 
ATOM     42  H18 non d ame      -5.685  11.850  65.541  0.00  0.00     0.028 H 
ENDBRANCH  33  39
ENDBRANCH   7  33
ENDBRANCH   4   7
ENDBRANCH   1   3
BRANCH   1  43
ATOM     43  C15 non d ame      -8.114   5.746  65.502  0.00  0.00     0.240 C 
ATOM     44  O5  non d ame      -8.736   4.736  65.430  0.00  0.00    -0.271 OA
ATOM     45  N6  non d ame      -8.445   6.748  66.555  0.00  0.00    -0.355 N 
ATOM     46  H46 non d ame      -7.921   7.607  66.628  0.00  0.00     0.162 HD
BRANCH  45  47
ATOM     47  C20 non d ame      -9.553   6.481  67.497  0.00  0.00     0.013 C 
ATOM     48  H30 non d ame      -9.889   5.456  67.339  0.00  0.00     0.072 H 
BRANCH  47  49
ATOM     49  C21 non d ame     -10.686   7.444  67.224  0.00  0.00    -0.038 C 
ATOM     50  H31 non d ame     -11.397   6.895  66.607  0.00  0.00     0.036 H 
ATOM     51  H32 non d ame     -10.991   7.825  68.199  0.00  0.00     0.036 H 
BRANCH  49  52
ATOM     52  C22 non d ame     -10.244   8.669  66.395  0.00  0.00     0.018 C 
ATOM     53  H33 non d ame      -9.187   8.512  66.175  0.00  0.00     0.048 H 
ATOM     54  H34 non d ame     -10.963   8.750  65.580  0.00  0.00     0.048 H 
BRANCH  52  55
ATOM     55  C23 non d ame     -10.323  10.013  67.172  0.00  0.00     0.259 C 
ATOM     56  O7  non d ame      -9.363  10.706  67.277  0.00  0.00    -0.265 OA
BRANCH  55  57
ATOM     57  O8  non d ame     -11.554  10.401  67.769  0.00  0.00    -0.317 OA
BRANCH  57  58
ATOM     58  C29 non d ame     -11.403  11.183  68.958  0.00  0.00     0.052 C 
ATOM     59  H47 non d ame     -10.388  11.578  68.923  0.00  0.00     0.082 H 
ATOM     60  H48 non d ame     -12.253  11.865  68.972  0.00  0.00     0.082 H 
BRANCH  58  61
ATOM     61  C35 non d ame     -11.518  10.229  70.177  0.00  0.00    -0.034 A 
ATOM     62  C30 non d ame     -12.748  10.036  70.797  0.00  0.00    -0.075 A 
ATOM     63  C31 non d ame     -12.852   9.179  71.892  0.00  0.00    -0.082 A 
ATOM     64  H49 non d ame     -13.632  10.556  70.425  0.00  0.00     0.084 H 
ATOM     65  C32 non d ame     -11.718   8.517  72.369  0.00  0.00    -0.083 A 
ATOM     66  H50 non d ame     -13.818   9.028  72.373  0.00  0.00     0.083 H 
ATOM     67  C33 non d ame     -10.491   8.715  71.749  0.00  0.00    -0.082 A 
ATOM     68  H51 non d ame     -11.790   7.845  73.224  0.00  0.00     0.083 H 
ATOM     69  C34 non d ame     -10.384   9.569  70.653  0.00  0.00    -0.075 A 
ATOM     70  H52 non d ame      -9.608   8.198  72.125  0.00  0.00     0.083 H 
ATOM     71  H53 non d ame      -9.417   9.718  70.171  0.00  0.00     0.084 H 
ENDBRANCH  58  61
ENDBRANCH  57  58
ENDBRANCH  55  57
ENDBRANCH  52  55
ENDBRANCH  49  52
ENDBRANCH  47  49
BRANCH  47  72
ATOM     72  C24 non d ame      -9.064   6.662  68.933  0.00  0.00    -0.039 C 
ATOM     73  H35 non d ame      -8.015   6.948  68.848  0.00  0.00     0.036 H 
ATOM     74  H36 non d ame      -9.777   7.343  69.399  0.00  0.00     0.036 H 
BRANCH  72  75
ATOM     75  C25 non d ame      -9.114   5.289  69.756  0.00  0.00    -0.001 C 
ATOM     76  C26 non d ame     -10.491   5.225  70.653  0.00  0.00    -0.035 C 
ATOM     77  C27 non d ame     -10.163   4.926  71.933  0.00  0.00     0.085 C 
ATOM     78  H38 non d ame     -10.935   6.217  70.728  0.00  0.00     0.036 H 
ATOM     79  H39 non d ame     -11.101   4.377  70.342  0.00  0.00     0.036 H 
ATOM     80  N5  non d ame      -8.669   5.104  72.059  0.00  0.00    -0.049 N 
ATOM     81  H40 non d ame     -10.663   5.678  72.545  0.00  0.00     0.075 H 
ATOM     82  H41 non d ame     -10.407   3.872  72.057  0.00  0.00     0.075 H 
ATOM     83  C28 non d ame      -8.102   5.181  70.549  0.00  0.00     0.193 C 
ATOM     84  H42 non d ame      -8.524   5.998  72.503  0.00  0.00     0.280 HD
ATOM     85  H43 non d ame      -8.316   4.262  72.491  0.00  0.00     0.280 HD
ATOM     86  H44 non d ame      -7.591   4.327  70.105  0.00  0.00     0.129 H 
ATOM     87  H37 non d ame      -8.890   4.425  69.130  0.00  0.00     0.046 H 
BRANCH  83  88
ATOM     88  O6  non d ame      -7.195   6.278  70.418  0.00  0.00    -0.369 OA
ATOM     89  H45 non d ame      -7.688   7.102  70.426  0.00  0.00     0.212 HD
ENDBRANCH  83  88
ENDBRANCH  72  75
ENDBRANCH  47  72
ENDBRANCH  45  47
ENDBRANCH   1  43
BRANCH   1  90
ATOM     90  C16 non d ame      -5.708   5.263  64.955  0.00  0.00    -0.035 C 
ATOM     91  H21 non d ame      -6.071   4.318  65.362  0.00  0.00     0.037 H 
ATOM     92  H22 non d ame      -5.041   5.264  64.093  0.00  0.00     0.037 H 
BRANCH  90  93
ATOM     93  C17 non d ame      -4.935   5.973  66.112  0.00  0.00    -0.059 C 
ATOM     94  H23 non d ame      -5.358   6.970  66.229  0.00  0.00     0.038 H 
BRANCH  93  95
ATOM     95  C18 non d ame      -5.096   5.225  67.474  0.00  0.00    -0.073 C 
ATOM     96  H24 non d ame      -4.537   5.754  68.247  0.00  0.00     0.028 H 
ATOM     97  H25 non d ame      -6.150   5.192  67.748  0.00  0.00     0.028 H 
ATOM     98  H26 non d ame      -4.712   4.209  67.378  0.00  0.00     0.028 H 
ENDBRANCH  93  95
BRANCH  93  99
ATOM     99  C19 non d ame      -3.456   6.146  65.757  0.00  0.00    -0.073 C 
ATOM    100  H27 non d ame      -3.247   7.201  65.576  0.00  0.00     0.028 H 
ATOM    101  H28 non d ame      -2.841   5.789  66.583  0.00  0.00     0.028 H 
ATOM    102  H29 non d ame      -3.227   5.571  64.860  0.00  0.00     0.028 H 
ENDBRANCH  93  99
ENDBRANCH  90  93
ENDBRANCH   1  90
TORSDOF 26
ENDMDL
MODEL 8
REMARK VINA RESULT:      -6.3      3.423      9.519
REMARK  26 active torsions:
REMARK  status: ('A' for Active; 'I' for Inactive)
REMARK    1  A    between atoms: C2_2  and  C3_3 
REMARK    2  A    between atoms: C4_6  and  C5_7 
REMARK       I    between atoms: C5_7  and  N2_9 
REMARK    3  A    between atoms: N2_9  and  C6_10 
REMARK    4  A    between atoms: C6_10  and  C7_11 
REMARK    5  A    between atoms: C6_10  and  C8_13 
REMARK       I    between atoms: C7_11  and  N3_14 
REMARK    6  A    between atoms: N3_14  and  C9_15 
REMARK    7  A    between atoms: C9_15  and  C10_16 
REMARK    8  A    between atoms: C9_15  and  C11_18 
REMARK       I    between atoms: C10_16  and  N4_21 
REMARK    9  A    between atoms: C11_18  and  C12_19 
REMARK   10  A    between atoms: C11_18  and  C13_20 
REMARK   11  A    between atoms: N4_21  and  C14_22 
REMARK   12  A    between atoms: C14_22  and  C15_23 
REMARK   13  A    between atoms: C14_22  and  C16_25 
REMARK       I    between atoms: C15_23  and  N6_40 
REMARK   14  A    between atoms: C16_25  and  C17_26 
REMARK   15  A    between atoms: C17_26  and  C18_27 
REMARK   16  A    between atoms: C17_26  and  C19_28 
REMARK   17  A    between atoms: C20_29  and  C21_30 
REMARK   18  A    between atoms: C20_29  and  C24_33 
REMARK   19  A    between atoms: C20_29  and  N6_40 
REMARK   20  A    between atoms: C21_30  and  C22_31 
REMARK   21  A    between atoms: C22_31  and  C23_32 
REMARK   22  A    between atoms: C23_32  and  O8_43 
REMARK   23  A    between atoms: C24_33  and  C25_34 
REMARK   24  A    between atoms: C28_38  and  O6_39 
REMARK   25  A    between atoms: C29_42  and  O8_43 
REMARK   26  A    between atoms: C29_42  and  C35_49 
ROOT
ATOM      1  C14 non d ame      -7.766   8.631  63.532  0.00  0.00     0.089 C 
ATOM      2  H20 non d ame      -7.866   8.957  62.496  0.00  0.00     0.087 H 
ENDROOT
BRANCH   1   3
ATOM      3  N4  non d ame      -8.689   9.423  64.331  0.00  0.00    -0.346 N 
ATOM      4  C10 non d ame      -9.416  10.595  63.717  0.00  0.00     0.241 C 
ATOM      5  O4  non d ame      -9.238  10.882  62.579  0.00  0.00    -0.271 OA
ATOM      6  H19 non d ame      -8.825   9.165  65.298  0.00  0.00     0.163 HD
BRANCH   4   7
ATOM      7  C9  non d ame     -10.371  11.401  64.557  0.00  0.00     0.092 C 
ATOM      8  H11 non d ame     -11.019  10.724  65.113  0.00  0.00     0.088 H 
BRANCH   7   9
ATOM      9  N3  non d ame      -9.617  12.184  65.541  0.00  0.00    -0.346 N 
ATOM     10  C7  non d ame      -9.313  11.618  66.831  0.00  0.00     0.240 C 
ATOM     11  O3  non d ame      -9.667  10.535  67.097  0.00  0.00    -0.271 OA
ATOM     12  H10 non d ame      -9.305  13.121  65.327  0.00  0.00     0.163 HD
BRANCH  10  13
ATOM     13  C6  non d ame      -8.513  12.458  67.876  0.00  0.00     0.086 C 
ATOM     14  H6  non d ame      -7.970  13.288  67.423  0.00  0.00     0.086 H 
BRANCH  13  15
ATOM     15  N2  non d ame      -9.446  13.041  68.826  0.00  0.00    -0.343 N 
ATOM     16  C5  non d ame     -10.133  14.290  68.490  0.00  0.00     0.273 C 
ATOM     17  O2  non d ame      -9.926  14.819  67.455  0.00  0.00    -0.266 OA
ATOM     18  H5  non d ame      -9.614  12.583  69.711  0.00  0.00     0.163 HD
BRANCH  16  19
ATOM     19  C4  non d ame     -11.122  14.915  69.486  0.00  0.00     0.154 A 
ATOM     20  C1  non d ame     -12.342  14.343  69.969  0.00  0.00    -0.017 A 
ATOM     21  C2  non d ame     -12.871  15.309  70.853  0.00  0.00     0.077 A 
ATOM     22  H1  non d ame     -12.775  13.374  69.719  0.00  0.00     0.091 H 
ATOM     23  O1  non d ame     -12.045  16.314  70.869  0.00  0.00    -0.218 OA
ATOM     24  N1  non d ame     -11.017  16.107  70.079  0.00  0.00    -0.123 NA
BRANCH  21  25
ATOM     25  C3  non d ame     -14.169  15.194  71.641  0.00  0.00    -0.029 C 
ATOM     26  H2  non d ame     -14.018  14.535  72.497  0.00  0.00     0.036 H 
ATOM     27  H3  non d ame     -14.471  16.180  71.991  0.00  0.00     0.036 H 
ATOM     28  H4  non d ame     -14.949  14.781  71.000  0.00  0.00     0.036 H 
ENDBRANCH  21  25
ENDBRANCH  16  19
ENDBRANCH  13  15
BRANCH  13  29
ATOM     29  C8  non d ame      -7.531  11.569  68.594  0.00  0.00    -0.049 C 
ATOM     30  H7  non d ame      -7.058  10.897  67.878  0.00  0.00     0.030 H 
ATOM     31  H8  non d ame      -6.769  12.181  69.076  0.00  0.00     0.030 H 
ATOM     32  H9  non d ame      -8.057  10.982  69.348  0.00  0.00     0.030 H 
ENDBRANCH  13  29
ENDBRANCH  10  13
ENDBRANCH   7   9
BRANCH   7  33
ATOM     33  C11 non d ame     -11.180  12.365  63.640  0.00  0.00    -0.033 C 
ATOM     34  H12 non d ame     -10.617  12.491  62.717  0.00  0.00     0.042 H 
BRANCH  33  35
ATOM     35  C12 non d ame     -12.569  11.759  63.264  0.00  0.00    -0.071 C 
ATOM     36  H13 non d ame     -13.343  12.514  63.400  0.00  0.00     0.028 H 
ATOM     37  H14 non d ame     -12.555  11.436  62.224  0.00  0.00     0.028 H 
ATOM     38  H15 non d ame     -12.778  10.906  63.908  0.00  0.00     0.028 H 
ENDBRANCH  33  35
BRANCH  33  39
ATOM     39  C13 non d ame     -11.338  13.769  64.307  0.00  0.00    -0.071 C 
ATOM     40  H16 non d ame     -11.276  14.543  63.542  0.00  0.00     0.028 H 
ATOM     41  H17 non d ame     -12.306  13.828  64.806  0.00  0.00     0.028 H 
ATOM     42  H18 non d ame     -10.543  13.916  65.038  0.00  0.00     0.028 H 
ENDBRANCH  33  39
ENDBRANCH   7  33
ENDBRANCH   4   7
ENDBRANCH   1   3
BRANCH   1  43
ATOM     43  C15 non d ame      -8.122   7.128  63.712  0.00  0.00     0.240 C 
ATOM     44  O5  non d ame      -8.074   6.393  62.779  0.00  0.00    -0.271 OA
ATOM     45  N6  non d ame      -8.512   6.601  65.051  0.00  0.00    -0.355 N 
ATOM     46  H46 non d ame      -8.552   7.215  65.852  0.00  0.00     0.162 HD
BRANCH  45  47
ATOM     47  C20 non d ame      -8.847   5.169  65.207  0.00  0.00     0.013 C 
ATOM     48  H30 non d ame      -8.822   4.710  64.219  0.00  0.00     0.072 H 
BRANCH  47  49
ATOM     49  C21 non d ame     -10.230   5.040  65.802  0.00  0.00    -0.038 C 
ATOM     50  H31 non d ame     -10.788   5.903  65.441  0.00  0.00     0.036 H 
ATOM     51  H32 non d ame     -10.565   4.032  65.554  0.00  0.00     0.036 H 
BRANCH  49  52
ATOM     52  C22 non d ame     -10.230   5.134  67.343  0.00  0.00     0.018 C 
ATOM     53  H33 non d ame     -11.064   4.516  67.677  0.00  0.00     0.048 H 
ATOM     54  H34 non d ame      -9.215   4.891  67.654  0.00  0.00     0.048 H 
BRANCH  52  55
ATOM     55  C23 non d ame     -10.514   6.563  67.884  0.00  0.00     0.259 C 
ATOM     56  O7  non d ame     -10.840   7.434  67.144  0.00  0.00    -0.265 OA
BRANCH  55  57
ATOM     57  O8  non d ame     -10.367   6.824  69.274  0.00  0.00    -0.317 OA
BRANCH  57  58
ATOM     58  C29 non d ame      -9.963   8.163  69.575  0.00  0.00     0.052 C 
ATOM     59  H47 non d ame      -9.092   8.070  70.223  0.00  0.00     0.082 H 
ATOM     60  H48 non d ame      -9.875   8.667  68.613  0.00  0.00     0.082 H 
BRANCH  58  61
ATOM     61  C35 non d ame     -11.105   8.838  70.380  0.00  0.00    -0.034 A 
ATOM     62  C30 non d ame     -11.358  10.197  70.227  0.00  0.00    -0.075 A 
ATOM     63  C31 non d ame     -12.384  10.803  70.951  0.00  0.00    -0.082 A 
ATOM     64  H49 non d ame     -10.752  10.788  69.539  0.00  0.00     0.084 H 
ATOM     65  C32 non d ame     -13.157  10.044  71.833  0.00  0.00    -0.083 A 
ATOM     66  H50 non d ame     -12.582  11.868  70.825  0.00  0.00     0.083 H 
ATOM     67  C33 non d ame     -12.899   8.688  71.986  0.00  0.00    -0.082 A 
ATOM     68  H51 non d ame     -13.962  10.509  72.402  0.00  0.00     0.083 H 
ATOM     69  C34 non d ame     -11.876   8.079  71.263  0.00  0.00    -0.075 A 
ATOM     70  H52 non d ame     -13.504   8.100  72.677  0.00  0.00     0.083 H 
ATOM     71  H53 non d ame     -11.681   7.013  71.388  0.00  0.00     0.084 H 
ENDBRANCH  58  61
ENDBRANCH  57  58
ENDBRANCH  55  57
ENDBRANCH  52  55
ENDBRANCH  49  52
ENDBRANCH  47  49
BRANCH  47  72
ATOM     72  C24 non d ame      -7.830   4.499  66.128  0.00  0.00    -0.039 C 
ATOM     73  H35 non d ame      -8.295   4.489  67.114  0.00  0.00     0.036 H 
ATOM     74  H36 non d ame      -7.570   3.560  65.640  0.00  0.00     0.036 H 
BRANCH  72  75
ATOM     75  C25 non d ame      -6.483   5.358  66.250  0.00  0.00    -0.001 C 
ATOM     76  C26 non d ame      -5.436   4.929  65.056  0.00  0.00    -0.035 C 
ATOM     77  C27 non d ame      -4.233   4.648  65.612  0.00  0.00     0.085 C 
ATOM     78  H38 non d ame      -5.741   3.982  64.614  0.00  0.00     0.036 H 
ATOM     79  H39 non d ame      -5.227   5.787  64.417  0.00  0.00     0.036 H 
ATOM     80  N5  non d ame      -4.452   4.528  67.101  0.00  0.00    -0.049 N 
ATOM     81  H40 non d ame      -3.950   3.673  65.214  0.00  0.00     0.075 H 
ATOM     82  H41 non d ame      -3.610   5.520  65.414  0.00  0.00     0.075 H 
ATOM     83  C28 non d ame      -5.906   5.166  67.390  0.00  0.00     0.193 C 
ATOM     84  H42 non d ame      -4.487   3.540  67.306  0.00  0.00     0.280 HD
ATOM     85  H43 non d ame      -3.753   5.110  67.541  0.00  0.00     0.280 HD
ATOM     86  H44 non d ame      -5.999   6.159  67.829  0.00  0.00     0.129 H 
ATOM     87  H37 non d ame      -6.682   6.422  66.377  0.00  0.00     0.046 H 
BRANCH  83  88
ATOM     88  O6  non d ame      -6.665   4.301  68.238  0.00  0.00    -0.369 OA
ATOM     89  H45 non d ame      -6.602   3.400  67.913  0.00  0.00     0.212 HD
ENDBRANCH  83  88
ENDBRANCH  72  75
ENDBRANCH  47  72
ENDBRANCH  45  47
ENDBRANCH   1  43
BRANCH   1  90
ATOM     90  C16 non d ame      -6.348   8.883  64.017  0.00  0.00    -0.035 C 
ATOM     91  H21 non d ame      -5.956   7.901  64.286  0.00  0.00     0.037 H 
ATOM     92  H22 non d ame      -5.871   9.462  63.227  0.00  0.00     0.037 H 
BRANCH  90  93
ATOM     93  C17 non d ame      -6.274   9.756  65.311  0.00  0.00    -0.059 C 
ATOM     94  H23 non d ame      -7.224  10.280  65.410  0.00  0.00     0.038 H 
BRANCH  93  95
ATOM     95  C18 non d ame      -6.071   8.890  66.595  0.00  0.00    -0.073 C 
ATOM     96  H24 non d ame      -6.278   7.845  66.365  0.00  0.00     0.028 H 
ATOM     97  H25 non d ame      -5.042   8.989  66.940  0.00  0.00     0.028 H 
ATOM     98  H26 non d ame      -6.750   9.233  67.375  0.00  0.00     0.028 H 
ENDBRANCH  93  95
BRANCH  93  99
ATOM     99  C19 non d ame      -5.179  10.819  65.192  0.00  0.00    -0.073 C 
ATOM    100  H27 non d ame      -4.584  10.831  66.105  0.00  0.00     0.028 H 
ATOM    101  H28 non d ame      -4.537  10.585  64.342  0.00  0.00     0.028 H 
ATOM    102  H29 non d ame      -5.636  11.797  65.041  0.00  0.00     0.028 H 
ENDBRANCH  93  99
ENDBRANCH  90  93
ENDBRANCH   1  90
TORSDOF 26
ENDMDL
MODEL 9
REMARK VINA RESULT:      -6.2      2.663      7.878
REMARK  26 active torsions:
REMARK  status: ('A' for Active; 'I' for Inactive)
REMARK    1  A    between atoms: C2_2  and  C3_3 
REMARK    2  A    between atoms: C4_6  and  C5_7 
REMARK       I    between atoms: C5_7  and  N2_9 
REMARK    3  A    between atoms: N2_9  and  C6_10 
REMARK    4  A    between atoms: C6_10  and  C7_11 
REMARK    5  A    between atoms: C6_10  and  C8_13 
REMARK       I    between atoms: C7_11  and  N3_14 
REMARK    6  A    between atoms: N3_14  and  C9_15 
REMARK    7  A    between atoms: C9_15  and  C10_16 
REMARK    8  A    between atoms: C9_15  and  C11_18 
REMARK       I    between atoms: C10_16  and  N4_21 
REMARK    9  A    between atoms: C11_18  and  C12_19 
REMARK   10  A    between atoms: C11_18  and  C13_20 
REMARK   11  A    between atoms: N4_21  and  C14_22 
REMARK   12  A    between atoms: C14_22  and  C15_23 
REMARK   13  A    between atoms: C14_22  and  C16_25 
REMARK       I    between atoms: C15_23  and  N6_40 
REMARK   14  A    between atoms: C16_25  and  C17_26 
REMARK   15  A    between atoms: C17_26  and  C18_27 
REMARK   16  A    between atoms: C17_26  and  C19_28 
REMARK   17  A    between atoms: C20_29  and  C21_30 
REMARK   18  A    between atoms: C20_29  and  C24_33 
REMARK   19  A    between atoms: C20_29  and  N6_40 
REMARK   20  A    between atoms: C21_30  and  C22_31 
REMARK   21  A    between atoms: C22_31  and  C23_32 
REMARK   22  A    between atoms: C23_32  and  O8_43 
REMARK   23  A    between atoms: C24_33  and  C25_34 
REMARK   24  A    between atoms: C28_38  and  O6_39 
REMARK   25  A    between atoms: C29_42  and  O8_43 
REMARK   26  A    between atoms: C29_42  and  C35_49 
ROOT
ATOM      1  C14 non d ame     -10.091   9.503  66.749  0.00  0.00     0.089 C 
ATOM      2  H20 non d ame     -11.104   9.100  66.781  0.00  0.00     0.087 H 
ENDROOT
BRANCH   1   3
ATOM      3  N4  non d ame     -10.193  10.922  66.445  0.00  0.00    -0.346 N 
ATOM      4  C10 non d ame     -11.312  11.748  67.032  0.00  0.00     0.241 C 
ATOM      5  O4  non d ame     -12.119  11.246  67.743  0.00  0.00    -0.271 OA
ATOM      6  H19 non d ame      -9.499  11.330  65.836  0.00  0.00     0.163 HD
BRANCH   4   7
ATOM      7  C9  non d ame     -11.400  13.217  66.711  0.00  0.00     0.092 C 
ATOM      8  H11 non d ame     -12.436  13.543  66.802  0.00  0.00     0.088 H 
BRANCH   7   9
ATOM      9  N3  non d ame     -10.620  13.979  67.691  0.00  0.00    -0.346 N 
ATOM     10  C7  non d ame     -11.256  14.486  68.881  0.00  0.00     0.240 C 
ATOM     11  O3  non d ame     -12.395  14.292  69.068  0.00  0.00    -0.271 OA
ATOM     12  H10 non d ame      -9.636  14.156  67.544  0.00  0.00     0.163 HD
BRANCH  10  13
ATOM     13  C6  non d ame     -10.420  15.300  69.919  0.00  0.00     0.086 C 
ATOM     14  H6  non d ame      -9.778  14.667  70.532  0.00  0.00     0.086 H 
BRANCH  13  15
ATOM     15  N2  non d ame      -9.543  16.214  69.205  0.00  0.00    -0.343 N 
ATOM     16  C5  non d ame     -10.120  17.199  68.287  0.00  0.00     0.273 C 
ATOM     17  O2  non d ame     -11.290  17.246  68.128  0.00  0.00    -0.266 OA
ATOM     18  H5  non d ame      -8.544  16.164  69.345  0.00  0.00     0.163 HD
BRANCH  16  19
ATOM     19  C4  non d ame      -9.204  18.171  67.527  0.00  0.00     0.154 A 
ATOM     20  C1  non d ame      -8.324  19.149  68.090  0.00  0.00    -0.017 A 
ATOM     21  C2  non d ame      -7.716  19.773  66.979  0.00  0.00     0.077 A 
ATOM     22  H1  non d ame      -8.152  19.370  69.144  0.00  0.00     0.091 H 
ATOM     23  O1  non d ame      -8.196  19.211  65.908  0.00  0.00    -0.218 OA
ATOM     24  N1  non d ame      -9.067  18.273  66.203  0.00  0.00    -0.123 NA
BRANCH  21  25
ATOM     25  C3  non d ame      -6.687  20.895  67.026  0.00  0.00    -0.029 C 
ATOM     26  H2  non d ame      -6.270  21.048  66.031  0.00  0.00     0.036 H 
ATOM     27  H3  non d ame      -7.166  21.813  67.364  0.00  0.00     0.036 H 
ATOM     28  H4  non d ame      -5.888  20.626  67.718  0.00  0.00     0.036 H 
ENDBRANCH  21  25
ENDBRANCH  16  19
ENDBRANCH  13  15
BRANCH  13  29
ATOM     29  C8  non d ame     -11.348  16.073  70.820  0.00  0.00    -0.049 C 
ATOM     30  H7  non d ame     -12.369  15.992  70.446  0.00  0.00     0.030 H 
ATOM     31  H8  non d ame     -11.297  15.667  71.830  0.00  0.00     0.030 H 
ATOM     32  H9  non d ame     -11.050  17.122  70.834  0.00  0.00     0.030 H 
ENDBRANCH  13  29
ENDBRANCH  10  13
ENDBRANCH   7   9
BRANCH   7  33
ATOM     33  C11 non d ame     -10.829  13.472  65.285  0.00  0.00    -0.033 C 
ATOM     34  H12 non d ame      -9.918  12.884  65.186  0.00  0.00     0.042 H 
BRANCH  33  35
ATOM     35  C12 non d ame     -11.821  12.990  64.181  0.00  0.00    -0.071 C 
ATOM     36  H13 non d ame     -11.749  11.907  64.075  0.00  0.00     0.028 H 
ATOM     37  H14 non d ame     -12.838  13.260  64.463  0.00  0.00     0.028 H 
ATOM     38  H15 non d ame     -11.567  13.465  63.235  0.00  0.00     0.028 H 
ENDBRANCH  33  35
BRANCH  33  39
ATOM     39  C13 non d ame     -10.457  14.977  65.093  0.00  0.00    -0.071 C 
ATOM     40  H16 non d ame     -10.436  15.473  66.063  0.00  0.00     0.028 H 
ATOM     41  H17 non d ame      -9.474  15.051  64.626  0.00  0.00     0.028 H 
ATOM     42  H18 non d ame     -11.199  15.456  64.455  0.00  0.00     0.028 H 
ENDBRANCH  33  39
ENDBRANCH   7  33
ENDBRANCH   4   7
ENDBRANCH   1   3
BRANCH   1  43
ATOM     43  C15 non d ame      -9.351   9.341  68.107  0.00  0.00     0.240 C 
ATOM     44  O5  non d ame      -8.357   9.957  68.317  0.00  0.00    -0.271 OA
ATOM     45  N6  non d ame      -9.887   8.422  69.152  0.00  0.00    -0.355 N 
ATOM     46  H46 non d ame     -10.733   7.896  68.987  0.00  0.00     0.162 HD
BRANCH  45  47
ATOM     47  C20 non d ame      -9.172   8.279  70.439  0.00  0.00     0.013 C 
ATOM     48  H30 non d ame      -8.301   8.934  70.414  0.00  0.00     0.072 H 
BRANCH  47  49
ATOM     49  C21 non d ame      -8.732   6.843  70.610  0.00  0.00    -0.038 C 
ATOM     50  H31 non d ame      -7.922   6.696  69.897  0.00  0.00     0.036 H 
ATOM     51  H32 non d ame      -8.549   6.716  71.678  0.00  0.00     0.036 H 
BRANCH  49  52
ATOM     52  C22 non d ame      -9.835   5.829  70.234  0.00  0.00     0.018 C 
ATOM     53  H33 non d ame      -9.940   5.172  71.097  0.00  0.00     0.048 H 
ATOM     54  H34 non d ame     -10.682   6.426  69.898  0.00  0.00     0.048 H 
BRANCH  52  55
ATOM     55  C23 non d ame      -9.459   4.909  69.039  0.00  0.00     0.259 C 
ATOM     56  O7  non d ame      -9.734   3.753  69.058  0.00  0.00    -0.265 OA
BRANCH  55  57
ATOM     57  O8  non d ame      -8.768   5.461  67.925  0.00  0.00    -0.317 OA
BRANCH  57  58
ATOM     58  C29 non d ame      -9.298   5.064  66.656  0.00  0.00     0.052 C 
ATOM     59  H47 non d ame      -9.365   3.978  66.692  0.00  0.00     0.082 H 
ATOM     60  H48 non d ame     -10.198   5.662  66.514  0.00  0.00     0.082 H 
BRANCH  58  61
ATOM     61  C35 non d ame      -8.269   5.458  65.563  0.00  0.00    -0.034 A 
ATOM     62  C30 non d ame      -8.639   5.450  64.222  0.00  0.00    -0.075 A 
ATOM     63  C31 non d ame      -7.714   5.804  63.241  0.00  0.00    -0.082 A 
ATOM     64  H49 non d ame      -9.653   5.166  63.940  0.00  0.00     0.084 H 
ATOM     65  C32 non d ame      -6.414   6.164  63.604  0.00  0.00    -0.083 A 
ATOM     66  H50 non d ame      -8.008   5.799  62.191  0.00  0.00     0.083 H 
ATOM     67  C33 non d ame      -6.048   6.168  64.944  0.00  0.00    -0.082 A 
ATOM     68  H51 non d ame      -5.685   6.443  62.843  0.00  0.00     0.083 H 
ATOM     69  C34 non d ame      -6.970   5.817  65.928  0.00  0.00    -0.075 A 
ATOM     70  H52 non d ame      -5.032   6.448  65.224  0.00  0.00     0.083 H 
ATOM     71  H53 non d ame      -6.675   5.824  66.978  0.00  0.00     0.084 H 
ENDBRANCH  58  61
ENDBRANCH  57  58
ENDBRANCH  55  57
ENDBRANCH  52  55
ENDBRANCH  49  52
ENDBRANCH  47  49
BRANCH  47  72
ATOM     72  C24 non d ame     -10.098   8.670  71.589  0.00  0.00    -0.039 C 
ATOM     73  H35 non d ame     -10.023   7.856  72.311  0.00  0.00     0.036 H 
ATOM     74  H36 non d ame      -9.797   9.678  71.874  0.00  0.00     0.036 H 
BRANCH  72  75
ATOM     75  C25 non d ame     -11.627   8.747  71.121  0.00  0.00    -0.001 C 
ATOM     76  C26 non d ame     -12.125  10.315  71.091  0.00  0.00    -0.035 C 
ATOM     77  C27 non d ame     -13.280  10.419  71.791  0.00  0.00     0.085 C 
ATOM     78  H38 non d ame     -11.430  10.938  71.652  0.00  0.00     0.036 H 
ATOM     79  H39 non d ame     -12.414  10.596  70.079  0.00  0.00     0.036 H 
ATOM     80  N5  non d ame     -13.442   9.134  72.569  0.00  0.00    -0.049 N 
ATOM     81  H40 non d ame     -13.123  11.240  72.491  0.00  0.00     0.075 H 
ATOM     82  H41 non d ame     -14.069  10.483  71.043  0.00  0.00     0.075 H 
ATOM     83  C28 non d ame     -12.397   8.088  71.921  0.00  0.00     0.193 C 
ATOM     84  H42 non d ame     -13.153   9.334  73.515  0.00  0.00     0.280 HD
ATOM     85  H43 non d ame     -14.379   8.806  72.386  0.00  0.00     0.280 HD
ATOM     86  H44 non d ame     -12.744   7.297  71.256  0.00  0.00     0.129 H 
ATOM     87  H37 non d ame     -11.816   8.150  70.228  0.00  0.00     0.046 H 
BRANCH  83  88
ATOM     88  O6  non d ame     -11.660   7.425  72.951  0.00  0.00    -0.369 OA
ATOM     89  H45 non d ame     -11.567   8.012  73.705  0.00  0.00     0.212 HD
ENDBRANCH  83  88
ENDBRANCH  72  75
ENDBRANCH  47  72
ENDBRANCH  45  47
ENDBRANCH   1  43
BRANCH   1  90
ATOM     90  C16 non d ame      -9.298   8.816  65.649  0.00  0.00    -0.035 C 
ATOM     91  H21 non d ame      -8.522   8.248  66.164  0.00  0.00     0.037 H 
ATOM     92  H22 non d ame     -10.039   8.298  65.040  0.00  0.00     0.037 H 
BRANCH  90  93
ATOM     93  C17 non d ame      -8.558   9.808  64.697  0.00  0.00    -0.059 C 
ATOM     94  H23 non d ame      -8.946  10.807  64.894  0.00  0.00     0.038 H 
BRANCH  93  95
ATOM     95  C18 non d ame      -7.018   9.836  64.955  0.00  0.00    -0.073 C 
ATOM     96  H24 non d ame      -6.828  10.139  65.985  0.00  0.00     0.028 H 
ATOM     97  H25 non d ame      -6.604   8.842  64.787  0.00  0.00     0.028 H 
ATOM     98  H26 non d ame      -6.548  10.546  64.274  0.00  0.00     0.028 H 
ENDBRANCH  93  95
BRANCH  93  99
ATOM     99  C19 non d ame      -8.859   9.486  63.230  0.00  0.00    -0.073 C 
ATOM    100  H27 non d ame      -8.068   8.851  62.829  0.00  0.00     0.028 H 
ATOM    101  H28 non d ame      -9.814   8.966  63.162  0.00  0.00     0.028 H 
ATOM    102  H29 non d ame      -8.908  10.412  62.657  0.00  0.00     0.028 H 
ENDBRANCH  93  99
ENDBRANCH  90  93
ENDBRANCH   1  90
TORSDOF 26
ENDMDL
MODEL 10
REMARK VINA RESULT:      -6.2      3.056      7.999
REMARK  26 active torsions:
REMARK  status: ('A' for Active; 'I' for Inactive)
REMARK    1  A    between atoms: C2_2  and  C3_3 
REMARK    2  A    between atoms: C4_6  and  C5_7 
REMARK       I    between atoms: C5_7  and  N2_9 
REMARK    3  A    between atoms: N2_9  and  C6_10 
REMARK    4  A    between atoms: C6_10  and  C7_11 
REMARK    5  A    between atoms: C6_10  and  C8_13 
REMARK       I    between atoms: C7_11  and  N3_14 
REMARK    6  A    between atoms: N3_14  and  C9_15 
REMARK    7  A    between atoms: C9_15  and  C10_16 
REMARK    8  A    between atoms: C9_15  and  C11_18 
REMARK       I    between atoms: C10_16  and  N4_21 
REMARK    9  A    between atoms: C11_18  and  C12_19 
REMARK   10  A    between atoms: C11_18  and  C13_20 
REMARK   11  A    between atoms: N4_21  and  C14_22 
REMARK   12  A    between atoms: C14_22  and  C15_23 
REMARK   13  A    between atoms: C14_22  and  C16_25 
REMARK       I    between atoms: C15_23  and  N6_40 
REMARK   14  A    between atoms: C16_25  and  C17_26 
REMARK   15  A    between atoms: C17_26  and  C18_27 
REMARK   16  A    between atoms: C17_26  and  C19_28 
REMARK   17  A    between atoms: C20_29  and  C21_30 
REMARK   18  A    between atoms: C20_29  and  C24_33 
REMARK   19  A    between atoms: C20_29  and  N6_40 
REMARK   20  A    between atoms: C21_30  and  C22_31 
REMARK   21  A    between atoms: C22_31  and  C23_32 
REMARK   22  A    between atoms: C23_32  and  O8_43 
REMARK   23  A    between atoms: C24_33  and  C25_34 
REMARK   24  A    between atoms: C28_38  and  O6_39 
REMARK   25  A    between atoms: C29_42  and  O8_43 
REMARK   26  A    between atoms: C29_42  and  C35_49 
ROOT
ATOM      1  C14 non d ame      -7.249   9.976  67.763  0.00  0.00     0.089 C 
ATOM      2  H20 non d ame      -6.223   9.766  67.459  0.00  0.00     0.087 H 
ENDROOT
BRANCH   1   3
ATOM      3  N4  non d ame      -8.078   9.935  66.568  0.00  0.00    -0.346 N 
ATOM      4  C10 non d ame      -7.448  10.041  65.201  0.00  0.00     0.241 C 
ATOM      5  O4  non d ame      -6.272  10.161  65.089  0.00  0.00    -0.271 OA
ATOM      6  H19 non d ame      -9.076   9.836  66.684  0.00  0.00     0.163 HD
BRANCH   4   7
ATOM      7  C9  non d ame      -8.320   9.992  63.974  0.00  0.00     0.092 C 
ATOM      8  H11 non d ame      -9.001   9.145  64.051  0.00  0.00     0.088 H 
BRANCH   7   9
ATOM      9  N3  non d ame      -9.144  11.204  63.910  0.00  0.00    -0.346 N 
ATOM     10  C7  non d ame     -10.409  11.252  64.599  0.00  0.00     0.240 C 
ATOM     11  O3  non d ame     -10.782  10.326  65.209  0.00  0.00    -0.271 OA
ATOM     12  H10 non d ame      -8.835  12.012  63.387  0.00  0.00     0.163 HD
BRANCH  10  13
ATOM     13  C6  non d ame     -11.282  12.544  64.524  0.00  0.00     0.086 C 
ATOM     14  H6  non d ame     -12.012  12.607  65.331  0.00  0.00     0.086 H 
BRANCH  13  15
ATOM     15  N2  non d ame     -10.417  13.705  64.655  0.00  0.00    -0.343 N 
ATOM     16  C5  non d ame     -10.709  14.711  65.679  0.00  0.00     0.273 C 
ATOM     17  O2  non d ame     -11.644  14.579  66.389  0.00  0.00    -0.266 OA
ATOM     18  H5  non d ame      -9.622  13.812  64.041  0.00  0.00     0.163 HD
BRANCH  16  19
ATOM     19  C4  non d ame      -9.802  15.943  65.828  0.00  0.00     0.154 A 
ATOM     20  C1  non d ame      -8.430  15.963  66.234  0.00  0.00    -0.017 A 
ATOM     21  C2  non d ame      -8.063  17.326  66.210  0.00  0.00     0.077 A 
ATOM     22  H1  non d ame      -7.797  15.117  66.504  0.00  0.00     0.091 H 
ATOM     23  O1  non d ame      -9.108  18.002  65.831  0.00  0.00    -0.218 OA
ATOM     24  N1  non d ame     -10.136  17.216  65.602  0.00  0.00    -0.123 NA
BRANCH  21  25
ATOM     25  C3  non d ame      -6.696  17.898  66.560  0.00  0.00    -0.029 C 
ATOM     26  H2  non d ame      -5.944  17.112  66.493  0.00  0.00     0.036 H 
ATOM     27  H3  non d ame      -6.447  18.698  65.864  0.00  0.00     0.036 H 
ATOM     28  H4  non d ame      -6.717  18.295  67.576  0.00  0.00     0.036 H 
ENDBRANCH  21  25
ENDBRANCH  16  19
ENDBRANCH  13  15
BRANCH  13  29
ATOM     29  C8  non d ame     -12.009  12.588  63.205  0.00  0.00    -0.049 C 
ATOM     30  H7  non d ame     -12.913  13.189  63.308  0.00  0.00     0.030 H 
ATOM     31  H8  non d ame     -11.362  13.031  62.447  0.00  0.00     0.030 H 
ATOM     32  H9  non d ame     -12.279  11.575  62.905  0.00  0.00     0.030 H 
ENDBRANCH  13  29
ENDBRANCH  10  13
ENDBRANCH   7   9
BRANCH   7  33
ATOM     33  C11 non d ame      -7.424   9.909  62.704  0.00  0.00    -0.033 C 
ATOM     34  H12 non d ame      -6.395  10.082  63.016  0.00  0.00     0.042 H 
BRANCH  33  35
ATOM     35  C12 non d ame      -7.486   8.491  62.055  0.00  0.00    -0.071 C 
ATOM     36  H13 non d ame      -6.971   7.775  62.696  0.00  0.00     0.028 H 
ATOM     37  H14 non d ame      -8.527   8.190  61.939  0.00  0.00     0.028 H 
ATOM     38  H15 non d ame      -7.003   8.518  61.080  0.00  0.00     0.028 H 
ENDBRANCH  33  35
BRANCH  33  39
ATOM     39  C13 non d ame      -7.810  11.019  61.674  0.00  0.00    -0.071 C 
ATOM     40  H16 non d ame      -8.308  11.838  62.191  0.00  0.00     0.028 H 
ATOM     41  H17 non d ame      -6.908  11.392  61.186  0.00  0.00     0.028 H 
ATOM     42  H18 non d ame      -8.481  10.601  60.923  0.00  0.00     0.028 H 
ENDBRANCH  33  39
ENDBRANCH   7  33
ENDBRANCH   4   7
ENDBRANCH   1   3
BRANCH   1  43
ATOM     43  C15 non d ame      -7.789   8.925  68.775  0.00  0.00     0.240 C 
ATOM     44  O5  non d ame      -7.090   8.032  69.129  0.00  0.00    -0.271 OA
ATOM     45  N6  non d ame      -9.176   9.038  69.310  0.00  0.00    -0.355 N 
ATOM     46  H46 non d ame      -9.777   9.795  69.019  0.00  0.00     0.162 HD
BRANCH  45  47
ATOM     47  C20 non d ame      -9.674   8.031  70.271  0.00  0.00     0.013 C 
ATOM     48  H30 non d ame      -8.816   7.485  70.662  0.00  0.00     0.072 H 
BRANCH  47  49
ATOM     49  C21 non d ame     -10.610   7.080  69.560  0.00  0.00    -0.038 C 
ATOM     50  H31 non d ame     -11.589   7.238  70.010  0.00  0.00     0.036 H 
ATOM     51  H32 non d ame     -10.463   7.264  68.495  0.00  0.00     0.036 H 
BRANCH  49  52
ATOM     52  C22 non d ame     -10.253   5.597  69.801  0.00  0.00     0.018 C 
ATOM     53  H33 non d ame      -9.400   5.605  70.481  0.00  0.00     0.048 H 
ATOM     54  H34 non d ame     -11.183   5.114  70.099  0.00  0.00     0.048 H 
BRANCH  52  55
ATOM     55  C23 non d ame      -9.774   4.852  68.523  0.00  0.00     0.259 C 
ATOM     56  O7  non d ame      -9.674   3.668  68.517  0.00  0.00    -0.265 OA
BRANCH  55  57
ATOM     57  O8  non d ame      -9.441   5.604  67.362  0.00  0.00    -0.317 OA
BRANCH  57  58
ATOM     58  C29 non d ame      -8.346   5.066  66.615  0.00  0.00     0.052 C 
ATOM     59  H47 non d ame      -7.599   5.857  66.575  0.00  0.00     0.082 H 
ATOM     60  H48 non d ame      -8.107   4.114  67.088  0.00  0.00     0.082 H 
BRANCH  58  61
ATOM     61  C35 non d ame      -8.844   4.785  65.172  0.00  0.00    -0.034 A 
ATOM     62  C30 non d ame      -8.160   5.315  64.083  0.00  0.00    -0.075 A 
ATOM     63  C31 non d ame      -8.608   5.062  62.787  0.00  0.00    -0.082 A 
ATOM     64  H49 non d ame      -7.272   5.927  64.244  0.00  0.00     0.084 H 
ATOM     65  C32 non d ame      -9.747   4.280  62.582  0.00  0.00    -0.083 A 
ATOM     66  H50 non d ame      -8.067   5.477  61.935  0.00  0.00     0.083 H 
ATOM     67  C33 non d ame     -10.429   3.756  63.672  0.00  0.00    -0.082 A 
ATOM     68  H51 non d ame     -10.103   4.077  61.572  0.00  0.00     0.083 H 
ATOM     69  C34 non d ame      -9.983   4.004  64.969  0.00  0.00    -0.075 A 
ATOM     70  H52 non d ame     -11.319   3.147  63.509  0.00  0.00     0.083 H 
ATOM     71  H53 non d ame     -10.524   3.588  65.820  0.00  0.00     0.084 H 
ENDBRANCH  58  61
ENDBRANCH  57  58
ENDBRANCH  55  57
ENDBRANCH  52  55
ENDBRANCH  49  52
ENDBRANCH  47  49
BRANCH  47  72
ATOM     72  C24 non d ame     -10.421   8.728  71.407  0.00  0.00    -0.039 C 
ATOM     73  H35 non d ame     -10.489   7.989  72.205  0.00  0.00     0.036 H 
ATOM     74  H36 non d ame      -9.887   9.663  71.575  0.00  0.00     0.036 H 
BRANCH  72  75
ATOM     75  C25 non d ame     -11.919   9.109  70.986  0.00  0.00    -0.001 C 
ATOM     76  C26 non d ame     -12.050  10.737  70.793  0.00  0.00    -0.035 C 
ATOM     77  C27 non d ame     -13.106  11.178  71.517  0.00  0.00     0.085 C 
ATOM     78  H38 non d ame     -11.199  11.237  71.254  0.00  0.00     0.036 H 
ATOM     79  H39 non d ame     -12.329  10.971  69.766  0.00  0.00     0.036 H 
ATOM     80  N5  non d ame     -13.508  10.054  72.443  0.00  0.00    -0.049 N 
ATOM     81  H40 non d ame     -12.726  12.009  72.112  0.00  0.00     0.075 H 
ATOM     82  H41 non d ame     -13.904  11.345  70.795  0.00  0.00     0.075 H 
ATOM     83  C28 non d ame     -12.768   8.733  71.884  0.00  0.00     0.193 C 
ATOM     84  H42 non d ame     -13.124  10.279  73.349  0.00  0.00     0.280 HD
ATOM     85  H43 non d ame     -14.504   9.935  72.332  0.00  0.00     0.280 HD
ATOM     86  H44 non d ame     -13.325   7.979  71.328  0.00  0.00     0.129 H 
ATOM     87  H37 non d ame     -12.292   8.482  70.176  0.00  0.00     0.046 H 
BRANCH  83  88
ATOM     88  O6  non d ame     -12.140   8.028  72.957  0.00  0.00    -0.369 OA
ATOM     89  H45 non d ame     -12.654   8.144  73.759  0.00  0.00     0.212 HD
ENDBRANCH  83  88
ENDBRANCH  72  75
ENDBRANCH  47  72
ENDBRANCH  45  47
ENDBRANCH   1  43
BRANCH   1  90
ATOM     90  C16 non d ame      -7.330  11.364  68.376  0.00  0.00    -0.035 C 
ATOM     91  H21 non d ame      -8.303  11.756  68.075  0.00  0.00     0.037 H 
ATOM     92  H22 non d ame      -7.101  11.228  69.433  0.00  0.00     0.037 H 
BRANCH  90  93
ATOM     93  C17 non d ame      -6.263  12.359  67.819  0.00  0.00    -0.059 C 
ATOM     94  H23 non d ame      -6.472  12.508  66.759  0.00  0.00     0.038 H 
BRANCH  93  95
ATOM     95  C18 non d ame      -6.335  13.754  68.519  0.00  0.00    -0.073 C 
ATOM     96  H24 non d ame      -6.158  14.539  67.783  0.00  0.00     0.028 H 
ATOM     97  H25 non d ame      -7.322  13.887  68.962  0.00  0.00     0.028 H 
ATOM     98  H26 non d ame      -5.575  13.808  69.299  0.00  0.00     0.028 H 
ENDBRANCH  93  95
BRANCH  93  99
ATOM     99  C19 non d ame      -4.855  11.768  67.925  0.00  0.00    -0.073 C 
ATOM    100  H27 non d ame      -4.656  11.488  68.961  0.00  0.00     0.028 H 
ATOM    101  H28 non d ame      -4.783  10.886  67.289  0.00  0.00     0.028 H 
ATOM    102  H29 non d ame      -4.124  12.509  67.602  0.00  0.00     0.028 H 
ENDBRANCH  93  99
ENDBRANCH  90  93
ENDBRANCH   1  90
TORSDOF 26
ENDMDL
MODEL 11
REMARK VINA RESULT:      -6.1      2.673      6.365
REMARK  26 active torsions:
REMARK  status: ('A' for Active; 'I' for Inactive)
REMARK    1  A    between atoms: C2_2  and  C3_3 
REMARK    2  A    between atoms: C4_6  and  C5_7 
REMARK       I    between atoms: C5_7  and  N2_9 
REMARK    3  A    between atoms: N2_9  and  C6_10 
REMARK    4  A    between atoms: C6_10  and  C7_11 
REMARK    5  A    between atoms: C6_10  and  C8_13 
REMARK       I    between atoms: C7_11  and  N3_14 
REMARK    6  A    between atoms: N3_14  and  C9_15 
REMARK    7  A    between atoms: C9_15  and  C10_16 
REMARK    8  A    between atoms: C9_15  and  C11_18 
REMARK       I    between atoms: C10_16  and  N4_21 
REMARK    9  A    between atoms: C11_18  and  C12_19 
REMARK   10  A    between atoms: C11_18  and  C13_20 
REMARK   11  A    between atoms: N4_21  and  C14_22 
REMARK   12  A    between atoms: C14_22  and  C15_23 
REMARK   13  A    between atoms: C14_22  and  C16_25 
REMARK       I    between atoms: C15_23  and  N6_40 
REMARK   14  A    between atoms: C16_25  and  C17_26 
REMARK   15  A    between atoms: C17_26  and  C18_27 
REMARK   16  A    between atoms: C17_26  and  C19_28 
REMARK   17  A    between atoms: C20_29  and  C21_30 
REMARK   18  A    between atoms: C20_29  and  C24_33 
REMARK   19  A    between atoms: C20_29  and  N6_40 
REMARK   20  A    between atoms: C21_30  and  C22_31 
REMARK   21  A    between atoms: C22_31  and  C23_32 
REMARK   22  A    between atoms: C23_32  and  O8_43 
REMARK   23  A    between atoms: C24_33  and  C25_34 
REMARK   24  A    between atoms: C28_38  and  O6_39 
REMARK   25  A    between atoms: C29_42  and  O8_43 
REMARK   26  A    between atoms: C29_42  and  C35_49 
ROOT
ATOM      1  C14 non d ame      -6.561  10.601  66.884  0.00  0.00     0.089 C 
ATOM      2  H20 non d ame      -5.703  10.670  67.554  0.00  0.00     0.087 H 
ENDROOT
BRANCH   1   3
ATOM      3  N4  non d ame      -7.030   9.224  66.911  0.00  0.00    -0.346 N 
ATOM      4  C10 non d ame      -6.493   8.256  67.936  0.00  0.00     0.241 C 
ATOM      5  O4  non d ame      -5.681   8.610  68.728  0.00  0.00    -0.271 OA
ATOM      6  H19 non d ame      -7.718   8.942  66.228  0.00  0.00     0.163 HD
BRANCH   4   7
ATOM      7  C9  non d ame      -6.992   6.836  67.954  0.00  0.00     0.092 C 
ATOM      8  H11 non d ame      -6.615   6.333  68.844  0.00  0.00     0.088 H 
BRANCH   7   9
ATOM      9  N3  non d ame      -8.456   6.833  68.044  0.00  0.00    -0.346 N 
ATOM     10  C7  non d ame      -9.098   6.814  69.334  0.00  0.00     0.240 C 
ATOM     11  O3  non d ame      -8.454   6.800  70.311  0.00  0.00    -0.271 OA
ATOM     12  H10 non d ame      -9.025   6.845  67.209  0.00  0.00     0.163 HD
BRANCH  10  13
ATOM     13  C6  non d ame     -10.657   6.809  69.423  0.00  0.00     0.086 C 
ATOM     14  H6  non d ame     -11.027   6.284  70.304  0.00  0.00     0.086 H 
BRANCH  13  15
ATOM     15  N2  non d ame     -11.128   8.180  69.527  0.00  0.00    -0.343 N 
ATOM     16  C5  non d ame     -11.523   8.711  70.834  0.00  0.00     0.273 C 
ATOM     17  O2  non d ame     -11.461   8.025  71.794  0.00  0.00    -0.266 OA
ATOM     18  H5  non d ame     -11.180   8.758  68.700  0.00  0.00     0.163 HD
BRANCH  16  19
ATOM     19  C4  non d ame     -12.022  10.159  70.958  0.00  0.00     0.154 A 
ATOM     20  C1  non d ame     -11.614  11.284  70.173  0.00  0.00    -0.017 A 
ATOM     21  C2  non d ame     -12.362  12.370  70.680  0.00  0.00     0.077 A 
ATOM     22  H1  non d ame     -10.887  11.309  69.361  0.00  0.00     0.091 H 
ATOM     23  O1  non d ame     -13.110  11.911  71.640  0.00  0.00    -0.218 OA
ATOM     24  N1  non d ame     -12.929  10.623  71.821  0.00  0.00    -0.123 NA
BRANCH  21  25
ATOM     25  C3  non d ame     -12.304  13.811  70.189  0.00  0.00    -0.029 C 
ATOM     26  H2  non d ame     -13.282  14.104  69.806  0.00  0.00     0.036 H 
ATOM     27  H3  non d ame     -12.026  14.465  71.015  0.00  0.00     0.036 H 
ATOM     28  H4  non d ame     -11.562  13.895  69.394  0.00  0.00     0.036 H 
ENDBRANCH  21  25
ENDBRANCH  16  19
ENDBRANCH  13  15
BRANCH  13  29
ATOM     29  C8  non d ame     -11.231   6.158  68.191  0.00  0.00    -0.049 C 
ATOM     30  H7  non d ame     -10.724   6.545  67.306  0.00  0.00     0.030 H 
ATOM     31  H8  non d ame     -11.089   5.079  68.249  0.00  0.00     0.030 H 
ATOM     32  H9  non d ame     -12.296   6.382  68.125  0.00  0.00     0.030 H 
ENDBRANCH  13  29
ENDBRANCH  10  13
ENDBRANCH   7   9
BRANCH   7  33
ATOM     33  C11 non d ame      -6.554   6.116  66.645  0.00  0.00    -0.033 C 
ATOM     34  H12 non d ame      -6.295   6.885  65.918  0.00  0.00     0.042 H 
BRANCH  33  35
ATOM     35  C12 non d ame      -5.283   5.240  66.876  0.00  0.00    -0.071 C 
ATOM     36  H13 non d ame      -5.084   5.164  67.945  0.00  0.00     0.028 H 
ATOM     37  H14 non d ame      -5.449   4.245  66.465  0.00  0.00     0.028 H 
ATOM     38  H15 non d ame      -4.431   5.702  66.379  0.00  0.00     0.028 H 
ENDBRANCH  33  35
BRANCH  33  39
ATOM     39  C13 non d ame      -7.726   5.267  66.054  0.00  0.00    -0.071 C 
ATOM     40  H16 non d ame      -7.562   4.215  66.280  0.00  0.00     0.028 H 
ATOM     41  H17 non d ame      -8.669   5.592  66.497  0.00  0.00     0.028 H 
ATOM     42  H18 non d ame      -7.766   5.406  64.974  0.00  0.00     0.028 H 
ENDBRANCH  33  39
ENDBRANCH   7  33
ENDBRANCH   4   7
ENDBRANCH   1   3
BRANCH   1  43
ATOM     43  C15 non d ame      -7.728  11.529  67.326  0.00  0.00     0.240 C 
ATOM     44  O5  non d ame      -7.903  11.750  68.481  0.00  0.00    -0.271 OA
ATOM     45  N6  non d ame      -8.623  12.151  66.309  0.00  0.00    -0.355 N 
ATOM     46  H46 non d ame      -8.482  11.974  65.325  0.00  0.00     0.162 HD
BRANCH  45  47
ATOM     47  C20 non d ame      -9.728  13.031  66.745  0.00  0.00     0.013 C 
ATOM     48  H30 non d ame      -9.555  13.295  67.789  0.00  0.00     0.072 H 
BRANCH  47  49
ATOM     49  C21 non d ame     -11.040  12.292  66.611  0.00  0.00    -0.038 C 
ATOM     50  H31 non d ame     -10.775  11.265  66.363  0.00  0.00     0.036 H 
ATOM     51  H32 non d ame     -11.595  12.508  67.525  0.00  0.00     0.036 H 
BRANCH  49  52
ATOM     52  C22 non d ame     -11.905  12.815  65.442  0.00  0.00     0.018 C 
ATOM     53  H33 non d ame     -12.939  12.641  65.739  0.00  0.00     0.048 H 
ATOM     54  H34 non d ame     -11.557  13.829  65.248  0.00  0.00     0.048 H 
BRANCH  52  55
ATOM     55  C23 non d ame     -11.703  12.031  64.115  0.00  0.00     0.259 C 
ATOM     56  O7  non d ame     -12.426  12.216  63.190  0.00  0.00    -0.265 OA
BRANCH  55  57
ATOM     57  O8  non d ame     -10.653  11.077  64.022  0.00  0.00    -0.317 OA
BRANCH  57  58
ATOM     58  C29 non d ame      -9.712  11.348  62.978  0.00  0.00     0.052 C 
ATOM     59  H47 non d ame     -10.287  11.338  62.053  0.00  0.00     0.082 H 
ATOM     60  H48 non d ame      -9.186  12.253  63.283  0.00  0.00     0.082 H 
BRANCH  58  61
ATOM     61  C35 non d ame      -8.693  10.179  62.937  0.00  0.00    -0.034 A 
ATOM     62  C30 non d ame      -7.606  10.230  62.070  0.00  0.00    -0.075 A 
ATOM     63  C31 non d ame      -6.691   9.179  62.034  0.00  0.00    -0.082 A 
ATOM     64  H49 non d ame      -7.471  11.095  61.420  0.00  0.00     0.084 H 
ATOM     65  C32 non d ame      -6.867   8.071  62.866  0.00  0.00    -0.083 A 
ATOM     66  H50 non d ame      -5.839   9.225  61.355  0.00  0.00     0.083 H 
ATOM     67  C33 non d ame      -7.955   8.022  63.728  0.00  0.00    -0.082 A 
ATOM     68  H51 non d ame      -6.156   7.246  62.845  0.00  0.00     0.083 H 
ATOM     69  C34 non d ame      -8.871   9.072  63.769  0.00  0.00    -0.075 A 
ATOM     70  H52 non d ame      -8.091   7.155  64.375  0.00  0.00     0.083 H 
ATOM     71  H53 non d ame      -9.722   9.026  64.450  0.00  0.00     0.084 H 
ENDBRANCH  58  61
ENDBRANCH  57  58
ENDBRANCH  55  57
ENDBRANCH  52  55
ENDBRANCH  49  52
ENDBRANCH  47  49
BRANCH  47  72
ATOM     72  C24 non d ame      -9.759  14.289  65.878  0.00  0.00    -0.039 C 
ATOM     73  H35 non d ame      -9.096  14.078  65.039  0.00  0.00     0.036 H 
ATOM     74  H36 non d ame     -10.815  14.492  65.699  0.00  0.00     0.036 H 
BRANCH  72  75
ATOM     75  C25 non d ame      -9.157  15.557  66.650  0.00  0.00    -0.001 C 
ATOM     76  C26 non d ame      -9.507  15.454  68.254  0.00  0.00    -0.035 C 
ATOM     77  C27 non d ame     -10.071  16.619  68.652  0.00  0.00     0.085 C 
ATOM     78  H38 non d ame     -10.296  14.720  68.418  0.00  0.00     0.036 H 
ATOM     79  H39 non d ame      -8.587  15.404  68.835  0.00  0.00     0.036 H 
ATOM     80  N5  non d ame     -10.437  17.383  67.402  0.00  0.00    -0.049 N 
ATOM     81  H40 non d ame     -10.985  16.337  69.176  0.00  0.00     0.075 H 
ATOM     82  H41 non d ame      -9.285  17.158  69.180  0.00  0.00     0.075 H 
ATOM     83  C28 non d ame      -9.649  16.660  66.193  0.00  0.00     0.193 C 
ATOM     84  H42 non d ame     -11.428  17.250  67.265  0.00  0.00     0.280 HD
ATOM     85  H43 non d ame     -10.063  18.315  67.516  0.00  0.00     0.280 HD
ATOM     86  H44 non d ame      -8.755  17.113  65.764  0.00  0.00     0.129 H 
ATOM     87  H37 non d ame      -8.119  15.749  66.381  0.00  0.00     0.046 H 
BRANCH  83  88
ATOM     88  O6  non d ame     -10.531  16.440  65.091  0.00  0.00    -0.369 OA
ATOM     89  H45 non d ame     -10.052  16.563  64.268  0.00  0.00     0.212 HD
ENDBRANCH  83  88
ENDBRANCH  72  75
ENDBRANCH  47  72
ENDBRANCH  45  47
ENDBRANCH   1  43
BRANCH   1  90
ATOM     90  C16 non d ame      -6.137  10.953  65.467  0.00  0.00    -0.035 C 
ATOM     91  H21 non d ame      -6.891  10.503  64.820  0.00  0.00     0.037 H 
ATOM     92  H22 non d ame      -5.995  12.033  65.468  0.00  0.00     0.037 H 
BRANCH  90  93
ATOM     93  C17 non d ame      -4.768  10.329  65.049  0.00  0.00    -0.059 C 
ATOM     94  H23 non d ame      -4.941   9.278  64.818  0.00  0.00     0.038 H 
BRANCH  93  95
ATOM     95  C18 non d ame      -4.176  11.006  63.772  0.00  0.00    -0.073 C 
ATOM     96  H24 non d ame      -3.939  12.048  63.990  0.00  0.00     0.028 H 
ATOM     97  H25 non d ame      -3.269  10.483  63.471  0.00  0.00     0.028 H 
ATOM     98  H26 non d ame      -4.907  10.960  62.965  0.00  0.00     0.028 H 
ENDBRANCH  93  95
BRANCH  93  99
ATOM     99  C19 non d ame      -3.767  10.380  66.207  0.00  0.00    -0.073 C 
ATOM    100  H27 non d ame      -4.132   9.766  67.030  0.00  0.00     0.028 H 
ATOM    101  H28 non d ame      -2.802  10.000  65.868  0.00  0.00     0.028 H 
ATOM    102  H29 non d ame      -3.652  11.410  66.543  0.00  0.00     0.028 H 
ENDBRANCH  93  99
ENDBRANCH  90  93
ENDBRANCH   1  90
TORSDOF 26
ENDMDL
MODEL 12
REMARK VINA RESULT:      -6.1      2.390      8.571
REMARK  26 active torsions:
REMARK  status: ('A' for Active; 'I' for Inactive)
REMARK    1  A    between atoms: C2_2  and  C3_3 
REMARK    2  A    between atoms: C4_6  and  C5_7 
REMARK       I    between atoms: C5_7  and  N2_9 
REMARK    3  A    between atoms: N2_9  and  C6_10 
REMARK    4  A    between atoms: C6_10  and  C7_11 
REMARK    5  A    between atoms: C6_10  and  C8_13 
REMARK       I    between atoms: C7_11  and  N3_14 
REMARK    6  A    between atoms: N3_14  and  C9_15 
REMARK    7  A    between atoms: C9_15  and  C10_16 
REMARK    8  A    between atoms: C9_15  and  C11_18 
REMARK       I    between atoms: C10_16  and  N4_21 
REMARK    9  A    between atoms: C11_18  and  C12_19 
REMARK   10  A    between atoms: C11_18  and  C13_20 
REMARK   11  A    between atoms: N4_21  and  C14_22 
REMARK   12  A    between atoms: C14_22  and  C15_23 
REMARK   13  A    between atoms: C14_22  and  C16_25 
REMARK       I    between atoms: C15_23  and  N6_40 
REMARK   14  A    between atoms: C16_25  and  C17_26 
REMARK   15  A    between atoms: C17_26  and  C18_27 
REMARK   16  A    between atoms: C17_26  and  C19_28 
REMARK   17  A    between atoms: C20_29  and  C21_30 
REMARK   18  A    between atoms: C20_29  and  C24_33 
REMARK   19  A    between atoms: C20_29  and  N6_40 
REMARK   20  A    between atoms: C21_30  and  C22_31 
REMARK   21  A    between atoms: C22_31  and  C23_32 
REMARK   22  A    between atoms: C23_32  and  O8_43 
REMARK   23  A    between atoms: C24_33  and  C25_34 
REMARK   24  A    between atoms: C28_38  and  O6_39 
REMARK   25  A    between atoms: C29_42  and  O8_43 
REMARK   26  A    between atoms: C29_42  and  C35_49 
ROOT
ATOM      1  C14 non d ame      -7.091   9.932  63.243  0.00  0.00     0.089 C 
ATOM      2  H20 non d ame      -6.467  10.567  62.612  0.00  0.00     0.087 H 
ENDROOT
BRANCH   1   3
ATOM      3  N4  non d ame      -6.527   9.959  64.584  0.00  0.00    -0.346 N 
ATOM      4  C10 non d ame      -5.213  10.653  64.844  0.00  0.00     0.241 C 
ATOM      5  O4  non d ame      -4.627  11.180  63.957  0.00  0.00    -0.271 OA
ATOM      6  H19 non d ame      -7.040   9.502  65.325  0.00  0.00     0.163 HD
BRANCH   4   7
ATOM      7  C9  non d ame      -4.646  10.675  66.239  0.00  0.00     0.092 C 
ATOM      8  H11 non d ame      -3.696  11.209  66.233  0.00  0.00     0.088 H 
BRANCH   7   9
ATOM      9  N3  non d ame      -5.552  11.416  67.124  0.00  0.00    -0.346 N 
ATOM     10  C7  non d ame      -5.219  12.756  67.538  0.00  0.00     0.240 C 
ATOM     11  O3  non d ame      -4.226  13.255  67.171  0.00  0.00    -0.271 OA
ATOM     12  H10 non d ame      -6.413  10.999  67.449  0.00  0.00     0.163 HD
BRANCH  10  13
ATOM     13  C6  non d ame      -6.186  13.538  68.481  0.00  0.00     0.086 C 
ATOM     14  H6  non d ame      -5.660  14.094  69.257  0.00  0.00     0.086 H 
BRANCH  13  15
ATOM     15  N2  non d ame      -6.923  14.514  67.696  0.00  0.00    -0.343 N 
ATOM     16  C5  non d ame      -7.366  15.761  68.325  0.00  0.00     0.273 C 
ATOM     17  O2  non d ame      -7.127  15.966  69.464  0.00  0.00    -0.266 OA
ATOM     18  H5  non d ame      -7.125  14.329  66.724  0.00  0.00     0.163 HD
BRANCH  16  19
ATOM     19  C4  non d ame      -8.144  16.802  67.507  0.00  0.00     0.154 A 
ATOM     20  C1  non d ame      -8.782  17.986  67.996  0.00  0.00    -0.017 A 
ATOM     21  C2  non d ame      -9.350  18.591  66.853  0.00  0.00     0.077 A 
ATOM     22  H1  non d ame      -8.824  18.351  69.022  0.00  0.00     0.091 H 
ATOM     23  O1  non d ame      -9.065  17.837  65.833  0.00  0.00    -0.218 OA
ATOM     24  N1  non d ame      -8.362  16.786  66.189  0.00  0.00    -0.123 NA
BRANCH  21  25
ATOM     25  C3  non d ame     -10.147  19.889  66.823  0.00  0.00    -0.029 C 
ATOM     26  H2  non d ame      -9.948  20.459  67.730  0.00  0.00     0.036 H 
ATOM     27  H3  non d ame      -9.853  20.476  65.953  0.00  0.00     0.036 H 
ATOM     28  H4  non d ame     -11.212  19.660  66.763  0.00  0.00     0.036 H 
ENDBRANCH  21  25
ENDBRANCH  16  19
ENDBRANCH  13  15
BRANCH  13  29
ATOM     29  C8  non d ame      -7.142  12.574  69.136  0.00  0.00    -0.049 C 
ATOM     30  H7  non d ame      -6.623  11.641  69.358  0.00  0.00     0.030 H 
ATOM     31  H8  non d ame      -7.522  13.008  70.060  0.00  0.00     0.030 H 
ATOM     32  H9  non d ame      -7.974  12.373  68.460  0.00  0.00     0.030 H 
ENDBRANCH  13  29
ENDBRANCH  10  13
ENDBRANCH   7   9
BRANCH   7  33
ATOM     33  C11 non d ame      -4.494   9.216  66.761  0.00  0.00    -0.033 C 
ATOM     34  H12 non d ame      -5.456   8.720  66.636  0.00  0.00     0.042 H 
BRANCH  33  35
ATOM     35  C12 non d ame      -3.443   8.421  65.926  0.00  0.00    -0.071 C 
ATOM     36  H13 non d ame      -3.002   9.078  65.176  0.00  0.00     0.028 H 
ATOM     37  H14 non d ame      -2.661   8.048  66.586  0.00  0.00     0.028 H 
ATOM     38  H15 non d ame      -3.932   7.583  65.432  0.00  0.00     0.028 H 
ENDBRANCH  33  35
BRANCH  33  39
ATOM     39  C13 non d ame      -4.137   9.201  68.282  0.00  0.00    -0.071 C 
ATOM     40  H16 non d ame      -3.977  10.221  68.628  0.00  0.00     0.028 H 
ATOM     41  H17 non d ame      -4.957   8.751  68.843  0.00  0.00     0.028 H 
ATOM     42  H18 non d ame      -3.229   8.618  68.436  0.00  0.00     0.028 H 
ENDBRANCH  33  39
ENDBRANCH   7  33
ENDBRANCH   4   7
ENDBRANCH   1   3
BRANCH   1  43
ATOM     43  C15 non d ame      -8.560  10.438  63.314  0.00  0.00     0.240 C 
ATOM     44  O5  non d ame      -9.341  10.107  62.482  0.00  0.00    -0.271 OA
ATOM     45  N6  non d ame      -8.997  11.328  64.428  0.00  0.00    -0.355 N 
ATOM     46  H46 non d ame      -8.344  11.612  65.143  0.00  0.00     0.162 HD
BRANCH  45  47
ATOM     47  C20 non d ame     -10.398  11.799  64.482  0.00  0.00     0.013 C 
ATOM     48  H30 non d ame     -10.842  11.647  63.499  0.00  0.00     0.072 H 
BRANCH  47  49
ATOM     49  C21 non d ame     -10.418  13.269  64.836  0.00  0.00    -0.038 C 
ATOM     50  H31 non d ame      -9.734  13.749  64.137  0.00  0.00     0.036 H 
ATOM     51  H32 non d ame     -11.470  13.553  64.852  0.00  0.00     0.036 H 
BRANCH  49  52
ATOM     52  C22 non d ame      -9.867  13.552  66.251  0.00  0.00     0.018 C 
ATOM     53  H33 non d ame      -9.687  12.574  66.699  0.00  0.00     0.048 H 
ATOM     54  H34 non d ame      -9.040  14.248  66.112  0.00  0.00     0.048 H 
BRANCH  52  55
ATOM     55  C23 non d ame     -10.880  14.271  67.185  0.00  0.00     0.259 C 
ATOM     56  O7  non d ame     -11.730  14.966  66.731  0.00  0.00    -0.265 OA
BRANCH  55  57
ATOM     57  O8  non d ame     -10.772  14.100  68.593  0.00  0.00    -0.317 OA
BRANCH  57  58
ATOM     58  C29 non d ame     -10.941  15.308  69.340  0.00  0.00     0.052 C 
ATOM     59  H47 non d ame      -9.941  15.604  69.653  0.00  0.00     0.082 H 
ATOM     60  H48 non d ame     -11.531  15.968  68.704  0.00  0.00     0.082 H 
BRANCH  58  61
ATOM     61  C35 non d ame     -11.774  14.975  70.607  0.00  0.00    -0.034 A 
ATOM     62  C30 non d ame     -12.470  13.773  70.687  0.00  0.00    -0.075 A 
ATOM     63  C31 non d ame     -13.218  13.474  71.825  0.00  0.00    -0.082 A 
ATOM     64  H49 non d ame     -12.429  13.065  69.859  0.00  0.00     0.084 H 
ATOM     65  C32 non d ame     -13.271  14.384  72.884  0.00  0.00    -0.083 A 
ATOM     66  H50 non d ame     -13.760  12.530  71.886  0.00  0.00     0.083 H 
ATOM     67  C33 non d ame     -12.578  15.584  72.798  0.00  0.00    -0.082 A 
ATOM     68  H51 non d ame     -13.853  14.158  73.778  0.00  0.00     0.083 H 
ATOM     69  C34 non d ame     -11.827  15.886  71.663  0.00  0.00    -0.075 A 
ATOM     70  H52 non d ame     -12.623  16.293  73.626  0.00  0.00     0.083 H 
ATOM     71  H53 non d ame     -11.284  16.830  71.604  0.00  0.00     0.084 H 
ENDBRANCH  58  61
ENDBRANCH  57  58
ENDBRANCH  55  57
ENDBRANCH  52  55
ENDBRANCH  49  52
ENDBRANCH  47  49
BRANCH  47  72
ATOM     72  C24 non d ame     -11.167  11.009  65.540  0.00  0.00    -0.039 C 
ATOM     73  H35 non d ame     -11.729  11.753  66.105  0.00  0.00     0.036 H 
ATOM     74  H36 non d ame     -11.695  10.229  64.991  0.00  0.00     0.036 H 
BRANCH  72  75
ATOM     75  C25 non d ame     -10.181  10.278  66.569  0.00  0.00    -0.001 C 
ATOM     76  C26 non d ame     -10.049   8.685  66.182  0.00  0.00    -0.035 C 
ATOM     77  C27 non d ame     -10.288   7.946  67.292  0.00  0.00     0.085 C 
ATOM     78  H38 non d ame     -10.852   8.397  65.506  0.00  0.00     0.036 H 
ATOM     79  H39 non d ame      -9.015   8.445  65.934  0.00  0.00     0.036 H 
ATOM     80  N5  non d ame     -10.891   8.875  68.319  0.00  0.00    -0.049 N 
ATOM     81  H40 non d ame     -11.036   7.210  66.996  0.00  0.00     0.075 H 
ATOM     82  H41 non d ame      -9.309   7.620  67.641  0.00  0.00     0.075 H 
ATOM     83  C28 non d ame     -10.615  10.371  67.781  0.00  0.00     0.193 C 
ATOM     84  H42 non d ame     -11.886   8.706  68.307  0.00  0.00     0.280 HD
ATOM     85  H43 non d ame     -10.366   8.739  69.171  0.00  0.00     0.280 HD
ATOM     86  H44 non d ame      -9.833  10.986  68.226  0.00  0.00     0.129 H 
ATOM     87  H37 non d ame      -9.253  10.832  66.714  0.00  0.00     0.046 H 
BRANCH  83  88
ATOM     88  O6  non d ame     -11.808  11.154  67.866  0.00  0.00    -0.369 OA
ATOM     89  H45 non d ame     -12.414  10.890  67.169  0.00  0.00     0.212 HD
ENDBRANCH  83  88
ENDBRANCH  72  75
ENDBRANCH  47  72
ENDBRANCH  45  47
ENDBRANCH   1  43
BRANCH   1  90
ATOM     90  C16 non d ame      -7.066   8.505  62.722  0.00  0.00    -0.035 C 
ATOM     91  H21 non d ame      -8.108   8.252  62.521  0.00  0.00     0.037 H 
ATOM     92  H22 non d ame      -6.339   8.506  61.910  0.00  0.00     0.037 H 
BRANCH  90  93
ATOM     93  C17 non d ame      -6.554   7.465  63.769  0.00  0.00    -0.059 C 
ATOM     94  H23 non d ame      -6.207   8.018  64.641  0.00  0.00     0.038 H 
BRANCH  93  95
ATOM     95  C18 non d ame      -7.686   6.496  64.239  0.00  0.00    -0.073 C 
ATOM     96  H24 non d ame      -7.252   5.532  64.504  0.00  0.00     0.028 H 
ATOM     97  H25 non d ame      -8.189   6.919  65.109  0.00  0.00     0.028 H 
ATOM     98  H26 non d ame      -8.407   6.361  63.432  0.00  0.00     0.028 H 
ENDBRANCH  93  95
BRANCH  93  99
ATOM     99  C19 non d ame      -5.358   6.680  63.223  0.00  0.00    -0.073 C 
ATOM    100  H27 non d ame      -4.608   7.377  62.847  0.00  0.00     0.028 H 
ATOM    101  H28 non d ame      -4.927   6.076  64.021  0.00  0.00     0.028 H 
ATOM    102  H29 non d ame      -5.689   6.029  62.413  0.00  0.00     0.028 H 
ENDBRANCH  93  99
ENDBRANCH  90  93
ENDBRANCH   1  90
TORSDOF 26
ENDMDL
MODEL 13
REMARK VINA RESULT:      -6.1      2.759      4.455
REMARK  26 active torsions:
REMARK  status: ('A' for Active; 'I' for Inactive)
REMARK    1  A    between atoms: C2_2  and  C3_3 
REMARK    2  A    between atoms: C4_6  and  C5_7 
REMARK       I    between atoms: C5_7  and  N2_9 
REMARK    3  A    between atoms: N2_9  and  C6_10 
REMARK    4  A    between atoms: C6_10  and  C7_11 
REMARK    5  A    between atoms: C6_10  and  C8_13 
REMARK       I    between atoms: C7_11  and  N3_14 
REMARK    6  A    between atoms: N3_14  and  C9_15 
REMARK    7  A    between atoms: C9_15  and  C10_16 
REMARK    8  A    between atoms: C9_15  and  C11_18 
REMARK       I    between atoms: C10_16  and  N4_21 
REMARK    9  A    between atoms: C11_18  and  C12_19 
REMARK   10  A    between atoms: C11_18  and  C13_20 
REMARK   11  A    between atoms: N4_21  and  C14_22 
REMARK   12  A    between atoms: C14_22  and  C15_23 
REMARK   13  A    between atoms: C14_22  and  C16_25 
REMARK       I    between atoms: C15_23  and  N6_40 
REMARK   14  A    between atoms: C16_25  and  C17_26 
REMARK   15  A    between atoms: C17_26  and  C18_27 
REMARK   16  A    between atoms: C17_26  and  C19_28 
REMARK   17  A    between atoms: C20_29  and  C21_30 
REMARK   18  A    between atoms: C20_29  and  C24_33 
REMARK   19  A    between atoms: C20_29  and  N6_40 
REMARK   20  A    between atoms: C21_30  and  C22_31 
REMARK   21  A    between atoms: C22_31  and  C23_32 
REMARK   22  A    between atoms: C23_32  and  O8_43 
REMARK   23  A    between atoms: C24_33  and  C25_34 
REMARK   24  A    between atoms: C28_38  and  O6_39 
REMARK   25  A    between atoms: C29_42  and  O8_43 
REMARK   26  A    between atoms: C29_42  and  C35_49 
ROOT
ATOM      1  C14 non d ame     -12.388  13.778  70.248  0.00  0.00     0.089 C 
ATOM      2  H20 non d ame     -13.473  13.804  70.357  0.00  0.00     0.087 H 
ENDROOT
BRANCH   1   3
ATOM      3  N4  non d ame     -11.989  12.381  70.167  0.00  0.00    -0.346 N 
ATOM      4  C10 non d ame     -12.640  11.351  71.057  0.00  0.00     0.241 C 
ATOM      5  O4  non d ame     -13.480  11.672  71.832  0.00  0.00    -0.271 OA
ATOM      6  H19 non d ame     -11.271  12.128  69.504  0.00  0.00     0.163 HD
BRANCH   4   7
ATOM      7  C9  non d ame     -12.219   9.908  70.957  0.00  0.00     0.092 C 
ATOM      8  H11 non d ame     -12.549   9.503  70.000  0.00  0.00     0.088 H 
BRANCH   7   9
ATOM      9  N3  non d ame     -10.755   9.823  70.981  0.00  0.00    -0.346 N 
ATOM     10  C7  non d ame     -10.045   9.295  69.843  0.00  0.00     0.240 C 
ATOM     11  O3  non d ame     -10.635   8.933  68.898  0.00  0.00    -0.271 OA
ATOM     12  H10 non d ame     -10.232  10.131  71.789  0.00  0.00     0.163 HD
BRANCH  10  13
ATOM     13  C6  non d ame      -8.488   9.205  69.876  0.00  0.00     0.086 C 
ATOM     14  H6  non d ame      -8.032   9.992  70.475  0.00  0.00     0.086 H 
BRANCH  13  15
ATOM     15  N2  non d ame      -8.102   7.942  70.485  0.00  0.00    -0.343 N 
ATOM     16  C5  non d ame      -8.025   7.838  71.944  0.00  0.00     0.273 C 
ATOM     17  O2  non d ame      -8.272   8.777  72.618  0.00  0.00    -0.266 OA
ATOM     18  H5  non d ame      -7.890   7.146  69.900  0.00  0.00     0.163 HD
BRANCH  16  19
ATOM     19  C4  non d ame      -7.620   6.510  72.600  0.00  0.00     0.154 A 
ATOM     20  C1  non d ame      -7.080   5.353  71.952  0.00  0.00    -0.017 A 
ATOM     21  C2  non d ame      -6.881   4.415  72.989  0.00  0.00     0.077 A 
ATOM     22  H1  non d ame      -6.866   5.216  70.892  0.00  0.00     0.091 H 
ATOM     23  O1  non d ame      -7.262   4.977  74.098  0.00  0.00    -0.218 OA
ATOM     24  N1  non d ame      -7.697   6.200  73.897  0.00  0.00    -0.123 NA
BRANCH  21  25
ATOM     25  C3  non d ame      -6.321   3.007  72.835  0.00  0.00    -0.029 C 
ATOM     26  H2  non d ame      -6.700   2.564  71.914  0.00  0.00     0.036 H 
ATOM     27  H3  non d ame      -5.233   3.051  72.797  0.00  0.00     0.036 H 
ATOM     28  H4  non d ame      -6.631   2.398  73.685  0.00  0.00     0.036 H 
ENDBRANCH  21  25
ENDBRANCH  16  19
ENDBRANCH  13  15
BRANCH  13  29
ATOM     29  C8  non d ame      -7.947   9.287  68.471  0.00  0.00    -0.049 C 
ATOM     30  H7  non d ame      -7.155  10.036  68.430  0.00  0.00     0.030 H 
ATOM     31  H8  non d ame      -7.545   8.317  68.178  0.00  0.00     0.030 H 
ATOM     32  H9  non d ame      -8.749   9.569  67.789  0.00  0.00     0.030 H 
ENDBRANCH  13  29
ENDBRANCH  10  13
ENDBRANCH   7   9
BRANCH   7  33
ATOM     33  C11 non d ame     -12.802   9.114  72.162  0.00  0.00    -0.033 C 
ATOM     34  H12 non d ame     -12.932   9.814  72.986  0.00  0.00     0.042 H 
BRANCH  33  35
ATOM     35  C12 non d ame     -14.205   8.519  71.825  0.00  0.00    -0.071 C 
ATOM     36  H13 non d ame     -14.082   7.591  71.267  0.00  0.00     0.028 H 
ATOM     37  H14 non d ame     -14.746   8.318  72.749  0.00  0.00     0.028 H 
ATOM     38  H15 non d ame     -14.766   9.233  71.223  0.00  0.00     0.028 H 
ENDBRANCH  33  35
BRANCH  33  39
ATOM     39  C13 non d ame     -11.812   7.998  72.627  0.00  0.00    -0.071 C 
ATOM     40  H16 non d ame     -11.552   7.366  71.779  0.00  0.00     0.028 H 
ATOM     41  H17 non d ame     -10.908   8.458  73.029  0.00  0.00     0.028 H 
ATOM     42  H18 non d ame     -12.285   7.392  73.400  0.00  0.00     0.028 H 
ENDBRANCH  33  39
ENDBRANCH   7  33
ENDBRANCH   4   7
ENDBRANCH   1   3
BRANCH   1  43
ATOM     43  C15 non d ame     -11.910  14.503  68.957  0.00  0.00     0.240 C 
ATOM     44  O5  non d ame     -12.425  14.257  67.915  0.00  0.00    -0.271 OA
ATOM     45  N6  non d ame     -10.815  15.513  69.022  0.00  0.00    -0.355 N 
ATOM     46  H46 non d ame     -10.373  15.734  69.903  0.00  0.00     0.162 HD
BRANCH  45  47
ATOM     47  C20 non d ame     -10.373  16.195  67.787  0.00  0.00     0.013 C 
ATOM     48  H30 non d ame     -11.260  16.444  67.205  0.00  0.00     0.072 H 
BRANCH  47  49
ATOM     49  C21 non d ame      -9.481  15.266  66.995  0.00  0.00    -0.038 C 
ATOM     50  H31 non d ame      -8.464  15.489  67.317  0.00  0.00     0.036 H 
ATOM     51  H32 non d ame      -9.893  14.267  67.141  0.00  0.00     0.036 H 
BRANCH  49  52
ATOM     52  C22 non d ame      -9.528  15.540  65.476  0.00  0.00     0.018 C 
ATOM     53  H33 non d ame      -9.063  16.517  65.337  0.00  0.00     0.048 H 
ATOM     54  H34 non d ame      -9.097  14.659  65.003  0.00  0.00     0.048 H 
BRANCH  52  55
ATOM     55  C23 non d ame     -10.969  15.670  64.908  0.00  0.00     0.259 C 
ATOM     56  O7  non d ame     -11.308  16.660  64.344  0.00  0.00    -0.265 OA
BRANCH  55  57
ATOM     57  O8  non d ame     -11.885  14.595  65.080  0.00  0.00    -0.317 OA
BRANCH  57  58
ATOM     58  C29 non d ame     -11.973  13.719  63.953  0.00  0.00     0.052 C 
ATOM     59  H47 non d ame     -13.026  13.459  63.863  0.00  0.00     0.082 H 
ATOM     60  H48 non d ame     -11.467  14.236  63.137  0.00  0.00     0.082 H 
BRANCH  58  61
ATOM     61  C35 non d ame     -11.174  12.430  64.285  0.00  0.00    -0.034 A 
ATOM     62  C30 non d ame     -11.163  11.932  65.584  0.00  0.00    -0.075 A 
ATOM     63  C31 non d ame     -10.446  10.775  65.882  0.00  0.00    -0.082 A 
ATOM     64  H49 non d ame     -11.718  12.448  66.368  0.00  0.00     0.084 H 
ATOM     65  C32 non d ame      -9.734  10.117  64.876  0.00  0.00    -0.083 A 
ATOM     66  H50 non d ame     -10.443  10.385  66.901  0.00  0.00     0.083 H 
ATOM     67  C33 non d ame      -9.744  10.619  63.582  0.00  0.00    -0.082 A 
ATOM     68  H51 non d ame      -9.171   9.211  65.101  0.00  0.00     0.083 H 
ATOM     69  C34 non d ame     -10.462  11.775  63.279  0.00  0.00    -0.075 A 
ATOM     70  H52 non d ame      -9.185  10.104  62.800  0.00  0.00     0.083 H 
ATOM     71  H53 non d ame     -10.466  12.162  62.260  0.00  0.00     0.084 H 
ENDBRANCH  58  61
ENDBRANCH  57  58
ENDBRANCH  55  57
ENDBRANCH  52  55
ENDBRANCH  49  52
ENDBRANCH  47  49
BRANCH  47  72
ATOM     72  C24 non d ame      -9.600  17.462  68.145  0.00  0.00    -0.039 C 
ATOM     73  H35 non d ame     -10.289  18.064  68.739  0.00  0.00     0.036 H 
ATOM     74  H36 non d ame      -8.663  17.117  68.584  0.00  0.00     0.036 H 
BRANCH  72  75
ATOM     75  C25 non d ame      -9.226  18.318  66.844  0.00  0.00    -0.001 C 
ATOM     76  C26 non d ame      -7.626  18.697  66.865  0.00  0.00    -0.035 C 
ATOM     77  C27 non d ame      -7.492  20.031  66.668  0.00  0.00     0.085 C 
ATOM     78  H38 non d ame      -7.218  18.545  67.863  0.00  0.00     0.036 H 
ATOM     79  H39 non d ame      -7.126  18.261  66.000  0.00  0.00     0.036 H 
ATOM     80  N5  non d ame      -8.861  20.643  66.842  0.00  0.00    -0.049 N 
ATOM     81  H40 non d ame      -6.842  20.380  67.471  0.00  0.00     0.075 H 
ATOM     82  H41 non d ame      -7.183  20.142  65.630  0.00  0.00     0.075 H 
ATOM     83  C28 non d ame      -9.907  19.413  66.791  0.00  0.00     0.193 C 
ATOM     84  H42 non d ame      -8.880  21.043  67.769  0.00  0.00     0.280 HD
ATOM     85  H43 non d ame      -9.017  21.230  66.035  0.00  0.00     0.280 HD
ATOM     86  H44 non d ame     -10.506  19.232  65.900  0.00  0.00     0.129 H 
ATOM     87  H37 non d ame      -9.617  17.870  65.930  0.00  0.00     0.046 H 
BRANCH  83  88
ATOM     88  O6  non d ame     -10.843  19.517  67.866  0.00  0.00    -0.369 OA
ATOM     89  H45 non d ame     -10.820  18.711  68.388  0.00  0.00     0.212 HD
ENDBRANCH  83  88
ENDBRANCH  72  75
ENDBRANCH  47  72
ENDBRANCH  45  47
ENDBRANCH   1  43
BRANCH   1  90
ATOM     90  C16 non d ame     -11.732  14.412  71.463  0.00  0.00    -0.035 C 
ATOM     91  H21 non d ame     -11.567  13.591  72.163  0.00  0.00     0.037 H 
ATOM     92  H22 non d ame     -10.883  14.974  71.073  0.00  0.00     0.037 H 
BRANCH  90  93
ATOM     93  C17 non d ame     -12.643  15.444  72.201  0.00  0.00    -0.059 C 
ATOM     94  H23 non d ame     -12.395  16.435  71.822  0.00  0.00     0.038 H 
BRANCH  93  95
ATOM     95  C18 non d ame     -14.160  15.194  71.925  0.00  0.00    -0.073 C 
ATOM     96  H24 non d ame     -14.283  14.771  70.928  0.00  0.00     0.028 H 
ATOM     97  H25 non d ame     -14.554  14.499  72.666  0.00  0.00     0.028 H 
ATOM     98  H26 non d ame     -14.701  16.139  71.988  0.00  0.00     0.028 H 
ENDBRANCH  93  95
BRANCH  93  99
ATOM     99  C19 non d ame     -12.357  15.449  73.706  0.00  0.00    -0.073 C 
ATOM    100  H27 non d ame     -12.124  14.436  74.034  0.00  0.00     0.028 H 
ATOM    101  H28 non d ame     -11.509  16.103  73.911  0.00  0.00     0.028 H 
ATOM    102  H29 non d ame     -13.233  15.813  74.241  0.00  0.00     0.028 H 
ENDBRANCH  93  99
ENDBRANCH  90  93
ENDBRANCH   1  90
TORSDOF 26
ENDMDL
MODEL 14
REMARK VINA RESULT:      -6.1      2.981      8.093
REMARK  26 active torsions:
REMARK  status: ('A' for Active; 'I' for Inactive)
REMARK    1  A    between atoms: C2_2  and  C3_3 
REMARK    2  A    between atoms: C4_6  and  C5_7 
REMARK       I    between atoms: C5_7  and  N2_9 
REMARK    3  A    between atoms: N2_9  and  C6_10 
REMARK    4  A    between atoms: C6_10  and  C7_11 
REMARK    5  A    between atoms: C6_10  and  C8_13 
REMARK       I    between atoms: C7_11  and  N3_14 
REMARK    6  A    between atoms: N3_14  and  C9_15 
REMARK    7  A    between atoms: C9_15  and  C10_16 
REMARK    8  A    between atoms: C9_15  and  C11_18 
REMARK       I    between atoms: C10_16  and  N4_21 
REMARK    9  A    between atoms: C11_18  and  C12_19 
REMARK   10  A    between atoms: C11_18  and  C13_20 
REMARK   11  A    between atoms: N4_21  and  C14_22 
REMARK   12  A    between atoms: C14_22  and  C15_23 
REMARK   13  A    between atoms: C14_22  and  C16_25 
REMARK       I    between atoms: C15_23  and  N6_40 
REMARK   14  A    between atoms: C16_25  and  C17_26 
REMARK   15  A    between atoms: C17_26  and  C18_27 
REMARK   16  A    between atoms: C17_26  and  C19_28 
REMARK   17  A    between atoms: C20_29  and  C21_30 
REMARK   18  A    between atoms: C20_29  and  C24_33 
REMARK   19  A    between atoms: C20_29  and  N6_40 
REMARK   20  A    between atoms: C21_30  and  C22_31 
REMARK   21  A    between atoms: C22_31  and  C23_32 
REMARK   22  A    between atoms: C23_32  and  O8_43 
REMARK   23  A    between atoms: C24_33  and  C25_34 
REMARK   24  A    between atoms: C28_38  and  O6_39 
REMARK   25  A    between atoms: C29_42  and  O8_43 
REMARK   26  A    between atoms: C29_42  and  C35_49 
ROOT
ATOM      1  C14 non d ame      -7.582   9.543  66.369  0.00  0.00     0.089 C 
ATOM      2  H20 non d ame      -7.537   9.096  65.375  0.00  0.00     0.087 H 
ENDROOT
BRANCH   1   3
ATOM      3  N4  non d ame      -8.632  10.551  66.349  0.00  0.00    -0.346 N 
ATOM      4  C10 non d ame      -9.928  10.287  65.622  0.00  0.00     0.241 C 
ATOM      5  O4  non d ame     -10.100   9.256  65.059  0.00  0.00    -0.271 OA
ATOM      6  H19 non d ame      -8.465  11.422  66.831  0.00  0.00     0.163 HD
BRANCH   4   7
ATOM      7  C9  non d ame     -11.006  11.338  65.616  0.00  0.00     0.092 C 
ATOM      8  H11 non d ame     -11.963  10.873  65.851  0.00  0.00     0.088 H 
BRANCH   7   9
ATOM      9  N3  non d ame     -10.734  12.323  66.668  0.00  0.00    -0.346 N 
ATOM     10  C7  non d ame     -11.458  12.266  67.913  0.00  0.00     0.240 C 
ATOM     11  O3  non d ame     -12.263  11.434  68.087  0.00  0.00    -0.271 OA
ATOM     12  H10 non d ame     -10.042  13.047  66.532  0.00  0.00     0.163 HD
BRANCH  10  13
ATOM     13  C6  non d ame     -11.167  13.319  69.027  0.00  0.00     0.086 C 
ATOM     14  H6  non d ame     -10.172  13.212  69.459  0.00  0.00     0.086 H 
BRANCH  13  15
ATOM     15  N2  non d ame     -11.225  14.650  68.445  0.00  0.00    -0.343 N 
ATOM     16  C5  non d ame     -10.019  15.233  67.853  0.00  0.00     0.273 C 
ATOM     17  O2  non d ame      -9.006  14.625  67.854  0.00  0.00    -0.266 OA
ATOM     18  H5  non d ame     -12.095  15.163  68.451  0.00  0.00     0.163 HD
BRANCH  16  19
ATOM     19  C4  non d ame     -10.068  16.638  67.233  0.00  0.00     0.154 A 
ATOM     20  C1  non d ame     -10.040  17.890  67.926  0.00  0.00    -0.017 A 
ATOM     21  C2  non d ame     -10.106  18.869  66.909  0.00  0.00     0.077 A 
ATOM     22  H1  non d ame      -9.979  18.062  69.000  0.00  0.00     0.091 H 
ATOM     23  O1  non d ame     -10.163  18.242  65.771  0.00  0.00    -0.218 OA
ATOM     24  N1  non d ame     -10.142  16.939  65.934  0.00  0.00    -0.123 NA
BRANCH  21  25
ATOM     25  C3  non d ame     -10.108  20.378  67.111  0.00  0.00    -0.029 C 
ATOM     26  H2  non d ame      -9.231  20.811  66.629  0.00  0.00     0.036 H 
ATOM     27  H3  non d ame     -11.010  20.802  66.671  0.00  0.00     0.036 H 
ATOM     28  H4  non d ame     -10.084  20.603  68.178  0.00  0.00     0.036 H 
ENDBRANCH  21  25
ENDBRANCH  16  19
ENDBRANCH  13  15
BRANCH  13  29
ATOM     29  C8  non d ame     -12.191  13.190  70.125  0.00  0.00    -0.049 C 
ATOM     30  H7  non d ame     -12.796  12.299  69.955  0.00  0.00     0.030 H 
ATOM     31  H8  non d ame     -11.687  13.109  71.087  0.00  0.00     0.030 H 
ATOM     32  H9  non d ame     -12.836  14.070  70.125  0.00  0.00     0.030 H 
ENDBRANCH  13  29
ENDBRANCH  10  13
ENDBRANCH   7   9
BRANCH   7  33
ATOM     33  C11 non d ame     -11.025  12.052  64.232  0.00  0.00    -0.033 C 
ATOM     34  H12 non d ame     -12.004  11.879  63.787  0.00  0.00     0.042 H 
BRANCH  33  35
ATOM     35  C12 non d ame     -10.845  13.595  64.386  0.00  0.00    -0.071 C 
ATOM     36  H13 non d ame     -11.822  14.065  64.500  0.00  0.00     0.028 H 
ATOM     37  H14 non d ame     -10.237  13.803  65.265  0.00  0.00     0.028 H 
ATOM     38  H15 non d ame     -10.352  13.991  63.500  0.00  0.00     0.028 H 
ENDBRANCH  33  35
BRANCH  33  39
ATOM     39  C13 non d ame      -9.946  11.449  63.277  0.00  0.00    -0.071 C 
ATOM     40  H16 non d ame     -10.266  10.463  62.942  0.00  0.00     0.028 H 
ATOM     41  H17 non d ame      -9.819  12.103  62.413  0.00  0.00     0.028 H 
ATOM     42  H18 non d ame      -8.998  11.363  63.808  0.00  0.00     0.028 H 
ENDBRANCH  33  39
ENDBRANCH   7  33
ENDBRANCH   4   7
ENDBRANCH   1   3
BRANCH   1  43
ATOM     43  C15 non d ame      -7.922   8.497  67.468  0.00  0.00     0.240 C 
ATOM     44  O5  non d ame      -7.473   8.621  68.561  0.00  0.00    -0.271 OA
ATOM     45  N6  non d ame      -8.817   7.345  67.161  0.00  0.00    -0.355 N 
ATOM     46  H46 non d ame      -9.208   7.232  66.237  0.00  0.00     0.162 HD
BRANCH  45  47
ATOM     47  C20 non d ame      -9.131   6.359  68.217  0.00  0.00     0.013 C 
ATOM     48  H30 non d ame      -8.453   6.534  69.053  0.00  0.00     0.072 H 
BRANCH  47  49
ATOM     49  C21 non d ame      -8.930   4.962  67.675  0.00  0.00    -0.038 C 
ATOM     50  H31 non d ame      -8.010   5.002  67.093  0.00  0.00     0.036 H 
ATOM     51  H32 non d ame      -9.003   4.298  68.537  0.00  0.00     0.036 H 
BRANCH  49  52
ATOM     52  C22 non d ame     -10.046   4.533  66.698  0.00  0.00     0.018 C 
ATOM     53  H33 non d ame     -10.227   3.477  66.900  0.00  0.00     0.048 H 
ATOM     54  H34 non d ame     -10.849   5.258  66.830  0.00  0.00     0.048 H 
BRANCH  52  55
ATOM     55  C23 non d ame      -9.635   4.617  65.201  0.00  0.00     0.259 C 
ATOM     56  O7  non d ame     -10.171   3.934  64.390  0.00  0.00    -0.265 OA
BRANCH  55  57
ATOM     57  O8  non d ame      -8.600   5.511  64.812  0.00  0.00    -0.317 OA
BRANCH  57  58
ATOM     58  C29 non d ame      -8.232   5.410  63.433  0.00  0.00     0.052 C 
ATOM     59  H47 non d ame      -7.627   4.508  63.354  0.00  0.00     0.082 H 
ATOM     60  H48 non d ame      -9.164   5.492  62.873  0.00  0.00     0.082 H 
BRANCH  58  61
ATOM     61  C35 non d ame      -7.342   6.632  63.084  0.00  0.00    -0.034 A 
ATOM     62  C30 non d ame      -7.926   7.832  62.692  0.00  0.00    -0.075 A 
ATOM     63  C31 non d ame      -7.126   8.930  62.379  0.00  0.00    -0.082 A 
ATOM     64  H49 non d ame      -9.012   7.912  62.630  0.00  0.00     0.084 H 
ATOM     65  C32 non d ame      -5.735   8.823  62.456  0.00  0.00    -0.083 A 
ATOM     66  H50 non d ame      -7.588   9.869  62.075  0.00  0.00     0.083 H 
ATOM     67  C33 non d ame      -5.155   7.623  62.845  0.00  0.00    -0.082 A 
ATOM     68  H51 non d ame      -5.102   9.677  62.214  0.00  0.00     0.083 H 
ATOM     69  C34 non d ame      -5.952   6.524  63.161  0.00  0.00    -0.075 A 
ATOM     70  H52 non d ame      -4.069   7.543  62.903  0.00  0.00     0.083 H 
ATOM     71  H53 non d ame      -5.489   5.585  63.467  0.00  0.00     0.084 H 
ENDBRANCH  58  61
ENDBRANCH  57  58
ENDBRANCH  55  57
ENDBRANCH  52  55
ENDBRANCH  49  52
ENDBRANCH  47  49
BRANCH  47  72
ATOM     72  C24 non d ame     -10.581   6.529  68.666  0.00  0.00    -0.039 C 
ATOM     73  H35 non d ame     -11.039   7.186  67.925  0.00  0.00     0.036 H 
ATOM     74  H36 non d ame     -10.963   5.517  68.805  0.00  0.00     0.036 H 
BRANCH  72  75
ATOM     75  C25 non d ame     -10.682   7.270  70.082  0.00  0.00    -0.001 C 
ATOM     76  C26 non d ame     -11.789   6.513  71.033  0.00  0.00    -0.035 C 
ATOM     77  C27 non d ame     -12.659   7.436  71.510  0.00  0.00     0.085 C 
ATOM     78  H38 non d ame     -12.417   5.859  70.428  0.00  0.00     0.036 H 
ATOM     79  H39 non d ame     -11.309   6.128  71.932  0.00  0.00     0.036 H 
ATOM     80  N5  non d ame     -12.443   8.699  70.711  0.00  0.00    -0.049 N 
ATOM     81  H40 non d ame     -13.651   7.041  71.290  0.00  0.00     0.075 H 
ATOM     82  H41 non d ame     -12.358   7.613  72.541  0.00  0.00     0.075 H 
ATOM     83  C28 non d ame     -11.038   8.504  69.941  0.00  0.00     0.193 C 
ATOM     84  H42 non d ame     -13.183   8.734  70.025  0.00  0.00     0.280 HD
ATOM     85  H43 non d ame     -12.340   9.447  71.381  0.00  0.00     0.280 HD
ATOM     86  H44 non d ame     -10.139   9.011  70.290  0.00  0.00     0.129 H 
ATOM     87  H37 non d ame      -9.701   7.461  70.518  0.00  0.00     0.046 H 
BRANCH  83  88
ATOM     88  O6  non d ame     -11.173   8.871  68.567  0.00  0.00    -0.369 OA
ATOM     89  H45 non d ame     -10.987   9.808  68.466  0.00  0.00     0.212 HD
ENDBRANCH  83  88
ENDBRANCH  72  75
ENDBRANCH  47  72
ENDBRANCH  45  47
ENDBRANCH   1  43
BRANCH   1  90
ATOM     90  C16 non d ame      -6.257  10.214  66.692  0.00  0.00    -0.035 C 
ATOM     91  H21 non d ame      -6.303  11.191  66.210  0.00  0.00     0.037 H 
ATOM     92  H22 non d ame      -6.156  10.145  67.775  0.00  0.00     0.037 H 
BRANCH  90  93
ATOM     93  C17 non d ame      -5.019   9.481  66.086  0.00  0.00    -0.059 C 
ATOM     94  H23 non d ame      -5.388   8.656  65.477  0.00  0.00     0.038 H 
BRANCH  93  95
ATOM     95  C18 non d ame      -4.176  10.416  65.160  0.00  0.00    -0.073 C 
ATOM     96  H24 non d ame      -3.635  11.139  65.770  0.00  0.00     0.028 H 
ATOM     97  H25 non d ame      -3.465   9.817  64.591  0.00  0.00     0.028 H 
ATOM     98  H26 non d ame      -4.840  10.942  64.474  0.00  0.00     0.028 H 
ENDBRANCH  93  95
BRANCH  93  99
ATOM     99  C19 non d ame      -4.146   8.876  67.189  0.00  0.00    -0.073 C 
ATOM    100  H27 non d ame      -4.772   8.305  67.875  0.00  0.00     0.028 H 
ATOM    101  H28 non d ame      -3.402   8.216  66.741  0.00  0.00     0.028 H 
ATOM    102  H29 non d ame      -3.642   9.674  67.733  0.00  0.00     0.028 H 
ENDBRANCH  93  99
ENDBRANCH  90  93
ENDBRANCH   1  90
TORSDOF 26
ENDMDL
MODEL 15
REMARK VINA RESULT:      -6.1      2.961      9.173
REMARK  26 active torsions:
REMARK  status: ('A' for Active; 'I' for Inactive)
REMARK    1  A    between atoms: C2_2  and  C3_3 
REMARK    2  A    between atoms: C4_6  and  C5_7 
REMARK       I    between atoms: C5_7  and  N2_9 
REMARK    3  A    between atoms: N2_9  and  C6_10 
REMARK    4  A    between atoms: C6_10  and  C7_11 
REMARK    5  A    between atoms: C6_10  and  C8_13 
REMARK       I    between atoms: C7_11  and  N3_14 
REMARK    6  A    between atoms: N3_14  and  C9_15 
REMARK    7  A    between atoms: C9_15  and  C10_16 
REMARK    8  A    between atoms: C9_15  and  C11_18 
REMARK       I    between atoms: C10_16  and  N4_21 
REMARK    9  A    between atoms: C11_18  and  C12_19 
REMARK   10  A    between atoms: C11_18  and  C13_20 
REMARK   11  A    between atoms: N4_21  and  C14_22 
REMARK   12  A    between atoms: C14_22  and  C15_23 
REMARK   13  A    between atoms: C14_22  and  C16_25 
REMARK       I    between atoms: C15_23  and  N6_40 
REMARK   14  A    between atoms: C16_25  and  C17_26 
REMARK   15  A    between atoms: C17_26  and  C18_27 
REMARK   16  A    between atoms: C17_26  and  C19_28 
REMARK   17  A    between atoms: C20_29  and  C21_30 
REMARK   18  A    between atoms: C20_29  and  C24_33 
REMARK   19  A    between atoms: C20_29  and  N6_40 
REMARK   20  A    between atoms: C21_30  and  C22_31 
REMARK   21  A    between atoms: C22_31  and  C23_32 
REMARK   22  A    between atoms: C23_32  and  O8_43 
REMARK   23  A    between atoms: C24_33  and  C25_34 
REMARK   24  A    between atoms: C28_38  and  O6_39 
REMARK   25  A    between atoms: C29_42  and  O8_43 
REMARK   26  A    between atoms: C29_42  and  C35_49 
ROOT
ATOM      1  C14 non d ame     -10.835   6.320  67.079  0.00  0.00     0.089 C 
ATOM      2  H20 non d ame     -11.847   6.589  66.773  0.00  0.00     0.087 H 
ENDROOT
BRANCH   1   3
ATOM      3  N4  non d ame      -9.949   7.389  66.646  0.00  0.00    -0.346 N 
ATOM      4  C10 non d ame     -10.319   8.832  66.889  0.00  0.00     0.241 C 
ATOM      5  O4  non d ame     -11.339   9.106  67.432  0.00  0.00    -0.271 OA
ATOM      6  H19 non d ame      -9.087   7.136  66.183  0.00  0.00     0.163 HD
BRANCH   4   7
ATOM      7  C9  non d ame      -9.388   9.926  66.439  0.00  0.00     0.092 C 
ATOM      8  H11 non d ame      -8.922   9.637  65.497  0.00  0.00     0.088 H 
BRANCH   7   9
ATOM      9  N3  non d ame     -10.157  11.149  66.184  0.00  0.00    -0.346 N 
ATOM     10  C7  non d ame     -10.625  11.440  64.852  0.00  0.00     0.240 C 
ATOM     11  O3  non d ame     -10.393  10.703  63.973  0.00  0.00    -0.271 OA
ATOM     12  H10 non d ame     -10.364  11.795  66.932  0.00  0.00     0.163 HD
BRANCH  10  13
ATOM     13  C6  non d ame     -11.440  12.744  64.586  0.00  0.00     0.086 C 
ATOM     14  H6  non d ame     -12.235  12.901  65.316  0.00  0.00     0.086 H 
BRANCH  13  15
ATOM     15  N2  non d ame     -10.548  13.887  64.691  0.00  0.00    -0.343 N 
ATOM     16  C5  non d ame     -10.757  14.872  65.755  0.00  0.00     0.273 C 
ATOM     17  O2  non d ame     -11.648  14.737  66.519  0.00  0.00    -0.266 OA
ATOM     18  H5  non d ame      -9.790  13.996  64.032  0.00  0.00     0.163 HD
BRANCH  16  19
ATOM     19  C4  non d ame      -9.821  16.084  65.877  0.00  0.00     0.154 A 
ATOM     20  C1  non d ame      -8.438  16.074  66.246  0.00  0.00    -0.017 A 
ATOM     21  C2  non d ame      -8.043  17.430  66.209  0.00  0.00     0.077 A 
ATOM     22  H1  non d ame      -7.816  15.216  66.500  0.00  0.00     0.091 H 
ATOM     23  O1  non d ame      -9.083  18.127  65.857  0.00  0.00    -0.218 OA
ATOM     24  N1  non d ame     -10.133  17.364  65.658  0.00  0.00    -0.123 NA
BRANCH  21  25
ATOM     25  C3  non d ame      -6.655  17.973  66.521  0.00  0.00    -0.029 C 
ATOM     26  H2  non d ame      -6.720  18.692  67.338  0.00  0.00     0.036 H 
ATOM     27  H3  non d ame      -6.000  17.152  66.811  0.00  0.00     0.036 H 
ATOM     28  H4  non d ame      -6.249  18.465  65.635  0.00  0.00     0.036 H 
ENDBRANCH  21  25
ENDBRANCH  16  19
ENDBRANCH  13  15
BRANCH  13  29
ATOM     29  C8  non d ame     -12.048  12.689  63.208  0.00  0.00    -0.049 C 
ATOM     30  H7  non d ame     -11.261  12.524  62.471  0.00  0.00     0.030 H 
ATOM     31  H8  non d ame     -12.768  11.872  63.160  0.00  0.00     0.030 H 
ATOM     32  H9  non d ame     -12.552  13.631  62.996  0.00  0.00     0.030 H 
ENDBRANCH  13  29
ENDBRANCH  10  13
ENDBRANCH   7   9
BRANCH   7  33
ATOM     33  C11 non d ame      -8.335  10.201  67.553  0.00  0.00    -0.033 C 
ATOM     34  H12 non d ame      -7.579   9.420  67.491  0.00  0.00     0.042 H 
BRANCH  33  35
ATOM     35  C12 non d ame      -7.617  11.569  67.331  0.00  0.00    -0.071 C 
ATOM     36  H13 non d ame      -8.290  12.381  67.605  0.00  0.00     0.028 H 
ATOM     37  H14 non d ame      -6.722  11.613  67.950  0.00  0.00     0.028 H 
ATOM     38  H15 non d ame      -7.340  11.666  66.282  0.00  0.00     0.028 H 
ENDBRANCH  33  35
BRANCH  33  39
ATOM     39  C13 non d ame      -8.989  10.130  68.970  0.00  0.00    -0.071 C 
ATOM     40  H16 non d ame      -9.751   9.351  68.980  0.00  0.00     0.028 H 
ATOM     41  H17 non d ame      -8.224   9.898  69.713  0.00  0.00     0.028 H 
ATOM     42  H18 non d ame      -9.447  11.090  69.208  0.00  0.00     0.028 H 
ENDBRANCH  33  39
ENDBRANCH   7  33
ENDBRANCH   4   7
ENDBRANCH   1   3
BRANCH   1  43
ATOM     43  C15 non d ame     -10.708   6.166  68.621  0.00  0.00     0.240 C 
ATOM     44  O5  non d ame      -9.917   5.406  69.077  0.00  0.00    -0.271 OA
ATOM     45  N6  non d ame     -11.568   6.975  69.532  0.00  0.00    -0.355 N 
ATOM     46  H46 non d ame     -12.241   7.628  69.157  0.00  0.00     0.162 HD
BRANCH  45  47
ATOM     47  C20 non d ame     -11.435   6.819  70.996  0.00  0.00     0.013 C 
ATOM     48  H30 non d ame     -11.356   5.754  71.214  0.00  0.00     0.072 H 
BRANCH  47  49
ATOM     49  C21 non d ame     -12.657   7.395  71.675  0.00  0.00    -0.038 C 
ATOM     50  H31 non d ame     -13.406   7.502  70.891  0.00  0.00     0.036 H 
ATOM     51  H32 non d ame     -12.852   6.747  72.530  0.00  0.00     0.036 H 
BRANCH  49  52
ATOM     52  C22 non d ame     -12.415   8.810  72.244  0.00  0.00     0.018 C 
ATOM     53  H33 non d ame     -13.088   8.905  73.096  0.00  0.00     0.048 H 
ATOM     54  H34 non d ame     -11.338   8.889  72.390  0.00  0.00     0.048 H 
BRANCH  52  55
ATOM     55  C23 non d ame     -12.799   9.954  71.265  0.00  0.00     0.259 C 
ATOM     56  O7  non d ame     -13.843   9.935  70.696  0.00  0.00    -0.265 OA
BRANCH  55  57
ATOM     57  O8  non d ame     -11.883  11.019  71.043  0.00  0.00    -0.317 OA
BRANCH  57  58
ATOM     58  C29 non d ame     -12.379  12.041  70.173  0.00  0.00     0.052 C 
ATOM     59  H47 non d ame     -11.627  12.155  69.394  0.00  0.00     0.082 H 
ATOM     60  H48 non d ame     -13.393  11.739  69.912  0.00  0.00     0.082 H 
BRANCH  58  61
ATOM     61  C35 non d ame     -12.454  13.363  70.982  0.00  0.00    -0.034 A 
ATOM     62  C30 non d ame     -13.316  13.468  72.069  0.00  0.00    -0.075 A 
ATOM     63  C31 non d ame     -13.383  14.656  72.796  0.00  0.00    -0.082 A 
ATOM     64  H49 non d ame     -13.938  12.618  72.352  0.00  0.00     0.084 H 
ATOM     65  C32 non d ame     -12.586  15.743  72.429  0.00  0.00    -0.083 A 
ATOM     66  H50 non d ame     -14.057  14.733  73.649  0.00  0.00     0.083 H 
ATOM     67  C33 non d ame     -11.730  15.636  71.341  0.00  0.00    -0.082 A 
ATOM     68  H51 non d ame     -12.632  16.675  72.992  0.00  0.00     0.083 H 
ATOM     69  C34 non d ame     -11.659  14.450  70.614  0.00  0.00    -0.075 A 
ATOM     70  H52 non d ame     -11.111  16.488  71.057  0.00  0.00     0.083 H 
ATOM     71  H53 non d ame     -10.982  14.373  69.761  0.00  0.00     0.084 H 
ENDBRANCH  58  61
ENDBRANCH  57  58
ENDBRANCH  55  57
ENDBRANCH  52  55
ENDBRANCH  49  52
ENDBRANCH  47  49
BRANCH  47  72
ATOM     72  C24 non d ame     -10.187   7.553  71.482  0.00  0.00    -0.039 C 
ATOM     73  H35 non d ame      -9.567   7.690  70.596  0.00  0.00     0.036 H 
ATOM     74  H36 non d ame     -10.556   8.423  72.027  0.00  0.00     0.036 H 
BRANCH  72  75
ATOM     75  C25 non d ame      -9.343   6.669  72.518  0.00  0.00    -0.001 C 
ATOM     76  C26 non d ame     -10.361   5.898  73.554  0.00  0.00    -0.035 C 
ATOM     77  C27 non d ame      -9.953   6.138  74.824  0.00  0.00     0.085 C 
ATOM     78  H38 non d ame     -11.350   6.352  73.515  0.00  0.00     0.036 H 
ATOM     79  H39 non d ame     -10.252   4.819  73.452  0.00  0.00     0.036 H 
ATOM     80  N5  non d ame      -8.950   7.265  74.760  0.00  0.00    -0.049 N 
ATOM     81  H40 non d ame     -10.841   6.482  75.355  0.00  0.00     0.075 H 
ATOM     82  H41 non d ame      -9.445   5.229  75.143  0.00  0.00     0.075 H 
ATOM     83  C28 non d ame      -8.533   7.401  73.207  0.00  0.00     0.193 C 
ATOM     84  H42 non d ame      -9.443   8.102  75.036  0.00  0.00     0.280 HD
ATOM     85  H43 non d ame      -8.143   6.959  75.284  0.00  0.00     0.280 HD
ATOM     86  H44 non d ame      -7.574   7.021  72.855  0.00  0.00     0.129 H 
ATOM     87  H37 non d ame      -8.588   6.061  72.020  0.00  0.00     0.046 H 
BRANCH  83  88
ATOM     88  O6  non d ame      -8.570   8.772  72.804  0.00  0.00    -0.369 OA
ATOM     89  H45 non d ame      -7.676   9.081  72.640  0.00  0.00     0.212 HD
ENDBRANCH  83  88
ENDBRANCH  72  75
ENDBRANCH  47  72
ENDBRANCH  45  47
ENDBRANCH   1  43
BRANCH   1  90
ATOM     90  C16 non d ame     -10.419   5.025  66.400  0.00  0.00    -0.035 C 
ATOM     91  H21 non d ame     -10.193   4.333  67.212  0.00  0.00     0.037 H 
ATOM     92  H22 non d ame     -11.220   4.797  65.697  0.00  0.00     0.037 H 
BRANCH  90  93
ATOM     93  C17 non d ame      -9.113   5.153  65.553  0.00  0.00    -0.059 C 
ATOM     94  H23 non d ame      -8.880   6.214  65.464  0.00  0.00     0.038 H 
BRANCH  93  95
ATOM     95  C18 non d ame      -7.895   4.454  66.239  0.00  0.00    -0.073 C 
ATOM     96  H24 non d ame      -8.254   3.781  67.017  0.00  0.00     0.028 H 
ATOM     97  H25 non d ame      -7.337   3.886  65.495  0.00  0.00     0.028 H 
ATOM     98  H26 non d ame      -7.246   5.210  66.682  0.00  0.00     0.028 H 
ENDBRANCH  93  95
BRANCH  93  99
ATOM     99  C19 non d ame      -9.324   4.613  64.136  0.00  0.00    -0.073 C 
ATOM    100  H27 non d ame      -8.359   4.357  63.698  0.00  0.00     0.028 H 
ATOM    101  H28 non d ame      -9.953   3.724  64.177  0.00  0.00     0.028 H 
ATOM    102  H29 non d ame      -9.811   5.374  63.526  0.00  0.00     0.028 H 
ENDBRANCH  93  99
ENDBRANCH  90  93
ENDBRANCH   1  90
TORSDOF 26
ENDMDL
MODEL 16
REMARK VINA RESULT:      -6.0      3.290      9.777
REMARK  26 active torsions:
REMARK  status: ('A' for Active; 'I' for Inactive)
REMARK    1  A    between atoms: C2_2  and  C3_3 
REMARK    2  A    between atoms: C4_6  and  C5_7 
REMARK       I    between atoms: C5_7  and  N2_9 
REMARK    3  A    between atoms: N2_9  and  C6_10 
REMARK    4  A    between atoms: C6_10  and  C7_11 
REMARK    5  A    between atoms: C6_10  and  C8_13 
REMARK       I    between atoms: C7_11  and  N3_14 
REMARK    6  A    between atoms: N3_14  and  C9_15 
REMARK    7  A    between atoms: C9_15  and  C10_16 
REMARK    8  A    between atoms: C9_15  and  C11_18 
REMARK       I    between atoms: C10_16  and  N4_21 
REMARK    9  A    between atoms: C11_18  and  C12_19 
REMARK   10  A    between atoms: C11_18  and  C13_20 
REMARK   11  A    between atoms: N4_21  and  C14_22 
REMARK   12  A    between atoms: C14_22  and  C15_23 
REMARK   13  A    between atoms: C14_22  and  C16_25 
REMARK       I    between atoms: C15_23  and  N6_40 
REMARK   14  A    between atoms: C16_25  and  C17_26 
REMARK   15  A    between atoms: C17_26  and  C18_27 
REMARK   16  A    between atoms: C17_26  and  C19_28 
REMARK   17  A    between atoms: C20_29  and  C21_30 
REMARK   18  A    between atoms: C20_29  and  C24_33 
REMARK   19  A    between atoms: C20_29  and  N6_40 
REMARK   20  A    between atoms: C21_30  and  C22_31 
REMARK   21  A    between atoms: C22_31  and  C23_32 
REMARK   22  A    between atoms: C23_32  and  O8_43 
REMARK   23  A    between atoms: C24_33  and  C25_34 
REMARK   24  A    between atoms: C28_38  and  O6_39 
REMARK   25  A    between atoms: C29_42  and  O8_43 
REMARK   26  A    between atoms: C29_42  and  C35_49 
ROOT
ATOM      1  C14 non d ame      -8.443   6.366  64.948  0.00  0.00     0.089 C 
ATOM      2  H20 non d ame      -8.975   6.211  64.009  0.00  0.00     0.087 H 
ENDROOT
BRANCH   1   3
ATOM      3  N4  non d ame      -7.950   7.736  64.951  0.00  0.00    -0.346 N 
ATOM      4  C10 non d ame      -8.144   8.618  63.742  0.00  0.00     0.241 C 
ATOM      5  O4  non d ame      -8.697   8.201  62.778  0.00  0.00    -0.271 OA
ATOM      6  H19 non d ame      -7.480   8.071  65.780  0.00  0.00     0.163 HD
BRANCH   4   7
ATOM      7  C9  non d ame      -7.633  10.034  63.764  0.00  0.00     0.092 C 
ATOM      8  H11 non d ame      -7.540  10.398  62.741  0.00  0.00     0.088 H 
BRANCH   7   9
ATOM      9  N3  non d ame      -8.607  10.895  64.443  0.00  0.00    -0.346 N 
ATOM     10  C7  non d ame      -9.666  11.518  63.689  0.00  0.00     0.240 C 
ATOM     11  O3  non d ame      -9.750  11.339  62.535  0.00  0.00    -0.271 OA
ATOM     12  H10 non d ame      -8.548  11.060  65.438  0.00  0.00     0.163 HD
BRANCH  10  13
ATOM     13  C6  non d ame     -10.698  12.436  64.416  0.00  0.00     0.086 C 
ATOM     14  H6  non d ame     -10.966  12.068  65.406  0.00  0.00     0.086 H 
BRANCH  13  15
ATOM     15  N2  non d ame     -10.107  13.750  64.607  0.00  0.00    -0.343 N 
ATOM     16  C5  non d ame     -10.541  14.580  65.733  0.00  0.00     0.273 C 
ATOM     17  O2  non d ame     -11.368  14.183  66.477  0.00  0.00    -0.266 OA
ATOM     18  H5  non d ame      -9.403  14.083  63.964  0.00  0.00     0.163 HD
BRANCH  16  19
ATOM     19  C4  non d ame      -9.923  15.971  65.947  0.00  0.00     0.154 A 
ATOM     20  C1  non d ame     -10.606  17.172  66.320  0.00  0.00    -0.017 A 
ATOM     21  C2  non d ame      -9.597  18.158  66.385  0.00  0.00     0.077 A 
ATOM     22  H1  non d ame     -11.670  17.307  66.516  0.00  0.00     0.091 H 
ATOM     23  O1  non d ame      -8.471  17.581  66.084  0.00  0.00    -0.218 OA
ATOM     24  N1  non d ame      -8.636  16.304  65.825  0.00  0.00    -0.123 NA
BRANCH  21  25
ATOM     25  C3  non d ame      -9.793  19.626  66.742  0.00  0.00    -0.029 C 
ATOM     26  H2  non d ame      -9.351  20.251  65.966  0.00  0.00     0.036 H 
ATOM     27  H3  non d ame     -10.858  19.842  66.821  0.00  0.00     0.036 H 
ATOM     28  H4  non d ame      -9.308  19.835  67.697  0.00  0.00     0.036 H 
ENDBRANCH  21  25
ENDBRANCH  16  19
ENDBRANCH  13  15
BRANCH  13  29
ATOM     29  C8  non d ame     -11.949  12.549  63.583  0.00  0.00    -0.049 C 
ATOM     30  H7  non d ame     -12.756  11.993  64.062  0.00  0.00     0.030 H 
ATOM     31  H8  non d ame     -12.234  13.597  63.493  0.00  0.00     0.030 H 
ATOM     32  H9  non d ame     -11.764  12.135  62.592  0.00  0.00     0.030 H 
ENDBRANCH  13  29
ENDBRANCH  10  13
ENDBRANCH   7   9
BRANCH   7  33
ATOM     33  C11 non d ame      -6.278  10.085  64.529  0.00  0.00    -0.033 C 
ATOM     34  H12 non d ame      -6.026   9.066  64.820  0.00  0.00     0.042 H 
BRANCH  33  35
ATOM     35  C12 non d ame      -5.128  10.611  63.615  0.00  0.00    -0.071 C 
ATOM     36  H13 non d ame      -4.921   9.879  62.834  0.00  0.00     0.028 H 
ATOM     37  H14 non d ame      -5.429  11.553  63.158  0.00  0.00     0.028 H 
ATOM     38  H15 non d ame      -4.232  10.766  64.214  0.00  0.00     0.028 H 
ENDBRANCH  33  35
BRANCH  33  39
ATOM     39  C13 non d ame      -6.403  10.941  65.830  0.00  0.00    -0.071 C 
ATOM     40  H16 non d ame      -5.459  10.914  66.375  0.00  0.00     0.028 H 
ATOM     41  H17 non d ame      -6.640  11.973  65.565  0.00  0.00     0.028 H 
ATOM     42  H18 non d ame      -7.197  10.537  66.458  0.00  0.00     0.028 H 
ENDBRANCH  33  39
ENDBRANCH   7  33
ENDBRANCH   4   7
ENDBRANCH   1   3
BRANCH   1  43
ATOM     43  C15 non d ame      -9.364   6.170  66.185  0.00  0.00     0.240 C 
ATOM     44  O5  non d ame     -10.098   5.237  66.234  0.00  0.00    -0.271 OA
ATOM     45  N6  non d ame      -9.324   7.141  67.316  0.00  0.00    -0.355 N 
ATOM     46  H46 non d ame      -8.701   7.935  67.288  0.00  0.00     0.162 HD
BRANCH  45  47
ATOM     47  C20 non d ame     -10.206   6.940  68.486  0.00  0.00     0.013 C 
ATOM     48  H30 non d ame     -11.068   6.357  68.161  0.00  0.00     0.072 H 
BRANCH  47  49
ATOM     49  C21 non d ame     -10.659   8.284  69.008  0.00  0.00    -0.038 C 
ATOM     50  H31 non d ame     -11.712   8.163  69.259  0.00  0.00     0.036 H 
ATOM     51  H32 non d ame      -9.942   8.557  69.783  0.00  0.00     0.036 H 
BRANCH  49  52
ATOM     52  C22 non d ame     -10.590   9.396  67.939  0.00  0.00     0.018 C 
ATOM     53  H33 non d ame      -9.533   9.645  67.838  0.00  0.00     0.048 H 
ATOM     54  H34 non d ame     -11.144   9.016  67.081  0.00  0.00     0.048 H 
BRANCH  52  55
ATOM     55  C23 non d ame     -11.301  10.714  68.358  0.00  0.00     0.259 C 
ATOM     56  O7  non d ame     -11.986  11.301  67.585  0.00  0.00    -0.265 OA
BRANCH  55  57
ATOM     57  O8  non d ame     -11.112  11.219  69.674  0.00  0.00    -0.317 OA
BRANCH  57  58
ATOM     58  C29 non d ame     -12.306  11.247  70.463  0.00  0.00     0.052 C 
ATOM     59  H47 non d ame     -13.098  10.882  69.811  0.00  0.00     0.082 H 
ATOM     60  H48 non d ame     -12.065  10.711  71.380  0.00  0.00     0.082 H 
BRANCH  58  61
ATOM     61  C35 non d ame     -12.606  12.726  70.823  0.00  0.00    -0.034 A 
ATOM     62  C30 non d ame     -12.016  13.755  70.096  0.00  0.00    -0.075 A 
ATOM     63  C31 non d ame     -12.287  15.084  70.420  0.00  0.00    -0.082 A 
ATOM     64  H49 non d ame     -11.343  13.520  69.271  0.00  0.00     0.084 H 
ATOM     65  C32 non d ame     -13.148  15.382  71.479  0.00  0.00    -0.083 A 
ATOM     66  H50 non d ame     -11.825  15.887  69.846  0.00  0.00     0.083 H 
ATOM     67  C33 non d ame     -13.732  14.352  72.205  0.00  0.00    -0.082 A 
ATOM     68  H51 non d ame     -13.365  16.418  71.739  0.00  0.00     0.083 H 
ATOM     69  C34 non d ame     -13.466  13.023  71.882  0.00  0.00    -0.075 A 
ATOM     70  H52 non d ame     -14.402  14.589  73.032  0.00  0.00     0.083 H 
ATOM     71  H53 non d ame     -13.930  12.219  72.457  0.00  0.00     0.084 H 
ENDBRANCH  58  61
ENDBRANCH  57  58
ENDBRANCH  55  57
ENDBRANCH  52  55
ENDBRANCH  49  52
ENDBRANCH  47  49
BRANCH  47  72
ATOM     72  C24 non d ame      -9.446   6.196  69.583  0.00  0.00    -0.039 C 
ATOM     73  H35 non d ame      -8.672   5.629  69.065  0.00  0.00     0.036 H 
ATOM     74  H36 non d ame      -9.167   6.959  70.310  0.00  0.00     0.036 H 
BRANCH  72  75
ATOM     75  C25 non d ame     -10.381   5.139  70.341  0.00  0.00    -0.001 C 
ATOM     76  C26 non d ame     -10.970   5.804  71.724  0.00  0.00    -0.035 C 
ATOM     77  C27 non d ame     -10.726   4.957  72.753  0.00  0.00     0.085 C 
ATOM     78  H38 non d ame     -10.397   6.694  71.985  0.00  0.00     0.036 H 
ATOM     79  H39 non d ame     -12.058   5.849  71.684  0.00  0.00     0.036 H 
ATOM     80  N5  non d ame      -9.738   3.930  72.254  0.00  0.00    -0.049 N 
ATOM     81  H40 non d ame     -10.249   5.564  73.523  0.00  0.00     0.075 H 
ATOM     82  H41 non d ame     -11.676   4.466  72.957  0.00  0.00     0.075 H 
ATOM     83  C28 non d ame      -9.726   4.069  70.646  0.00  0.00     0.193 C 
ATOM     84  H42 non d ame      -8.834   4.208  72.608  0.00  0.00     0.280 HD
ATOM     85  H43 non d ame     -10.118   3.026  72.495  0.00  0.00     0.280 HD
ATOM     86  H44 non d ame     -10.239   3.338  70.022  0.00  0.00     0.129 H 
ATOM     87  H37 non d ame     -11.102   4.671  69.670  0.00  0.00     0.046 H 
BRANCH  83  88
ATOM     88  O6  non d ame      -8.382   4.105  70.163  0.00  0.00    -0.369 OA
ATOM     89  H45 non d ame      -7.829   3.547  70.716  0.00  0.00     0.212 HD
ENDBRANCH  83  88
ENDBRANCH  72  75
ENDBRANCH  47  72
ENDBRANCH  45  47
ENDBRANCH   1  43
BRANCH   1  90
ATOM     90  C16 non d ame      -7.261   5.414  65.034  0.00  0.00    -0.035 C 
ATOM     91  H21 non d ame      -7.697   4.426  65.187  0.00  0.00     0.037 H 
ATOM     92  H22 non d ame      -6.664   5.614  64.144  0.00  0.00     0.037 H 
BRANCH  90  93
ATOM     93  C17 non d ame      -6.329   5.680  66.259  0.00  0.00    -0.059 C 
ATOM     94  H23 non d ame      -6.735   6.532  66.804  0.00  0.00     0.038 H 
BRANCH  93  95
ATOM     95  C18 non d ame      -6.284   4.465  67.240  0.00  0.00    -0.073 C 
ATOM     96  H24 non d ame      -5.259   4.103  67.322  0.00  0.00     0.028 H 
ATOM     97  H25 non d ame      -6.639   4.777  68.222  0.00  0.00     0.028 H 
ATOM     98  H26 non d ame      -6.922   3.667  66.859  0.00  0.00     0.028 H 
ENDBRANCH  93  95
BRANCH  93  99
ATOM     99  C19 non d ame      -4.919   6.064  65.802  0.00  0.00    -0.073 C 
ATOM    100  H27 non d ame      -4.268   6.155  66.672  0.00  0.00     0.028 H 
ATOM    101  H28 non d ame      -4.532   5.292  65.136  0.00  0.00     0.028 H 
ATOM    102  H29 non d ame      -4.955   7.015  65.272  0.00  0.00     0.028 H 
ENDBRANCH  93  99
ENDBRANCH  90  93
ENDBRANCH   1  90
TORSDOF 26
ENDMDL
MODEL 17
REMARK VINA RESULT:      -5.9      3.486      6.939
REMARK  26 active torsions:
REMARK  status: ('A' for Active; 'I' for Inactive)
REMARK    1  A    between atoms: C2_2  and  C3_3 
REMARK    2  A    between atoms: C4_6  and  C5_7 
REMARK       I    between atoms: C5_7  and  N2_9 
REMARK    3  A    between atoms: N2_9  and  C6_10 
REMARK    4  A    between atoms: C6_10  and  C7_11 
REMARK    5  A    between atoms: C6_10  and  C8_13 
REMARK       I    between atoms: C7_11  and  N3_14 
REMARK    6  A    between atoms: N3_14  and  C9_15 
REMARK    7  A    between atoms: C9_15  and  C10_16 
REMARK    8  A    between atoms: C9_15  and  C11_18 
REMARK       I    between atoms: C10_16  and  N4_21 
REMARK    9  A    between atoms: C11_18  and  C12_19 
REMARK   10  A    between atoms: C11_18  and  C13_20 
REMARK   11  A    between atoms: N4_21  and  C14_22 
REMARK   12  A    between atoms: C14_22  and  C15_23 
REMARK   13  A    between atoms: C14_22  and  C16_25 
REMARK       I    between atoms: C15_23  and  N6_40 
REMARK   14  A    between atoms: C16_25  and  C17_26 
REMARK   15  A    between atoms: C17_26  and  C18_27 
REMARK   16  A    between atoms: C17_26  and  C19_28 
REMARK   17  A    between atoms: C20_29  and  C21_30 
REMARK   18  A    between atoms: C20_29  and  C24_33 
REMARK   19  A    between atoms: C20_29  and  N6_40 
REMARK   20  A    between atoms: C21_30  and  C22_31 
REMARK   21  A    between atoms: C22_31  and  C23_32 
REMARK   22  A    between atoms: C23_32  and  O8_43 
REMARK   23  A    between atoms: C24_33  and  C25_34 
REMARK   24  A    between atoms: C28_38  and  O6_39 
REMARK   25  A    between atoms: C29_42  and  O8_43 
REMARK   26  A    between atoms: C29_42  and  C35_49 
ROOT
ATOM      1  C14 non d ame      -8.310   9.195  67.210  0.00  0.00     0.089 C 
ATOM      2  H20 non d ame      -8.257  10.134  67.762  0.00  0.00     0.087 H 
ENDROOT
BRANCH   1   3
ATOM      3  N4  non d ame      -8.901   8.201  68.092  0.00  0.00    -0.346 N 
ATOM      4  C10 non d ame      -8.894   8.407  69.587  0.00  0.00     0.241 C 
ATOM      5  O4  non d ame      -8.403   9.382  70.055  0.00  0.00    -0.271 OA
ATOM      6  H19 non d ame      -9.311   7.377  67.675  0.00  0.00     0.163 HD
BRANCH   4   7
ATOM      7  C9  non d ame      -9.514   7.370  70.485  0.00  0.00     0.092 C 
ATOM      8  H11 non d ame      -9.029   7.404  71.461  0.00  0.00     0.088 H 
BRANCH   7   9
ATOM      9  N3  non d ame     -10.930   7.689  70.695  0.00  0.00    -0.346 N 
ATOM     10  C7  non d ame     -11.397   8.068  72.005  0.00  0.00     0.240 C 
ATOM     11  O3  non d ame     -10.648   8.122  72.903  0.00  0.00    -0.271 OA
ATOM     12  H10 non d ame     -11.589   7.646  69.930  0.00  0.00     0.163 HD
BRANCH  10  13
ATOM     13  C6  non d ame     -12.905   8.403  72.223  0.00  0.00     0.086 C 
ATOM     14  H6  non d ame     -13.295   8.005  73.160  0.00  0.00     0.086 H 
BRANCH  13  15
ATOM     15  N2  non d ame     -13.063   9.847  72.286  0.00  0.00    -0.343 N 
ATOM     16  C5  non d ame     -12.631  10.670  71.155  0.00  0.00     0.273 C 
ATOM     17  O2  non d ame     -12.156  10.162  70.200  0.00  0.00    -0.266 OA
ATOM     18  H5  non d ame     -13.468  10.273  73.108  0.00  0.00     0.163 HD
BRANCH  16  19
ATOM     19  C4  non d ame     -12.793  12.197  71.208  0.00  0.00     0.154 A 
ATOM     20  C1  non d ame     -13.481  12.960  72.205  0.00  0.00    -0.017 A 
ATOM     21  C2  non d ame     -13.338  14.304  71.797  0.00  0.00     0.077 A 
ATOM     22  H1  non d ame     -14.004  12.594  73.089  0.00  0.00     0.091 H 
ATOM     23  O1  non d ame     -12.645  14.304  70.696  0.00  0.00    -0.218 OA
ATOM     24  N1  non d ame     -12.316  13.086  70.332  0.00  0.00    -0.123 NA
BRANCH  21  25
ATOM     25  C3  non d ame     -13.890  15.528  72.516  0.00  0.00    -0.029 C 
ATOM     26  H2  non d ame     -13.593  15.500  73.564  0.00  0.00     0.036 H 
ATOM     27  H3  non d ame     -13.497  16.431  72.051  0.00  0.00     0.036 H 
ATOM     28  H4  non d ame     -14.979  15.529  72.448  0.00  0.00     0.036 H 
ENDBRANCH  21  25
ENDBRANCH  16  19
ENDBRANCH  13  15
BRANCH  13  29
ATOM     29  C8  non d ame     -13.717   7.845  71.082  0.00  0.00    -0.049 C 
ATOM     30  H7  non d ame     -13.909   8.633  70.353  0.00  0.00     0.030 H 
ATOM     31  H8  non d ame     -13.166   7.035  70.604  0.00  0.00     0.030 H 
ATOM     32  H9  non d ame     -14.665   7.464  71.462  0.00  0.00     0.030 H 
ENDBRANCH  13  29
ENDBRANCH  10  13
ENDBRANCH   7   9
BRANCH   7  33
ATOM     33  C11 non d ame      -9.393   5.968  69.819  0.00  0.00    -0.033 C 
ATOM     34  H12 non d ame      -9.629   6.085  68.763  0.00  0.00     0.042 H 
BRANCH  33  35
ATOM     35  C12 non d ame      -7.937   5.416  69.918  0.00  0.00    -0.071 C 
ATOM     36  H13 non d ame      -7.232   6.194  69.626  0.00  0.00     0.028 H 
ATOM     37  H14 non d ame      -7.734   5.107  70.943  0.00  0.00     0.028 H 
ATOM     38  H15 non d ame      -7.829   4.561  69.252  0.00  0.00     0.028 H 
ENDBRANCH  33  35
BRANCH  33  39
ATOM     39  C13 non d ame     -10.421   4.966  70.436  0.00  0.00    -0.071 C 
ATOM     40  H16 non d ame     -11.253   5.520  70.870  0.00  0.00     0.028 H 
ATOM     41  H17 non d ame     -10.794   4.301  69.656  0.00  0.00     0.028 H 
ATOM     42  H18 non d ame      -9.933   4.376  71.212  0.00  0.00     0.028 H 
ENDBRANCH  33  39
ENDBRANCH   7  33
ENDBRANCH   4   7
ENDBRANCH   1   3
BRANCH   1  43
ATOM     43  C15 non d ame      -9.195   9.313  65.936  0.00  0.00     0.240 C 
ATOM     44  O5  non d ame     -10.000   8.474  65.695  0.00  0.00    -0.271 OA
ATOM     45  N6  non d ame      -9.044  10.480  65.019  0.00  0.00    -0.355 N 
ATOM     46  H46 non d ame      -8.366  11.202  65.216  0.00  0.00     0.162 HD
BRANCH  45  47
ATOM     47  C20 non d ame      -9.893  10.578  63.813  0.00  0.00     0.013 C 
ATOM     48  H30 non d ame     -10.167   9.567  63.511  0.00  0.00     0.072 H 
BRANCH  47  49
ATOM     49  C21 non d ame      -9.114  11.253  62.707  0.00  0.00    -0.038 C 
ATOM     50  H31 non d ame      -9.603  10.957  61.779  0.00  0.00     0.036 H 
ATOM     51  H32 non d ame      -9.062  12.307  62.983  0.00  0.00     0.036 H 
BRANCH  49  52
ATOM     52  C22 non d ame      -7.656  10.754  62.610  0.00  0.00     0.018 C 
ATOM     53  H33 non d ame      -7.173  11.394  61.871  0.00  0.00     0.048 H 
ATOM     54  H34 non d ame      -7.284  10.728  63.634  0.00  0.00     0.048 H 
BRANCH  52  55
ATOM     55  C23 non d ame      -7.525   9.303  62.070  0.00  0.00     0.259 C 
ATOM     56  O7  non d ame      -7.859   9.041  60.960  0.00  0.00    -0.265 OA
BRANCH  55  57
ATOM     57  O8  non d ame      -7.014   8.286  62.922  0.00  0.00    -0.317 OA
BRANCH  57  58
ATOM     58  C29 non d ame      -7.862   7.138  63.031  0.00  0.00     0.052 C 
ATOM     59  H47 non d ame      -8.834   7.518  63.340  0.00  0.00     0.082 H 
ATOM     60  H48 non d ame      -7.760   6.606  62.085  0.00  0.00     0.082 H 
BRANCH  58  61
ATOM     61  C35 non d ame      -7.303   6.236  64.164  0.00  0.00    -0.034 A 
ATOM     62  C30 non d ame      -8.166   5.678  65.101  0.00  0.00    -0.075 A 
ATOM     63  C31 non d ame      -7.663   4.868  66.118  0.00  0.00    -0.082 A 
ATOM     64  H49 non d ame      -9.237   5.874  65.038  0.00  0.00     0.084 H 
ATOM     65  C32 non d ame      -6.291   4.620  66.198  0.00  0.00    -0.083 A 
ATOM     66  H50 non d ame      -8.343   4.429  66.849  0.00  0.00     0.083 H 
ATOM     67  C33 non d ame      -5.432   5.182  65.263  0.00  0.00    -0.082 A 
ATOM     68  H51 non d ame      -5.890   3.987  66.990  0.00  0.00     0.083 H 
ATOM     69  C34 non d ame      -5.931   5.990  64.243  0.00  0.00    -0.075 A 
ATOM     70  H52 non d ame      -4.361   4.987  65.330  0.00  0.00     0.083 H 
ATOM     71  H53 non d ame      -5.250   6.427  63.512  0.00  0.00     0.084 H 
ENDBRANCH  58  61
ENDBRANCH  57  58
ENDBRANCH  55  57
ENDBRANCH  52  55
ENDBRANCH  49  52
ENDBRANCH  47  49
BRANCH  47  72
ATOM     72  C24 non d ame     -11.144  11.395  64.128  0.00  0.00    -0.039 C 
ATOM     73  H35 non d ame     -11.526  11.725  63.161  0.00  0.00     0.036 H 
ATOM     74  H36 non d ame     -11.756  10.756  64.765  0.00  0.00     0.036 H 
BRANCH  72  75
ATOM     75  C25 non d ame     -10.797  12.711  64.973  0.00  0.00    -0.001 C 
ATOM     76  C26 non d ame     -11.387  12.566  66.501  0.00  0.00    -0.035 C 
ATOM     77  C27 non d ame     -12.116  13.670  66.794  0.00  0.00     0.085 C 
ATOM     78  H38 non d ame     -12.118  11.760  66.545  0.00  0.00     0.036 H 
ATOM     79  H39 non d ame     -10.571  12.602  67.222  0.00  0.00     0.036 H 
ATOM     80  N5  non d ame     -12.349  14.403  65.493  0.00  0.00    -0.049 N 
ATOM     81  H40 non d ame     -13.071  13.299  67.168  0.00  0.00     0.075 H 
ATOM     82  H41 non d ame     -11.479  14.278  67.434  0.00  0.00     0.075 H 
ATOM     83  C28 non d ame     -11.312  13.765  64.433  0.00  0.00     0.193 C 
ATOM     84  H42 non d ame     -13.288  14.176  65.202  0.00  0.00     0.280 HD
ATOM     85  H43 non d ame     -12.089  15.365  65.657  0.00  0.00     0.280 HD
ATOM     86  H44 non d ame     -10.409  14.303  64.147  0.00  0.00     0.129 H 
ATOM     87  H37 non d ame      -9.752  13.003  64.871  0.00  0.00     0.046 H 
BRANCH  83  88
ATOM     88  O6  non d ame     -11.982  13.467  63.206  0.00  0.00    -0.369 OA
ATOM     89  H45 non d ame     -12.925  13.385  63.369  0.00  0.00     0.212 HD
ENDBRANCH  83  88
ENDBRANCH  72  75
ENDBRANCH  47  72
ENDBRANCH  45  47
ENDBRANCH   1  43
BRANCH   1  90
ATOM     90  C16 non d ame      -6.912   8.746  66.821  0.00  0.00    -0.035 C 
ATOM     91  H21 non d ame      -6.375   8.626  67.764  0.00  0.00     0.037 H 
ATOM     92  H22 non d ame      -7.056   7.888  66.164  0.00  0.00     0.037 H 
BRANCH  90  93
ATOM     93  C17 non d ame      -6.118   9.807  65.994  0.00  0.00    -0.059 C 
ATOM     94  H23 non d ame      -6.701  10.033  65.102  0.00  0.00     0.038 H 
BRANCH  93  95
ATOM     95  C18 non d ame      -5.919  11.140  66.783  0.00  0.00    -0.073 C 
ATOM     96  H24 non d ame      -4.914  11.522  66.602  0.00  0.00     0.028 H 
ATOM     97  H25 non d ame      -6.652  11.874  66.447  0.00  0.00     0.028 H 
ATOM     98  H26 non d ame      -6.052  10.955  67.849  0.00  0.00     0.028 H 
ENDBRANCH  93  95
BRANCH  93  99
ATOM     99  C19 non d ame      -4.773   9.244  65.527  0.00  0.00    -0.073 C 
ATOM    100  H27 non d ame      -4.134   9.067  66.393  0.00  0.00     0.028 H 
ATOM    101  H28 non d ame      -4.938   8.305  64.998  0.00  0.00     0.028 H 
ATOM    102  H29 non d ame      -4.292   9.957  64.859  0.00  0.00     0.028 H 
ENDBRANCH  93  99
ENDBRANCH  90  93
ENDBRANCH   1  90
TORSDOF 26
ENDMDL
MODEL 18
REMARK VINA RESULT:      -5.9      2.680      6.859
REMARK  26 active torsions:
REMARK  status: ('A' for Active; 'I' for Inactive)
REMARK    1  A    between atoms: C2_2  and  C3_3 
REMARK    2  A    between atoms: C4_6  and  C5_7 
REMARK       I    between atoms: C5_7  and  N2_9 
REMARK    3  A    between atoms: N2_9  and  C6_10 
REMARK    4  A    between atoms: C6_10  and  C7_11 
REMARK    5  A    between atoms: C6_10  and  C8_13 
REMARK       I    between atoms: C7_11  and  N3_14 
REMARK    6  A    between atoms: N3_14  and  C9_15 
REMARK    7  A    between atoms: C9_15  and  C10_16 
REMARK    8  A    between atoms: C9_15  and  C11_18 
REMARK       I    between atoms: C10_16  and  N4_21 
REMARK    9  A    between atoms: C11_18  and  C12_19 
REMARK   10  A    between atoms: C11_18  and  C13_20 
REMARK   11  A    between atoms: N4_21  and  C14_22 
REMARK   12  A    between atoms: C14_22  and  C15_23 
REMARK   13  A    between atoms: C14_22  and  C16_25 
REMARK       I    between atoms: C15_23  and  N6_40 
REMARK   14  A    between atoms: C16_25  and  C17_26 
REMARK   15  A    between atoms: C17_26  and  C18_27 
REMARK   16  A    between atoms: C17_26  and  C19_28 
REMARK   17  A    between atoms: C20_29  and  C21_30 
REMARK   18  A    between atoms: C20_29  and  C24_33 
REMARK   19  A    between atoms: C20_29  and  N6_40 
REMARK   20  A    between atoms: C21_30  and  C22_31 
REMARK   21  A    between atoms: C22_31  and  C23_32 
REMARK   22  A    between atoms: C23_32  and  O8_43 
REMARK   23  A    between atoms: C24_33  and  C25_34 
REMARK   24  A    between atoms: C28_38  and  O6_39 
REMARK   25  A    between atoms: C29_42  and  O8_43 
REMARK   26  A    between atoms: C29_42  and  C35_49 
ROOT
ATOM      1  C14 non d ame     -10.963   9.294  69.355  0.00  0.00     0.089 C 
ATOM      2  H20 non d ame     -11.667   8.518  69.051  0.00  0.00     0.087 H 
ENDROOT
BRANCH   1   3
ATOM      3  N4  non d ame      -9.620   8.764  69.169  0.00  0.00    -0.346 N 
ATOM      4  C10 non d ame      -9.388   7.273  69.127  0.00  0.00     0.241 C 
ATOM      5  O4  non d ame     -10.299   6.521  69.249  0.00  0.00    -0.271 OA
ATOM      6  H19 non d ame      -8.859   9.420  69.070  0.00  0.00     0.163 HD
BRANCH   4   7
ATOM      7  C9  non d ame      -7.994   6.742  68.929  0.00  0.00     0.092 C 
ATOM      8  H11 non d ame      -8.037   5.661  68.794  0.00  0.00     0.088 H 
BRANCH   7   9
ATOM      9  N3  non d ame      -7.425   7.308  67.701  0.00  0.00    -0.346 N 
ATOM     10  C7  non d ame      -7.055   6.440  66.611  0.00  0.00     0.240 C 
ATOM     11  O3  non d ame      -7.207   5.283  66.703  0.00  0.00    -0.271 OA
ATOM     12  H10 non d ame      -7.287   8.305  67.607  0.00  0.00     0.163 HD
BRANCH  10  13
ATOM     13  C6  non d ame      -6.447   7.049  65.309  0.00  0.00     0.086 C 
ATOM     14  H6  non d ame      -6.568   6.398  64.443  0.00  0.00     0.086 H 
BRANCH  13  15
ATOM     15  N2  non d ame      -7.143   8.287  64.998  0.00  0.00    -0.343 N 
ATOM     16  C5  non d ame      -8.063   8.332  63.859  0.00  0.00     0.273 C 
ATOM     17  O2  non d ame      -8.233   7.368  63.197  0.00  0.00    -0.266 OA
ATOM     18  H5  non d ame      -6.989   9.107  65.568  0.00  0.00     0.163 HD
BRANCH  16  19
ATOM     19  C4  non d ame      -8.805   9.634  63.520  0.00  0.00     0.154 A 
ATOM     20  C1  non d ame      -9.746  10.332  64.342  0.00  0.00    -0.017 A 
ATOM     21  C2  non d ame     -10.131  11.456  63.579  0.00  0.00     0.077 A 
ATOM     22  H1  non d ame     -10.094  10.065  65.340  0.00  0.00     0.091 H 
ATOM     23  O1  non d ame      -9.482  11.402  62.453  0.00  0.00    -0.218 OA
ATOM     24  N1  non d ame      -8.701  10.347  62.395  0.00  0.00    -0.123 NA
BRANCH  21  25
ATOM     25  C3  non d ame     -11.123  12.533  63.998  0.00  0.00    -0.029 C 
ATOM     26  H2  non d ame     -10.656  13.514  63.906  0.00  0.00     0.036 H 
ATOM     27  H3  non d ame     -12.002  12.488  63.356  0.00  0.00     0.036 H 
ATOM     28  H4  non d ame     -11.422  12.369  65.034  0.00  0.00     0.036 H 
ENDBRANCH  21  25
ENDBRANCH  16  19
ENDBRANCH  13  15
BRANCH  13  29
ATOM     29  C8  non d ame      -4.979   7.320  65.515  0.00  0.00    -0.049 C 
ATOM     30  H7  non d ame      -4.640   8.057  64.786  0.00  0.00     0.030 H 
ATOM     31  H8  non d ame      -4.817   7.702  66.522  0.00  0.00     0.030 H 
ATOM     32  H9  non d ame      -4.417   6.395  65.382  0.00  0.00     0.030 H 
ENDBRANCH  13  29
ENDBRANCH  10  13
ENDBRANCH   7   9
BRANCH   7  33
ATOM     33  C11 non d ame      -7.107   7.146  70.143  0.00  0.00    -0.033 C 
ATOM     34  H12 non d ame      -7.053   8.233  70.163  0.00  0.00     0.042 H 
BRANCH  33  35
ATOM     35  C12 non d ame      -7.743   6.682  71.490  0.00  0.00    -0.071 C 
ATOM     36  H13 non d ame      -7.795   5.594  71.512  0.00  0.00     0.028 H 
ATOM     37  H14 non d ame      -7.132   7.034  72.321  0.00  0.00     0.028 H 
ATOM     38  H15 non d ame      -8.748   7.095  71.577  0.00  0.00     0.028 H 
ENDBRANCH  33  35
BRANCH  33  39
ATOM     39  C13 non d ame      -5.655   6.592  69.983  0.00  0.00    -0.071 C 
ATOM     40  H16 non d ame      -5.656   5.768  69.270  0.00  0.00     0.028 H 
ATOM     41  H17 non d ame      -5.001   7.386  69.620  0.00  0.00     0.028 H 
ATOM     42  H18 non d ame      -5.293   6.237  70.948  0.00  0.00     0.028 H 
ENDBRANCH  33  39
ENDBRANCH   7  33
ENDBRANCH   4   7
ENDBRANCH   1   3
BRANCH   1  43
ATOM     43  C15 non d ame     -11.107  10.586  68.502  0.00  0.00     0.240 C 
ATOM     44  O5  non d ame     -11.607  10.532  67.426  0.00  0.00    -0.271 OA
ATOM     45  N6  non d ame     -10.629  11.895  69.032  0.00  0.00    -0.355 N 
ATOM     46  H46 non d ame     -10.206  11.954  69.947  0.00  0.00     0.162 HD
BRANCH  45  47
ATOM     47  C20 non d ame     -10.773  13.115  68.209  0.00  0.00     0.013 C 
ATOM     48  H30 non d ame     -10.908  12.807  67.172  0.00  0.00     0.072 H 
BRANCH  47  49
ATOM     49  C21 non d ame      -9.524  13.957  68.339  0.00  0.00    -0.038 C 
ATOM     50  H31 non d ame      -9.840  14.879  68.827  0.00  0.00     0.036 H 
ATOM     51  H32 non d ame      -8.783  13.314  68.814  0.00  0.00     0.036 H 
BRANCH  49  52
ATOM     52  C22 non d ame      -8.934  14.367  66.972  0.00  0.00     0.018 C 
ATOM     53  H33 non d ame      -7.859  14.459  67.129  0.00  0.00     0.048 H 
ATOM     54  H34 non d ame      -9.319  13.643  66.254  0.00  0.00     0.048 H 
BRANCH  52  55
ATOM     55  C23 non d ame      -9.414  15.760  66.475  0.00  0.00     0.259 C 
ATOM     56  O7  non d ame     -10.482  15.885  65.970  0.00  0.00    -0.265 OA
BRANCH  55  57
ATOM     57  O8  non d ame      -8.554  16.884  66.617  0.00  0.00    -0.317 OA
BRANCH  57  58
ATOM     58  C29 non d ame      -9.028  17.865  67.544  0.00  0.00     0.052 C 
ATOM     59  H47 non d ame      -9.935  18.275  67.102  0.00  0.00     0.082 H 
ATOM     60  H48 non d ame      -9.072  17.361  68.509  0.00  0.00     0.082 H 
BRANCH  58  61
ATOM     61  C35 non d ame      -7.967  18.995  67.629  0.00  0.00    -0.034 A 
ATOM     62  C30 non d ame      -7.309  19.246  68.829  0.00  0.00    -0.075 A 
ATOM     63  C31 non d ame      -6.357  20.261  68.904  0.00  0.00    -0.082 A 
ATOM     64  H49 non d ame      -7.539  18.646  69.710  0.00  0.00     0.084 H 
ATOM     65  C32 non d ame      -6.066  21.030  67.774  0.00  0.00    -0.083 A 
ATOM     66  H50 non d ame      -5.841  20.452  69.845  0.00  0.00     0.083 H 
ATOM     67  C33 non d ame      -6.727  20.779  66.580  0.00  0.00    -0.082 A 
ATOM     68  H51 non d ame      -5.322  21.825  67.825  0.00  0.00     0.083 H 
ATOM     69  C34 non d ame      -7.678  19.763  66.500  0.00  0.00    -0.075 A 
ATOM     70  H52 non d ame      -6.499  21.382  65.701  0.00  0.00     0.083 H 
ATOM     71  H53 non d ame      -8.193  19.572  65.557  0.00  0.00     0.084 H 
ENDBRANCH  58  61
ENDBRANCH  57  58
ENDBRANCH  55  57
ENDBRANCH  52  55
ENDBRANCH  49  52
ENDBRANCH  47  49
BRANCH  47  72
ATOM     72  C24 non d ame     -11.982  13.918  68.685  0.00  0.00    -0.039 C 
ATOM     73  H35 non d ame     -11.951  14.850  68.120  0.00  0.00     0.036 H 
ATOM     74  H36 non d ame     -12.835  13.248  68.583  0.00  0.00     0.036 H 
BRANCH  72  75
ATOM     75  C25 non d ame     -11.866  14.302  70.236  0.00  0.00    -0.001 C 
ATOM     76  C26 non d ame     -12.936  13.414  71.114  0.00  0.00    -0.035 C 
ATOM     77  C27 non d ame     -13.661  14.251  71.894  0.00  0.00     0.085 C 
ATOM     78  H38 non d ame     -13.681  12.969  70.456  0.00  0.00     0.036 H 
ATOM     79  H39 non d ame     -12.404  12.792  71.834  0.00  0.00     0.036 H 
ATOM     80  N5  non d ame     -13.411  15.652  71.389  0.00  0.00    -0.049 N 
ATOM     81  H40 non d ame     -14.704  13.988  71.712  0.00  0.00     0.075 H 
ATOM     82  H41 non d ame     -13.241  14.154  72.894  0.00  0.00     0.075 H 
ATOM     83  C28 non d ame     -12.117  15.554  70.429  0.00  0.00     0.193 C 
ATOM     84  H42 non d ame     -14.211  15.900  70.827  0.00  0.00     0.280 HD
ATOM     85  H43 non d ame     -13.170  16.208  72.197  0.00  0.00     0.280 HD
ATOM     86  H44 non d ame     -11.143  15.901  70.774  0.00  0.00     0.129 H 
ATOM     87  H37 non d ame     -10.832  14.316  70.581  0.00  0.00     0.046 H 
BRANCH  83  88
ATOM     88  O6  non d ame     -12.357  16.250  69.205  0.00  0.00    -0.369 OA
ATOM     89  H45 non d ame     -11.654  16.052  68.581  0.00  0.00     0.212 HD
ENDBRANCH  83  88
ENDBRANCH  72  75
ENDBRANCH  47  72
ENDBRANCH  45  47
ENDBRANCH   1  43
BRANCH   1  90
ATOM     90  C16 non d ame     -11.166   9.625  70.824  0.00  0.00    -0.035 C 
ATOM     91  H21 non d ame     -10.171   9.580  71.271  0.00  0.00     0.037 H 
ATOM     92  H22 non d ame     -11.724  10.561  70.835  0.00  0.00     0.037 H 
BRANCH  90  93
ATOM     93  C17 non d ame     -12.040   8.581  71.588  0.00  0.00    -0.059 C 
ATOM     94  H23 non d ame     -12.394   7.851  70.861  0.00  0.00     0.038 H 
BRANCH  93  95
ATOM     95  C18 non d ame     -11.223   7.810  72.675  0.00  0.00    -0.073 C 
ATOM     96  H24 non d ame     -10.873   8.513  73.432  0.00  0.00     0.028 H 
ATOM     97  H25 non d ame     -11.859   7.060  73.143  0.00  0.00     0.028 H 
ATOM     98  H26 non d ame     -10.367   7.322  72.208  0.00  0.00     0.028 H 
ENDBRANCH  93  95
BRANCH  93  99
ATOM     99  C19 non d ame     -13.274   9.245  72.204  0.00  0.00    -0.073 C 
ATOM    100  H27 non d ame     -13.590   8.681  73.082  0.00  0.00     0.028 H 
ATOM    101  H28 non d ame     -13.028  10.266  72.497  0.00  0.00     0.028 H 
ATOM    102  H29 non d ame     -14.081   9.262  71.472  0.00  0.00     0.028 H 
ENDBRANCH  93  99
ENDBRANCH  90  93
ENDBRANCH   1  90
TORSDOF 26
ENDMDL
MODEL 19
REMARK VINA RESULT:      -5.9      3.244      8.203
REMARK  26 active torsions:
REMARK  status: ('A' for Active; 'I' for Inactive)
REMARK    1  A    between atoms: C2_2  and  C3_3 
REMARK    2  A    between atoms: C4_6  and  C5_7 
REMARK       I    between atoms: C5_7  and  N2_9 
REMARK    3  A    between atoms: N2_9  and  C6_10 
REMARK    4  A    between atoms: C6_10  and  C7_11 
REMARK    5  A    between atoms: C6_10  and  C8_13 
REMARK       I    between atoms: C7_11  and  N3_14 
REMARK    6  A    between atoms: N3_14  and  C9_15 
REMARK    7  A    between atoms: C9_15  and  C10_16 
REMARK    8  A    between atoms: C9_15  and  C11_18 
REMARK       I    between atoms: C10_16  and  N4_21 
REMARK    9  A    between atoms: C11_18  and  C12_19 
REMARK   10  A    between atoms: C11_18  and  C13_20 
REMARK   11  A    between atoms: N4_21  and  C14_22 
REMARK   12  A    between atoms: C14_22  and  C15_23 
REMARK   13  A    between atoms: C14_22  and  C16_25 
REMARK       I    between atoms: C15_23  and  N6_40 
REMARK   14  A    between atoms: C16_25  and  C17_26 
REMARK   15  A    between atoms: C17_26  and  C18_27 
REMARK   16  A    between atoms: C17_26  and  C19_28 
REMARK   17  A    between atoms: C20_29  and  C21_30 
REMARK   18  A    between atoms: C20_29  and  C24_33 
REMARK   19  A    between atoms: C20_29  and  N6_40 
REMARK   20  A    between atoms: C21_30  and  C22_31 
REMARK   21  A    between atoms: C22_31  and  C23_32 
REMARK   22  A    between atoms: C23_32  and  O8_43 
REMARK   23  A    between atoms: C24_33  and  C25_34 
REMARK   24  A    between atoms: C28_38  and  O6_39 
REMARK   25  A    between atoms: C29_42  and  O8_43 
REMARK   26  A    between atoms: C29_42  and  C35_49 
ROOT
ATOM      1  C14 non d ame     -10.417   8.671  69.736  0.00  0.00     0.089 C 
ATOM      2  H20 non d ame      -9.664   8.730  70.523  0.00  0.00     0.087 H 
ENDROOT
BRANCH   1   3
ATOM      3  N4  non d ame     -10.062   9.649  68.718  0.00  0.00    -0.346 N 
ATOM      4  C10 non d ame      -8.737  10.367  68.780  0.00  0.00     0.241 C 
ATOM      5  O4  non d ame      -7.974  10.143  69.661  0.00  0.00    -0.271 OA
ATOM      6  H19 non d ame     -10.727   9.828  67.978  0.00  0.00     0.163 HD
BRANCH   4   7
ATOM      7  C9  non d ame      -8.384  11.372  67.715  0.00  0.00     0.092 C 
ATOM      8  H11 non d ame      -8.337  10.869  66.749  0.00  0.00     0.088 H 
BRANCH   7   9
ATOM      9  N3  non d ame      -9.443  12.382  67.626  0.00  0.00    -0.346 N 
ATOM     10  C7  non d ame     -10.466  12.267  66.617  0.00  0.00     0.240 C 
ATOM     11  O3  non d ame     -10.454  11.367  65.868  0.00  0.00    -0.271 OA
ATOM     12  H10 non d ame      -9.466  13.165  68.265  0.00  0.00     0.163 HD
BRANCH  10  13
ATOM     13  C6  non d ame     -11.588  13.347  66.526  0.00  0.00     0.086 C 
ATOM     14  H6  non d ame     -12.215  13.382  67.417  0.00  0.00     0.086 H 
BRANCH  13  15
ATOM     15  N2  non d ame     -10.971  14.658  66.400  0.00  0.00    -0.343 N 
ATOM     16  C5  non d ame     -11.107  15.627  67.489  0.00  0.00     0.273 C 
ATOM     17  O2  non d ame     -11.717  15.344  68.461  0.00  0.00    -0.266 OA
ATOM     18  H5  non d ame     -10.454  14.892  65.564  0.00  0.00     0.163 HD
BRANCH  16  19
ATOM     19  C4  non d ame     -10.459  17.015  67.370  0.00  0.00     0.154 A 
ATOM     20  C1  non d ame      -9.314  17.371  66.589  0.00  0.00    -0.017 A 
ATOM     21  C2  non d ame      -9.130  18.752  66.821  0.00  0.00     0.077 A 
ATOM     22  H1  non d ame      -8.709  16.726  65.950  0.00  0.00     0.091 H 
ATOM     23  O1  non d ame     -10.066  19.135  67.639  0.00  0.00    -0.218 OA
ATOM     24  N1  non d ame     -10.854  18.139  67.974  0.00  0.00    -0.123 NA
BRANCH  21  25
ATOM     25  C3  non d ame      -8.038  19.629  66.223  0.00  0.00    -0.029 C 
ATOM     26  H2  non d ame      -8.463  20.589  65.929  0.00  0.00     0.036 H 
ATOM     27  H3  non d ame      -7.255  19.790  66.962  0.00  0.00     0.036 H 
ATOM     28  H4  non d ame      -7.615  19.135  65.346  0.00  0.00     0.036 H 
ENDBRANCH  21  25
ENDBRANCH  16  19
ENDBRANCH  13  15
BRANCH  13  29
ATOM     29  C8  non d ame     -12.461  13.070  65.328  0.00  0.00    -0.049 C 
ATOM     30  H7  non d ame     -11.966  12.348  64.678  0.00  0.00     0.030 H 
ATOM     31  H8  non d ame     -13.417  12.666  65.659  0.00  0.00     0.030 H 
ATOM     32  H9  non d ame     -12.628  13.997  64.779  0.00  0.00     0.030 H 
ENDBRANCH  13  29
ENDBRANCH  10  13
ENDBRANCH   7   9
BRANCH   7  33
ATOM     33  C11 non d ame      -7.039  12.064  68.081  0.00  0.00    -0.033 C 
ATOM     34  H12 non d ame      -6.691  11.632  69.019  0.00  0.00     0.042 H 
BRANCH  33  35
ATOM     35  C12 non d ame      -5.945  11.788  67.002  0.00  0.00    -0.071 C 
ATOM     36  H13 non d ame      -6.350  11.128  66.235  0.00  0.00     0.028 H 
ATOM     37  H14 non d ame      -5.638  12.728  66.548  0.00  0.00     0.028 H 
ATOM     38  H15 non d ame      -5.085  11.312  67.473  0.00  0.00     0.028 H 
ENDBRANCH  33  35
BRANCH  33  39
ATOM     39  C13 non d ame      -7.241  13.598  68.301  0.00  0.00    -0.071 C 
ATOM     40  H16 non d ame      -6.749  14.148  67.499  0.00  0.00     0.028 H 
ATOM     41  H17 non d ame      -8.307  13.828  68.299  0.00  0.00     0.028 H 
ATOM     42  H18 non d ame      -6.809  13.888  69.259  0.00  0.00     0.028 H 
ENDBRANCH  33  39
ENDBRANCH   7  33
ENDBRANCH   4   7
ENDBRANCH   1   3
BRANCH   1  43
ATOM     43  C15 non d ame     -10.468   7.265  69.075  0.00  0.00     0.240 C 
ATOM     44  O5  non d ame     -11.358   6.522  69.332  0.00  0.00    -0.271 OA
ATOM     45  N6  non d ame      -9.409   6.847  68.111  0.00  0.00    -0.355 N 
ATOM     46  H46 non d ame      -8.650   7.472  67.882  0.00  0.00     0.162 HD
BRANCH  45  47
ATOM     47  C20 non d ame      -9.471   5.507  67.490  0.00  0.00     0.013 C 
ATOM     48  H30 non d ame     -10.095   4.873  68.120  0.00  0.00     0.072 H 
BRANCH  47  49
ATOM     49  C21 non d ame      -8.076   4.931  67.400  0.00  0.00    -0.038 C 
ATOM     50  H31 non d ame      -8.056   4.096  68.099  0.00  0.00     0.036 H 
ATOM     51  H32 non d ame      -7.896   4.759  66.339  0.00  0.00     0.036 H 
BRANCH  49  52
ATOM     52  C22 non d ame      -6.988   5.921  67.872  0.00  0.00     0.018 C 
ATOM     53  H33 non d ame      -7.404   6.916  67.710  0.00  0.00     0.048 H 
ATOM     54  H34 non d ame      -6.715   5.602  68.877  0.00  0.00     0.048 H 
BRANCH  52  55
ATOM     55  C23 non d ame      -5.681   5.862  67.033  0.00  0.00     0.259 C 
ATOM     56  O7  non d ame      -5.012   4.880  67.027  0.00  0.00    -0.265 OA
BRANCH  55  57
ATOM     57  O8  non d ame      -5.284   7.002  66.281  0.00  0.00    -0.317 OA
BRANCH  57  58
ATOM     58  C29 non d ame      -6.154   8.128  66.429  0.00  0.00     0.052 C 
ATOM     59  H47 non d ame      -6.955   7.797  67.088  0.00  0.00     0.082 H 
ATOM     60  H48 non d ame      -5.513   8.959  66.724  0.00  0.00     0.082 H 
BRANCH  58  61
ATOM     61  C35 non d ame      -6.762   8.449  65.037  0.00  0.00    -0.034 A 
ATOM     62  C30 non d ame      -8.083   8.874  64.934  0.00  0.00    -0.075 A 
ATOM     63  C31 non d ame      -8.629   9.162  63.684  0.00  0.00    -0.082 A 
ATOM     64  H49 non d ame      -8.690   8.983  65.833  0.00  0.00     0.084 H 
ATOM     65  C32 non d ame      -7.850   9.018  62.533  0.00  0.00    -0.083 A 
ATOM     66  H50 non d ame      -9.663   9.498  63.608  0.00  0.00     0.083 H 
ATOM     67  C33 non d ame      -6.533   8.590  62.640  0.00  0.00    -0.082 A 
ATOM     68  H51 non d ame      -8.268   9.242  61.552  0.00  0.00     0.083 H 
ATOM     69  C34 non d ame      -5.983   8.304  63.888  0.00  0.00    -0.075 A 
ATOM     70  H52 non d ame      -5.929   8.477  61.739  0.00  0.00     0.083 H 
ATOM     71  H53 non d ame      -4.948   7.969  63.963  0.00  0.00     0.084 H 
ENDBRANCH  58  61
ENDBRANCH  57  58
ENDBRANCH  55  57
ENDBRANCH  52  55
ENDBRANCH  49  52
ENDBRANCH  47  49
BRANCH  47  72
ATOM     72  C24 non d ame     -10.069   5.615  66.089  0.00  0.00    -0.039 C 
ATOM     73  H35 non d ame     -11.113   5.319  66.196  0.00  0.00     0.036 H 
ATOM     74  H36 non d ame      -9.821   6.619  65.744  0.00  0.00     0.036 H 
BRANCH  72  75
ATOM     75  C25 non d ame      -9.388   4.584  65.071  0.00  0.00    -0.001 C 
ATOM     76  C26 non d ame      -8.413   5.393  64.023  0.00  0.00    -0.035 C 
ATOM     77  C27 non d ame      -8.733   5.028  62.758  0.00  0.00     0.085 C 
ATOM     78  H38 non d ame      -8.641   6.458  64.046  0.00  0.00     0.036 H 
ATOM     79  H39 non d ame      -7.383   5.055  64.133  0.00  0.00     0.036 H 
ATOM     80  N5  non d ame     -10.051   4.294  62.831  0.00  0.00    -0.049 N 
ATOM     81  H40 non d ame      -8.875   5.961  62.212  0.00  0.00     0.075 H 
ATOM     82  H41 non d ame      -7.955   4.330  62.452  0.00  0.00     0.075 H 
ATOM     83  C28 non d ame     -10.277   3.940  64.390  0.00  0.00     0.193 C 
ATOM     84  H42 non d ame     -10.760   4.952  62.544  0.00  0.00     0.280 HD
ATOM     85  H43 non d ame      -9.926   3.431  62.321  0.00  0.00     0.280 HD
ATOM     86  H44 non d ame     -10.114   2.928  64.758  0.00  0.00     0.129 H 
ATOM     87  H37 non d ame      -8.959   3.722  65.583  0.00  0.00     0.046 H 
BRANCH  83  88
ATOM     88  O6  non d ame     -11.607   4.281  64.785  0.00  0.00    -0.369 OA
ATOM     89  H45 non d ame     -12.212   3.592  64.499  0.00  0.00     0.212 HD
ENDBRANCH  83  88
ENDBRANCH  72  75
ENDBRANCH  47  72
ENDBRANCH  45  47
ENDBRANCH   1  43
BRANCH   1  90
ATOM     90  C16 non d ame     -11.784   9.020  70.303  0.00  0.00    -0.035 C 
ATOM     91  H21 non d ame     -12.013  10.013  69.914  0.00  0.00     0.037 H 
ATOM     92  H22 non d ame     -12.424   8.175  70.052  0.00  0.00     0.037 H 
BRANCH  90  93
ATOM     93  C17 non d ame     -11.804   9.141  71.860  0.00  0.00    -0.059 C 
ATOM     94  H23 non d ame     -11.337  10.090  72.123  0.00  0.00     0.038 H 
BRANCH  93  95
ATOM     95  C18 non d ame     -13.258   9.151  72.432  0.00  0.00    -0.073 C 
ATOM     96  H24 non d ame     -13.964   9.341  71.623  0.00  0.00     0.028 H 
ATOM     97  H25 non d ame     -13.476   8.184  72.884  0.00  0.00     0.028 H 
ATOM     98  H26 non d ame     -13.347   9.934  73.185  0.00  0.00     0.028 H 
ENDBRANCH  93  95
BRANCH  93  99
ATOM     99  C19 non d ame     -10.972   8.031  72.507  0.00  0.00    -0.073 C 
ATOM    100  H27 non d ame     -10.721   7.280  71.756  0.00  0.00     0.028 H 
ATOM    101  H28 non d ame     -10.055   8.457  72.916  0.00  0.00     0.028 H 
ATOM    102  H29 non d ame     -11.545   7.567  73.309  0.00  0.00     0.028 H 
ENDBRANCH  93  99
ENDBRANCH  90  93
ENDBRANCH   1  90
TORSDOF 26
ENDMDL
MODEL 20
REMARK VINA RESULT:      -5.9      3.945      9.664
REMARK  26 active torsions:
REMARK  status: ('A' for Active; 'I' for Inactive)
REMARK    1  A    between atoms: C2_2  and  C3_3 
REMARK    2  A    between atoms: C4_6  and  C5_7 
REMARK       I    between atoms: C5_7  and  N2_9 
REMARK    3  A    between atoms: N2_9  and  C6_10 
REMARK    4  A    between atoms: C6_10  and  C7_11 
REMARK    5  A    between atoms: C6_10  and  C8_13 
REMARK       I    between atoms: C7_11  and  N3_14 
REMARK    6  A    between atoms: N3_14  and  C9_15 
REMARK    7  A    between atoms: C9_15  and  C10_16 
REMARK    8  A    between atoms: C9_15  and  C11_18 
REMARK       I    between atoms: C10_16  and  N4_21 
REMARK    9  A    between atoms: C11_18  and  C12_19 
REMARK   10  A    between atoms: C11_18  and  C13_20 
REMARK   11  A    between atoms: N4_21  and  C14_22 
REMARK   12  A    between atoms: C14_22  and  C15_23 
REMARK   13  A    between atoms: C14_22  and  C16_25 
REMARK       I    between atoms: C15_23  and  N6_40 
REMARK   14  A    between atoms: C16_25  and  C17_26 
REMARK   15  A    between atoms: C17_26  and  C18_27 
REMARK   16  A    between atoms: C17_26  and  C19_28 
REMARK   17  A    between atoms: C20_29  and  C21_30 
REMARK   18  A    between atoms: C20_29  and  C24_33 
REMARK   19  A    between atoms: C20_29  and  N6_40 
REMARK   20  A    between atoms: C21_30  and  C22_31 
REMARK   21  A    between atoms: C22_31  and  C23_32 
REMARK   22  A    between atoms: C23_32  and  O8_43 
REMARK   23  A    between atoms: C24_33  and  C25_34 
REMARK   24  A    between atoms: C28_38  and  O6_39 
REMARK   25  A    between atoms: C29_42  and  O8_43 
REMARK   26  A    between atoms: C29_42  and  C35_49 
ROOT
ATOM      1  C14 non d ame      -7.460   8.248  64.374  0.00  0.00     0.089 C 
ATOM      2  H20 non d ame      -7.426   8.530  63.321  0.00  0.00     0.087 H 
ENDROOT
BRANCH   1   3
ATOM      3  N4  non d ame      -8.501   9.043  65.007  0.00  0.00    -0.346 N 
ATOM      4  C10 non d ame      -9.413   9.909  64.172  0.00  0.00     0.241 C 
ATOM      5  O4  non d ame      -9.286   9.950  62.993  0.00  0.00    -0.271 OA
ATOM      6  H19 non d ame      -8.591   8.997  66.012  0.00  0.00     0.163 HD
BRANCH   4   7
ATOM      7  C9  non d ame     -10.489  10.721  64.843  0.00  0.00     0.092 C 
ATOM      8  H11 non d ame     -11.341  10.078  65.060  0.00  0.00     0.088 H 
BRANCH   7   9
ATOM      9  N3  non d ame      -9.991  11.228  66.126  0.00  0.00    -0.346 N 
ATOM     10  C7  non d ame     -10.813  11.132  67.306  0.00  0.00     0.240 C 
ATOM     11  O3  non d ame     -11.878  10.651  67.243  0.00  0.00    -0.271 OA
ATOM     12  H10 non d ame      -9.074  11.646  66.196  0.00  0.00     0.163 HD
BRANCH  10  13
ATOM     13  C6  non d ame     -10.279  11.675  68.668  0.00  0.00     0.086 C 
ATOM     14  H6  non d ame      -9.194  11.611  68.752  0.00  0.00     0.086 H 
BRANCH  13  15
ATOM     15  N2  non d ame     -10.621  13.084  68.781  0.00  0.00    -0.343 N 
ATOM     16  C5  non d ame      -9.738  14.091  68.190  0.00  0.00     0.273 C 
ATOM     17  O2  non d ame      -8.752  13.758  67.630  0.00  0.00    -0.266 OA
ATOM     18  H5  non d ame     -11.465  13.359  69.264  0.00  0.00     0.163 HD
BRANCH  16  19
ATOM     19  C4  non d ame     -10.089  15.583  68.301  0.00  0.00     0.154 A 
ATOM     20  C1  non d ame      -9.177  16.685  68.344  0.00  0.00    -0.017 A 
ATOM     21  C2  non d ame      -9.996  17.831  68.446  0.00  0.00     0.077 A 
ATOM     22  H1  non d ame      -8.088  16.658  68.307  0.00  0.00     0.091 H 
ATOM     23  O1  non d ame     -11.232  17.424  68.457  0.00  0.00    -0.218 OA
ATOM     24  N1  non d ame     -11.311  16.116  68.373  0.00  0.00    -0.123 NA
BRANCH  21  25
ATOM     25  C3  non d ame      -9.520  19.275  68.526  0.00  0.00    -0.029 C 
ATOM     26  H2  non d ame     -10.264  19.929  68.070  0.00  0.00     0.036 H 
ATOM     27  H3  non d ame      -9.382  19.555  69.570  0.00  0.00     0.036 H 
ATOM     28  H4  non d ame      -8.573  19.376  67.994  0.00  0.00     0.036 H 
ENDBRANCH  21  25
ENDBRANCH  16  19
ENDBRANCH  13  15
BRANCH  13  29
ATOM     29  C8  non d ame     -10.901  10.901  69.801  0.00  0.00    -0.049 C 
ATOM     30  H7  non d ame     -10.407   9.933  69.895  0.00  0.00     0.030 H 
ATOM     31  H8  non d ame     -10.788  11.458  70.730  0.00  0.00     0.030 H 
ATOM     32  H9  non d ame     -11.961  10.747  69.596  0.00  0.00     0.030 H 
ENDBRANCH  13  29
ENDBRANCH  10  13
ENDBRANCH   7   9
BRANCH   7  33
ATOM     33  C11 non d ame     -10.877  11.921  63.930  0.00  0.00    -0.033 C 
ATOM     34  H12 non d ame     -10.316  11.823  63.002  0.00  0.00     0.042 H 
BRANCH  33  35
ATOM     35  C12 non d ame     -12.395  11.890  63.566  0.00  0.00    -0.071 C 
ATOM     36  H13 non d ame     -12.929  12.618  64.176  0.00  0.00     0.028 H 
ATOM     37  H14 non d ame     -12.521  12.135  62.513  0.00  0.00     0.028 H 
ATOM     38  H15 non d ame     -12.793  10.894  63.759  0.00  0.00     0.028 H 
ENDBRANCH  33  35
BRANCH  33  39
ATOM     39  C13 non d ame     -10.483  13.279  64.594  0.00  0.00    -0.071 C 
ATOM     40  H16 non d ame     -10.897  14.102  64.012  0.00  0.00     0.028 H 
ATOM     41  H17 non d ame     -10.879  13.317  65.609  0.00  0.00     0.028 H 
ATOM     42  H18 non d ame      -9.397  13.367  64.625  0.00  0.00     0.028 H 
ENDBRANCH  33  39
ENDBRANCH   7  33
ENDBRANCH   4   7
ENDBRANCH   1   3
BRANCH   1  43
ATOM     43  C15 non d ame      -7.800   6.743  64.569  0.00  0.00     0.240 C 
ATOM     44  O5  non d ame      -8.129   6.085  63.636  0.00  0.00    -0.271 OA
ATOM     45  N6  non d ame      -7.707   6.119  65.920  0.00  0.00    -0.355 N 
ATOM     46  H46 non d ame      -7.424   6.667  66.720  0.00  0.00     0.162 HD
BRANCH  45  47
ATOM     47  C20 non d ame      -8.032   4.687  66.089  0.00  0.00     0.013 C 
ATOM     48  H30 non d ame      -8.309   4.287  65.113  0.00  0.00     0.072 H 
BRANCH  47  49
ATOM     49  C21 non d ame      -9.191   4.547  67.050  0.00  0.00    -0.038 C 
ATOM     50  H31 non d ame      -9.403   3.479  67.103  0.00  0.00     0.036 H 
ATOM     51  H32 non d ame      -8.895   5.089  67.949  0.00  0.00     0.036 H 
BRANCH  49  52
ATOM     52  C22 non d ame     -10.481   5.223  66.537  0.00  0.00     0.018 C 
ATOM     53  H33 non d ame     -10.283   5.486  65.497  0.00  0.00     0.048 H 
ATOM     54  H34 non d ame     -11.291   4.537  66.779  0.00  0.00     0.048 H 
BRANCH  52  55
ATOM     55  C23 non d ame     -10.818   6.558  67.258  0.00  0.00     0.259 C 
ATOM     56  O7  non d ame     -10.477   7.597  66.794  0.00  0.00    -0.265 OA
BRANCH  55  57
ATOM     57  O8  non d ame     -11.529   6.524  68.489  0.00  0.00    -0.317 OA
BRANCH  57  58
ATOM     58  C29 non d ame     -10.856   7.180  69.568  0.00  0.00     0.052 C 
ATOM     59  H47 non d ame     -10.395   8.066  69.132  0.00  0.00     0.082 H 
ATOM     60  H48 non d ame     -11.599   7.285  70.358  0.00  0.00     0.082 H 
BRANCH  58  61
ATOM     61  C35 non d ame      -9.731   6.238  70.074  0.00  0.00    -0.034 A 
ATOM     62  C30 non d ame     -10.052   5.003  70.627  0.00  0.00    -0.075 A 
ATOM     63  C31 non d ame      -9.041   4.157  71.081  0.00  0.00    -0.082 A 
ATOM     64  H49 non d ame     -11.096   4.697  70.704  0.00  0.00     0.084 H 
ATOM     65  C32 non d ame      -7.704   4.553  70.985  0.00  0.00    -0.083 A 
ATOM     66  H50 non d ame      -9.296   3.188  71.511  0.00  0.00     0.083 H 
ATOM     67  C33 non d ame      -7.388   5.789  70.435  0.00  0.00    -0.082 A 
ATOM     68  H51 non d ame      -6.908   3.897  71.337  0.00  0.00     0.083 H 
ATOM     69  C34 non d ame      -8.396   6.635  69.978  0.00  0.00    -0.075 A 
ATOM     70  H52 non d ame      -6.344   6.094  70.363  0.00  0.00     0.083 H 
ATOM     71  H53 non d ame      -8.139   7.604  69.546  0.00  0.00     0.084 H 
ENDBRANCH  58  61
ENDBRANCH  57  58
ENDBRANCH  55  57
ENDBRANCH  52  55
ENDBRANCH  49  52
ENDBRANCH  47  49
BRANCH  47  72
ATOM     72  C24 non d ame      -6.818   3.943  66.642  0.00  0.00    -0.039 C 
ATOM     73  H35 non d ame      -7.035   3.778  67.698  0.00  0.00     0.036 H 
ATOM     74  H36 non d ame      -6.672   3.091  65.977  0.00  0.00     0.036 H 
BRANCH  72  75
ATOM     75  C25 non d ame      -5.490   4.836  66.566  0.00  0.00    -0.001 C 
ATOM     76  C26 non d ame      -4.670   4.501  65.181  0.00  0.00    -0.035 C 
ATOM     77  C27 non d ame      -3.380   4.230  65.493  0.00  0.00     0.085 C 
ATOM     78  H38 non d ame      -5.029   3.568  64.749  0.00  0.00     0.036 H 
ATOM     79  H39 non d ame      -4.599   5.396  64.563  0.00  0.00     0.036 H 
ATOM     80  N5  non d ame      -3.321   4.027  66.988  0.00  0.00    -0.049 N 
ATOM     81  H40 non d ame      -3.153   3.285  64.997  0.00  0.00     0.075 H 
ATOM     82  H41 non d ame      -2.822   5.129  65.234  0.00  0.00     0.075 H 
ATOM     83  C28 non d ame      -4.712   4.604  67.570  0.00  0.00     0.193 C 
ATOM     84  H42 non d ame      -3.297   3.030  67.141  0.00  0.00     0.280 HD
ATOM     85  H43 non d ame      -2.567   4.608  67.326  0.00  0.00     0.280 HD
ATOM     86  H44 non d ame      -4.744   5.569  68.074  0.00  0.00     0.129 H 
ATOM     87  H37 non d ame      -5.686   5.886  66.786  0.00  0.00     0.046 H 
BRANCH  83  88
ATOM     88  O6  non d ame      -5.285   3.674  68.491  0.00  0.00    -0.369 OA
ATOM     89  H45 non d ame      -4.597   3.096  68.831  0.00  0.00     0.212 HD
ENDBRANCH  83  88
ENDBRANCH  72  75
ENDBRANCH  47  72
ENDBRANCH  45  47
ENDBRANCH   1  43
BRANCH   1  90
ATOM     90  C16 non d ame      -6.127   8.561  65.034  0.00  0.00    -0.035 C 
ATOM     91  H21 non d ame      -6.007   9.642  64.944  0.00  0.00     0.037 H 
ATOM     92  H22 non d ame      -6.178   8.099  66.020  0.00  0.00     0.037 H 
BRANCH  90  93
ATOM     93  C17 non d ame      -4.902   7.920  64.309  0.00  0.00    -0.059 C 
ATOM     94  H23 non d ame      -5.055   6.841  64.292  0.00  0.00     0.038 H 
BRANCH  93  95
ATOM     95  C18 non d ame      -4.772   8.405  62.830  0.00  0.00    -0.073 C 
ATOM     96  H24 non d ame      -5.600   9.073  62.593  0.00  0.00     0.028 H 
ATOM     97  H25 non d ame      -3.829   8.936  62.704  0.00  0.00     0.028 H 
ATOM     98  H26 non d ame      -4.796   7.544  62.162  0.00  0.00     0.028 H 
ENDBRANCH  93  95
BRANCH  93  99
ATOM     99  C19 non d ame      -3.607   8.182  65.084  0.00  0.00    -0.073 C 
ATOM    100  H27 non d ame      -3.242   7.246  65.507  0.00  0.00     0.028 H 
ATOM    101  H28 non d ame      -2.858   8.594  64.408  0.00  0.00     0.028 H 
ATOM    102  H29 non d ame      -3.802   8.894  65.886  0.00  0.00     0.028 H 
ENDBRANCH  93  99
ENDBRANCH  90  93
ENDBRANCH   1  90
TORSDOF 26
ENDMDL
