MODEL 1
REMARK VINA RESULT:      -6.9      0.000      0.000
REMARK  26 active torsions:
REMARK  status: ('A' for Active; 'I' for Inactive)
REMARK    1  A    between atoms: C2_2  and  C3_3 
REMARK    2  A    between atoms: C4_6  and  C5_7 
REMARK       I    between atoms: C5_7  and  N2_9 
REMARK    3  A    between atoms: N2_9  and  C6_10 
REMARK    4  A    between atoms: C6_10  and  C7_11 
REMARK    5  A    between atoms: C6_10  and  C8_13 
REMARK       I    between atoms: C7_11  and  N3_14 
REMARK    6  A    between atoms: N3_14  and  C9_15 
REMARK    7  A    between atoms: C9_15  and  C10_16 
REMARK    8  A    between atoms: C9_15  and  C11_18 
REMARK       I    between atoms: C10_16  and  N4_21 
REMARK    9  A    between atoms: C11_18  and  C12_19 
REMARK   10  A    between atoms: C11_18  and  C13_20 
REMARK   11  A    between atoms: N4_21  and  C14_22 
REMARK   12  A    between atoms: C14_22  and  C15_23 
REMARK   13  A    between atoms: C14_22  and  C16_25 
REMARK       I    between atoms: C15_23  and  N6_40 
REMARK   14  A    between atoms: C16_25  and  C17_26 
REMARK   15  A    between atoms: C17_26  and  C18_27 
REMARK   16  A    between atoms: C17_26  and  C19_28 
REMARK   17  A    between atoms: C20_29  and  C21_30 
REMARK   18  A    between atoms: C20_29  and  C24_33 
REMARK   19  A    between atoms: C20_29  and  N6_40 
REMARK   20  A    between atoms: C21_30  and  C22_31 
REMARK   21  A    between atoms: C22_31  and  C23_32 
REMARK   22  A    between atoms: C23_32  and  O8_43 
REMARK   23  A    between atoms: C24_33  and  C25_34 
REMARK   24  A    between atoms: C28_38  and  O6_39 
REMARK   25  A    between atoms: C29_42  and  O8_43 
REMARK   26  A    between atoms: C29_42  and  C35_49 
ROOT
ATOM      1  C14 non d ame     -10.498   9.652  68.649  0.00  0.00     0.089 C 
ATOM      2  H20 non d ame     -11.342   8.964  68.726  0.00  0.00     0.087 H 
ENDROOT
BRANCH   1   3
ATOM      3  N4  non d ame      -9.576   9.105  67.665  0.00  0.00    -0.346 N 
ATOM      4  C10 non d ame      -9.911   7.829  66.933  0.00  0.00     0.241 C 
ATOM      5  O4  non d ame     -10.929   7.260  67.155  0.00  0.00    -0.271 OA
ATOM      6  H19 non d ame      -8.714   9.602  67.493  0.00  0.00     0.163 HD
BRANCH   4   7
ATOM      7  C9  non d ame      -8.947   7.279  65.915  0.00  0.00     0.092 C 
ATOM      8  H11 non d ame      -9.218   6.249  65.684  0.00  0.00     0.088 H 
BRANCH   7   9
ATOM      9  N3  non d ame      -9.061   8.046  64.670  0.00  0.00    -0.346 N 
ATOM     10  C7  non d ame      -8.384   9.311  64.538  0.00  0.00     0.240 C 
ATOM     11  O3  non d ame      -7.743   9.730  65.423  0.00  0.00    -0.271 OA
ATOM     12  H10 non d ame      -9.612   7.698  63.897  0.00  0.00     0.163 HD
BRANCH  10  13
ATOM     13  C6  non d ame      -8.512  10.123  63.211  0.00  0.00     0.086 C 
ATOM     14  H6  non d ame      -9.253   9.705  62.530  0.00  0.00     0.086 H 
BRANCH  13  15
ATOM     15  N2  non d ame      -8.951  11.473  63.526  0.00  0.00    -0.343 N 
ATOM     16  C5  non d ame     -10.318  11.695  64.003  0.00  0.00     0.273 C 
ATOM     17  O2  non d ame     -11.057  10.782  64.127  0.00  0.00    -0.266 OA
ATOM     18  H5  non d ame      -8.313  12.248  63.414  0.00  0.00     0.163 HD
BRANCH  16  19
ATOM     19  C4  non d ame     -10.794  13.117  64.339  0.00  0.00     0.154 A 
ATOM     20  C1  non d ame     -10.055  14.139  65.016  0.00  0.00    -0.017 A 
ATOM     21  C2  non d ame     -10.933  15.244  65.073  0.00  0.00     0.077 A 
ATOM     22  H1  non d ame      -9.038  14.087  65.404  0.00  0.00     0.091 H 
ATOM     23  O1  non d ame     -12.042  14.889  64.493  0.00  0.00    -0.218 OA
ATOM     24  N1  non d ame     -11.985  13.651  64.057  0.00  0.00    -0.123 NA
BRANCH  21  25
ATOM     25  C3  non d ame     -10.634  16.601  65.697  0.00  0.00    -0.029 C 
ATOM     26  H2  non d ame     -10.675  16.519  66.783  0.00  0.00     0.036 H 
ATOM     27  H3  non d ame      -9.641  16.929  65.394  0.00  0.00     0.036 H 
ATOM     28  H4  non d ame     -11.375  17.327  65.359  0.00  0.00     0.036 H 
ENDBRANCH  21  25
ENDBRANCH  16  19
ENDBRANCH  13  15
BRANCH  13  29
ATOM     29  C8  non d ame      -7.177  10.164  62.513  0.00  0.00    -0.049 C 
ATOM     30  H7  non d ame      -6.504   9.440  62.973  0.00  0.00     0.030 H 
ATOM     31  H8  non d ame      -7.309   9.920  61.459  0.00  0.00     0.030 H 
ATOM     32  H9  non d ame      -6.750  11.164  62.604  0.00  0.00     0.030 H 
ENDBRANCH  13  29
ENDBRANCH  10  13
ENDBRANCH   7   9
BRANCH   7  33
ATOM     33  C11 non d ame      -7.494   7.395  66.461  0.00  0.00    -0.033 C 
ATOM     34  H12 non d ame      -7.199   8.440  66.391  0.00  0.00     0.042 H 
BRANCH  33  35
ATOM     35  C12 non d ame      -7.418   6.984  67.965  0.00  0.00    -0.071 C 
ATOM     36  H13 non d ame      -8.426   6.894  68.368  0.00  0.00     0.028 H 
ATOM     37  H14 non d ame      -6.904   6.028  68.054  0.00  0.00     0.028 H 
ATOM     38  H15 non d ame      -6.872   7.745  68.520  0.00  0.00     0.028 H 
ENDBRANCH  33  35
BRANCH  33  39
ATOM     39  C13 non d ame      -6.503   6.553  65.594  0.00  0.00    -0.071 C 
ATOM     40  H16 non d ame      -5.518   7.019  65.613  0.00  0.00     0.028 H 
ATOM     41  H17 non d ame      -6.434   5.542  65.998  0.00  0.00     0.028 H 
ATOM     42  H18 non d ame      -6.864   6.510  64.567  0.00  0.00     0.028 H 
ENDBRANCH  33  39
ENDBRANCH   7  33
ENDBRANCH   4   7
ENDBRANCH   1   3
BRANCH   1  43
ATOM     43  C15 non d ame     -10.936  11.069  68.181  0.00  0.00     0.240 C 
ATOM     44  O5  non d ame     -11.722  11.183  67.297  0.00  0.00    -0.271 OA
ATOM     45  N6  non d ame     -10.381  12.285  68.842  0.00  0.00    -0.355 N 
ATOM     46  H46 non d ame      -9.716  12.200  69.596  0.00  0.00     0.162 HD
BRANCH  45  47
ATOM     47  C20 non d ame     -10.808  13.625  68.386  0.00  0.00     0.013 C 
ATOM     48  H30 non d ame     -10.926  13.590  67.303  0.00  0.00     0.072 H 
BRANCH  47  49
ATOM     49  C21 non d ame      -9.750  14.640  68.756  0.00  0.00    -0.038 C 
ATOM     50  H31 non d ame      -9.982  15.532  68.175  0.00  0.00     0.036 H 
ATOM     51  H32 non d ame      -9.752  14.683  69.846  0.00  0.00     0.036 H 
BRANCH  49  52
ATOM     52  C22 non d ame      -8.329  14.204  68.338  0.00  0.00     0.018 C 
ATOM     53  H33 non d ame      -7.932  13.642  69.183  0.00  0.00     0.048 H 
ATOM     54  H34 non d ame      -8.442  13.721  67.368  0.00  0.00     0.048 H 
BRANCH  52  55
ATOM     55  C23 non d ame      -7.350  15.390  68.115  0.00  0.00     0.259 C 
ATOM     56  O7  non d ame      -6.579  15.373  67.211  0.00  0.00    -0.265 OA
BRANCH  55  57
ATOM     57  O8  non d ame      -7.375  16.492  69.013  0.00  0.00    -0.317 OA
BRANCH  57  58
ATOM     58  C29 non d ame      -6.811  17.693  68.476  0.00  0.00     0.052 C 
ATOM     59  H47 non d ame      -6.378  18.221  69.325  0.00  0.00     0.082 H 
ATOM     60  H48 non d ame      -6.176  17.376  67.650  0.00  0.00     0.082 H 
BRANCH  58  61
ATOM     61  C35 non d ame      -7.971  18.550  67.902  0.00  0.00    -0.034 A 
ATOM     62  C30 non d ame      -7.878  19.078  66.619  0.00  0.00    -0.075 A 
ATOM     63  C31 non d ame      -8.920  19.849  66.104  0.00  0.00    -0.082 A 
ATOM     64  H49 non d ame      -6.990  18.888  66.015  0.00  0.00     0.084 H 
ATOM     65  C32 non d ame     -10.056  20.093  66.880  0.00  0.00    -0.083 A 
ATOM     66  H50 non d ame      -8.846  20.258  65.096  0.00  0.00     0.083 H 
ATOM     67  C33 non d ame     -10.143  19.568  68.162  0.00  0.00    -0.082 A 
ATOM     68  H51 non d ame     -10.876  20.694  66.484  0.00  0.00     0.083 H 
ATOM     69  C34 non d ame      -9.104  18.795  68.679  0.00  0.00    -0.075 A 
ATOM     70  H52 non d ame     -11.030  19.763  68.765  0.00  0.00     0.083 H 
ATOM     71  H53 non d ame      -9.181  18.385  69.687  0.00  0.00     0.084 H 
ENDBRANCH  58  61
ENDBRANCH  57  58
ENDBRANCH  55  57
ENDBRANCH  52  55
ENDBRANCH  49  52
ENDBRANCH  47  49
BRANCH  47  72
ATOM     72  C24 non d ame     -12.130  14.000  69.052  0.00  0.00    -0.039 C 
ATOM     73  H35 non d ame     -12.334  15.023  68.736  0.00  0.00     0.036 H 
ATOM     74  H36 non d ame     -12.824  13.201  68.790  0.00  0.00     0.036 H 
BRANCH  72  75
ATOM     75  C25 non d ame     -12.007  14.015  70.649  0.00  0.00    -0.001 C 
ATOM     76  C26 non d ame     -12.798  12.720  71.283  0.00  0.00    -0.035 C 
ATOM     77  C27 non d ame     -13.641  13.155  72.250  0.00  0.00     0.085 C 
ATOM     78  H38 non d ame     -13.466  12.288  70.538  0.00  0.00     0.036 H 
ATOM     79  H39 non d ame     -12.099  12.082  71.823  0.00  0.00     0.036 H 
ATOM     80  N5  non d ame     -13.739  14.655  72.109  0.00  0.00    -0.049 N 
ATOM     81  H40 non d ame     -14.609  12.712  72.013  0.00  0.00     0.075 H 
ATOM     82  H41 non d ame     -13.150  12.919  73.193  0.00  0.00     0.075 H 
ATOM     83  C28 non d ame     -12.516  15.091  71.149  0.00  0.00     0.193 C 
ATOM     84  H42 non d ame     -14.607  14.842  71.629  0.00  0.00     0.280 HD
ATOM     85  H43 non d ame     -13.577  15.040  73.028  0.00  0.00     0.280 HD
ATOM     86  H44 non d ame     -11.624  15.558  71.564  0.00  0.00     0.129 H 
ATOM     87  H37 non d ame     -10.982  14.182  70.982  0.00  0.00     0.046 H 
BRANCH  83  88
ATOM     88  O6  non d ame     -12.979  15.987  70.136  0.00  0.00    -0.369 OA
ATOM     89  H45 non d ame     -12.821  16.893  70.414  0.00  0.00     0.212 HD
ENDBRANCH  83  88
ENDBRANCH  72  75
ENDBRANCH  47  72
ENDBRANCH  45  47
ENDBRANCH   1  43
BRANCH   1  90
ATOM     90  C16 non d ame      -9.791   9.752  69.990  0.00  0.00    -0.035 C 
ATOM     91  H21 non d ame      -8.853   9.210  69.863  0.00  0.00     0.037 H 
ATOM     92  H22 non d ame      -9.777  10.815  70.231  0.00  0.00     0.037 H 
BRANCH  90  93
ATOM     93  C17 non d ame     -10.554   9.046  71.156  0.00  0.00    -0.059 C 
ATOM     94  H23 non d ame     -11.182   9.793  71.640  0.00  0.00     0.038 H 
BRANCH  93  95
ATOM     95  C18 non d ame     -11.486   7.902  70.642  0.00  0.00    -0.073 C 
ATOM     96  H24 non d ame     -10.914   6.978  70.558  0.00  0.00     0.028 H 
ATOM     97  H25 non d ame     -12.305   7.758  71.346  0.00  0.00     0.028 H 
ATOM     98  H26 non d ame     -11.888   8.172  69.666  0.00  0.00     0.028 H 
ENDBRANCH  93  95
BRANCH  93  99
ATOM     99  C19 non d ame      -9.577   8.520  72.211  0.00  0.00    -0.073 C 
ATOM    100  H27 non d ame      -9.883   7.521  72.523  0.00  0.00     0.028 H 
ATOM    101  H28 non d ame      -8.574   8.478  71.786  0.00  0.00     0.028 H 
ATOM    102  H29 non d ame      -9.578   9.187  73.072  0.00  0.00     0.028 H 
ENDBRANCH  93  99
ENDBRANCH  90  93
ENDBRANCH   1  90
TORSDOF 26
ENDMDL
MODEL 2
REMARK VINA RESULT:      -6.9      2.499      7.860
REMARK  26 active torsions:
REMARK  status: ('A' for Active; 'I' for Inactive)
REMARK    1  A    between atoms: C2_2  and  C3_3 
REMARK    2  A    between atoms: C4_6  and  C5_7 
REMARK       I    between atoms: C5_7  and  N2_9 
REMARK    3  A    between atoms: N2_9  and  C6_10 
REMARK    4  A    between atoms: C6_10  and  C7_11 
REMARK    5  A    between atoms: C6_10  and  C8_13 
REMARK       I    between atoms: C7_11  and  N3_14 
REMARK    6  A    between atoms: N3_14  and  C9_15 
REMARK    7  A    between atoms: C9_15  and  C10_16 
REMARK    8  A    between atoms: C9_15  and  C11_18 
REMARK       I    between atoms: C10_16  and  N4_21 
REMARK    9  A    between atoms: C11_18  and  C12_19 
REMARK   10  A    between atoms: C11_18  and  C13_20 
REMARK   11  A    between atoms: N4_21  and  C14_22 
REMARK   12  A    between atoms: C14_22  and  C15_23 
REMARK   13  A    between atoms: C14_22  and  C16_25 
REMARK       I    between atoms: C15_23  and  N6_40 
REMARK   14  A    between atoms: C16_25  and  C17_26 
REMARK   15  A    between atoms: C17_26  and  C18_27 
REMARK   16  A    between atoms: C17_26  and  C19_28 
REMARK   17  A    between atoms: C20_29  and  C21_30 
REMARK   18  A    between atoms: C20_29  and  C24_33 
REMARK   19  A    between atoms: C20_29  and  N6_40 
REMARK   20  A    between atoms: C21_30  and  C22_31 
REMARK   21  A    between atoms: C22_31  and  C23_32 
REMARK   22  A    between atoms: C23_32  and  O8_43 
REMARK   23  A    between atoms: C24_33  and  C25_34 
REMARK   24  A    between atoms: C28_38  and  O6_39 
REMARK   25  A    between atoms: C29_42  and  O8_43 
REMARK   26  A    between atoms: C29_42  and  C35_49 
ROOT
ATOM      1  C14 non d ame      -8.814  16.491  66.980  0.00  0.00     0.089 C 
ATOM      2  H20 non d ame      -9.324  16.574  67.940  0.00  0.00     0.087 H 
ENDROOT
BRANCH   1   3
ATOM      3  N4  non d ame      -7.631  15.668  67.181  0.00  0.00    -0.346 N 
ATOM      4  C10 non d ame      -6.965  15.609  68.534  0.00  0.00     0.241 C 
ATOM      5  O4  non d ame      -7.399  16.236  69.444  0.00  0.00    -0.271 OA
ATOM      6  H19 non d ame      -7.276  15.144  66.394  0.00  0.00     0.163 HD
BRANCH   4   7
ATOM      7  C9  non d ame      -5.745  14.748  68.726  0.00  0.00     0.092 C 
ATOM      8  H11 non d ame      -5.380  14.864  69.747  0.00  0.00     0.088 H 
BRANCH   7   9
ATOM      9  N3  non d ame      -6.110  13.337  68.556  0.00  0.00    -0.346 N 
ATOM     10  C7  non d ame      -5.939  12.412  69.647  0.00  0.00     0.240 C 
ATOM     11  O3  non d ame      -5.508  12.783  70.671  0.00  0.00    -0.271 OA
ATOM     12  H10 non d ame      -6.482  13.002  67.678  0.00  0.00     0.163 HD
BRANCH  10  13
ATOM     13  C6  non d ame      -6.326  10.912  69.458  0.00  0.00     0.086 C 
ATOM     14  H6  non d ame      -5.686  10.236  70.026  0.00  0.00     0.086 H 
BRANCH  13  15
ATOM     15  N2  non d ame      -7.680  10.710  69.947  0.00  0.00    -0.343 N 
ATOM     16  C5  non d ame      -8.044   9.429  70.557  0.00  0.00     0.273 C 
ATOM     17  O2  non d ame      -7.241   8.567  70.648  0.00  0.00    -0.266 OA
ATOM     18  H5  non d ame      -8.361  11.451  69.862  0.00  0.00     0.163 HD
BRANCH  16  19
ATOM     19  C4  non d ame      -9.472   9.203  71.078  0.00  0.00     0.154 A 
ATOM     20  C1  non d ame     -10.682   9.760  70.555  0.00  0.00    -0.017 A 
ATOM     21  C2  non d ame     -11.705   9.245  71.381  0.00  0.00     0.077 A 
ATOM     22  H1  non d ame     -10.799  10.433  69.706  0.00  0.00     0.091 H 
ATOM     23  O1  non d ame     -11.140   8.482  72.270  0.00  0.00    -0.218 OA
ATOM     24  N1  non d ame      -9.836   8.442  72.114  0.00  0.00    -0.123 NA
BRANCH  21  25
ATOM     25  C3  non d ame     -13.196   9.530  71.253  0.00  0.00    -0.029 C 
ATOM     26  H2  non d ame     -13.444  10.431  71.814  0.00  0.00     0.036 H 
ATOM     27  H3  non d ame     -13.449   9.675  70.203  0.00  0.00     0.036 H 
ATOM     28  H4  non d ame     -13.763   8.687  71.650  0.00  0.00     0.036 H 
ENDBRANCH  21  25
ENDBRANCH  16  19
ENDBRANCH  13  15
BRANCH  13  29
ATOM     29  C8  non d ame      -6.245  10.549  67.998  0.00  0.00    -0.049 C 
ATOM     30  H7  non d ame      -5.271  10.842  67.604  0.00  0.00     0.030 H 
ATOM     31  H8  non d ame      -6.375   9.473  67.882  0.00  0.00     0.030 H 
ATOM     32  H9  non d ame      -7.029  11.071  67.449  0.00  0.00     0.030 H 
ENDBRANCH  13  29
ENDBRANCH  10  13
ENDBRANCH   7   9
BRANCH   7  33
ATOM     33  C11 non d ame      -4.666  15.133  67.672  0.00  0.00    -0.033 C 
ATOM     34  H12 non d ame      -5.070  14.900  66.688  0.00  0.00     0.042 H 
BRANCH  33  35
ATOM     35  C12 non d ame      -4.362  16.664  67.704  0.00  0.00    -0.071 C 
ATOM     36  H13 non d ame      -4.267  16.994  68.738  0.00  0.00     0.028 H 
ATOM     37  H14 non d ame      -3.432  16.860  67.173  0.00  0.00     0.028 H 
ATOM     38  H15 non d ame      -5.177  17.204  67.224  0.00  0.00     0.028 H 
ENDBRANCH  33  35
BRANCH  33  39
ATOM     39  C13 non d ame      -3.364  14.294  67.872  0.00  0.00    -0.071 C 
ATOM     40  H16 non d ame      -2.669  14.846  68.505  0.00  0.00     0.028 H 
ATOM     41  H17 non d ame      -3.612  13.344  68.348  0.00  0.00     0.028 H 
ATOM     42  H18 non d ame      -2.901  14.103  66.904  0.00  0.00     0.028 H 
ENDBRANCH  33  39
ENDBRANCH   7  33
ENDBRANCH   4   7
ENDBRANCH   1   3
BRANCH   1  43
ATOM     43  C15 non d ame      -9.705  15.819  65.897  0.00  0.00     0.240 C 
ATOM     44  O5  non d ame     -10.319  16.492  65.135  0.00  0.00    -0.271 OA
ATOM     45  N6  non d ame      -9.787  14.333  65.806  0.00  0.00    -0.355 N 
ATOM     46  H46 non d ame      -9.267  13.751  66.445  0.00  0.00     0.162 HD
BRANCH  45  47
ATOM     47  C20 non d ame     -10.638  13.708  64.771  0.00  0.00     0.013 C 
ATOM     48  H30 non d ame     -10.952  14.489  64.078  0.00  0.00     0.072 H 
BRANCH  47  49
ATOM     49  C21 non d ame     -11.849  13.085  65.427  0.00  0.00    -0.038 C 
ATOM     50  H31 non d ame     -12.700  13.373  64.810  0.00  0.00     0.036 H 
ATOM     51  H32 non d ame     -11.603  12.031  65.560  0.00  0.00     0.036 H 
BRANCH  49  52
ATOM     52  C22 non d ame     -12.123  13.650  66.838  0.00  0.00     0.018 C 
ATOM     53  H33 non d ame     -11.357  14.409  67.006  0.00  0.00     0.048 H 
ATOM     54  H34 non d ame     -13.176  13.929  66.846  0.00  0.00     0.048 H 
BRANCH  52  55
ATOM     55  C23 non d ame     -11.947  12.607  67.976  0.00  0.00     0.259 C 
ATOM     56  O7  non d ame     -11.916  11.445  67.729  0.00  0.00    -0.265 OA
BRANCH  55  57
ATOM     57  O8  non d ame     -11.837  13.055  69.322  0.00  0.00    -0.317 OA
BRANCH  57  58
ATOM     58  C29 non d ame     -11.630  14.465  69.450  0.00  0.00     0.052 C 
ATOM     59  H47 non d ame     -10.551  14.599  69.512  0.00  0.00     0.082 H 
ATOM     60  H48 non d ame     -12.190  14.920  68.634  0.00  0.00     0.082 H 
BRANCH  58  61
ATOM     61  C35 non d ame     -12.261  14.921  70.792  0.00  0.00    -0.034 A 
ATOM     62  C30 non d ame     -13.644  14.938  70.943  0.00  0.00    -0.075 A 
ATOM     63  C31 non d ame     -14.210  15.348  72.149  0.00  0.00    -0.082 A 
ATOM     64  H49 non d ame     -14.284  14.629  70.116  0.00  0.00     0.084 H 
ATOM     65  C32 non d ame     -13.387  15.746  73.206  0.00  0.00    -0.083 A 
ATOM     66  H50 non d ame     -15.294  15.357  72.264  0.00  0.00     0.083 H 
ATOM     67  C33 non d ame     -12.008  15.731  73.051  0.00  0.00    -0.082 A 
ATOM     68  H51 non d ame     -13.822  16.067  74.153  0.00  0.00     0.083 H 
ATOM     69  C34 non d ame     -11.438  15.319  71.847  0.00  0.00    -0.075 A 
ATOM     70  H52 non d ame     -11.369  16.044  73.877  0.00  0.00     0.083 H 
ATOM     71  H53 non d ame     -10.353  15.309  71.734  0.00  0.00     0.084 H 
ENDBRANCH  58  61
ENDBRANCH  57  58
ENDBRANCH  55  57
ENDBRANCH  52  55
ENDBRANCH  49  52
ENDBRANCH  47  49
BRANCH  47  72
ATOM     72  C24 non d ame      -9.847  12.631  64.033  0.00  0.00    -0.039 C 
ATOM     73  H35 non d ame     -10.366  12.487  63.085  0.00  0.00     0.036 H 
ATOM     74  H36 non d ame      -8.812  12.975  64.039  0.00  0.00     0.036 H 
BRANCH  72  75
ATOM     75  C25 non d ame      -9.884  11.230  64.809  0.00  0.00    -0.001 C 
ATOM     76  C26 non d ame      -8.365  10.812  65.281  0.00  0.00    -0.035 C 
ATOM     77  C27 non d ame      -8.115   9.545  64.871  0.00  0.00     0.085 C 
ATOM     78  H38 non d ame      -7.628  11.404  64.739  0.00  0.00     0.036 H 
ATOM     79  H39 non d ame      -8.316  10.742  66.367  0.00  0.00     0.036 H 
ATOM     80  N5  non d ame      -9.196   9.179  63.882  0.00  0.00    -0.049 N 
ATOM     81  H40 non d ame      -7.158   9.590  64.350  0.00  0.00     0.075 H 
ATOM     82  H41 non d ame      -8.223   8.925  65.760  0.00  0.00     0.075 H 
ATOM     83  C28 non d ame     -10.354  10.290  64.059  0.00  0.00     0.193 C 
ATOM     84  H42 non d ame      -8.790   9.281  62.964  0.00  0.00     0.280 HD
ATOM     85  H43 non d ame      -9.562   8.285  64.176  0.00  0.00     0.280 HD
ATOM     86  H44 non d ame     -11.274  10.053  64.591  0.00  0.00     0.129 H 
ATOM     87  H37 non d ame     -10.665  11.201  65.569  0.00  0.00     0.046 H 
BRANCH  83  88
ATOM     88  O6  non d ame     -10.768  10.779  62.781  0.00  0.00    -0.369 OA
ATOM     89  H45 non d ame     -10.366  10.247  62.090  0.00  0.00     0.212 HD
ENDBRANCH  83  88
ENDBRANCH  72  75
ENDBRANCH  47  72
ENDBRANCH  45  47
ENDBRANCH   1  43
BRANCH   1  90
ATOM     90  C16 non d ame      -8.383  17.869  66.504  0.00  0.00    -0.035 C 
ATOM     91  H21 non d ame      -7.330  17.953  66.778  0.00  0.00     0.037 H 
ATOM     92  H22 non d ame      -8.679  17.919  65.457  0.00  0.00     0.037 H 
BRANCH  90  93
ATOM     93  C17 non d ame      -9.121  19.041  67.227  0.00  0.00    -0.059 C 
ATOM     94  H23 non d ame      -8.367  19.763  67.539  0.00  0.00     0.038 H 
BRANCH  93  95
ATOM     95  C18 non d ame     -10.125  19.777  66.283  0.00  0.00    -0.073 C 
ATOM     96  H24 non d ame     -10.980  19.129  66.087  0.00  0.00     0.028 H 
ATOM     97  H25 non d ame     -10.467  20.694  66.762  0.00  0.00     0.028 H 
ATOM     98  H26 non d ame      -9.628  20.020  65.344  0.00  0.00     0.028 H 
ENDBRANCH  93  95
BRANCH  93  99
ATOM     99  C19 non d ame      -9.826  18.546  68.493  0.00  0.00    -0.073 C 
ATOM    100  H27 non d ame     -10.149  17.514  68.349  0.00  0.00     0.028 H 
ATOM    101  H28 non d ame      -9.137  18.597  69.336  0.00  0.00     0.028 H 
ATOM    102  H29 non d ame     -10.694  19.174  68.695  0.00  0.00     0.028 H 
ENDBRANCH  93  99
ENDBRANCH  90  93
ENDBRANCH   1  90
TORSDOF 26
ENDMDL
MODEL 3
REMARK VINA RESULT:      -6.8      2.640      7.908
REMARK  26 active torsions:
REMARK  status: ('A' for Active; 'I' for Inactive)
REMARK    1  A    between atoms: C2_2  and  C3_3 
REMARK    2  A    between atoms: C4_6  and  C5_7 
REMARK       I    between atoms: C5_7  and  N2_9 
REMARK    3  A    between atoms: N2_9  and  C6_10 
REMARK    4  A    between atoms: C6_10  and  C7_11 
REMARK    5  A    between atoms: C6_10  and  C8_13 
REMARK       I    between atoms: C7_11  and  N3_14 
REMARK    6  A    between atoms: N3_14  and  C9_15 
REMARK    7  A    between atoms: C9_15  and  C10_16 
REMARK    8  A    between atoms: C9_15  and  C11_18 
REMARK       I    between atoms: C10_16  and  N4_21 
REMARK    9  A    between atoms: C11_18  and  C12_19 
REMARK   10  A    between atoms: C11_18  and  C13_20 
REMARK   11  A    between atoms: N4_21  and  C14_22 
REMARK   12  A    between atoms: C14_22  and  C15_23 
REMARK   13  A    between atoms: C14_22  and  C16_25 
REMARK       I    between atoms: C15_23  and  N6_40 
REMARK   14  A    between atoms: C16_25  and  C17_26 
REMARK   15  A    between atoms: C17_26  and  C18_27 
REMARK   16  A    between atoms: C17_26  and  C19_28 
REMARK   17  A    between atoms: C20_29  and  C21_30 
REMARK   18  A    between atoms: C20_29  and  C24_33 
REMARK   19  A    between atoms: C20_29  and  N6_40 
REMARK   20  A    between atoms: C21_30  and  C22_31 
REMARK   21  A    between atoms: C22_31  and  C23_32 
REMARK   22  A    between atoms: C23_32  and  O8_43 
REMARK   23  A    between atoms: C24_33  and  C25_34 
REMARK   24  A    between atoms: C28_38  and  O6_39 
REMARK   25  A    between atoms: C29_42  and  O8_43 
REMARK   26  A    between atoms: C29_42  and  C35_49 
ROOT
ATOM      1  C14 non d ame      -8.227   8.775  68.208  0.00  0.00     0.089 C 
ATOM      2  H20 non d ame      -8.008   8.443  69.223  0.00  0.00     0.087 H 
ENDROOT
BRANCH   1   3
ATOM      3  N4  non d ame      -7.734  10.138  68.076  0.00  0.00    -0.346 N 
ATOM      4  C10 non d ame      -7.159  10.858  69.271  0.00  0.00     0.241 C 
ATOM      5  O4  non d ame      -7.106  10.320  70.328  0.00  0.00    -0.271 OA
ATOM      6  H19 non d ame      -7.790  10.579  67.170  0.00  0.00     0.163 HD
BRANCH   4   7
ATOM      7  C9  non d ame      -6.648  12.266  69.117  0.00  0.00     0.092 C 
ATOM      8  H11 non d ame      -6.202  12.380  68.128  0.00  0.00     0.088 H 
BRANCH   7   9
ATOM      9  N3  non d ame      -7.772  13.205  69.195  0.00  0.00    -0.346 N 
ATOM     10  C7  non d ame      -8.470  13.595  67.995  0.00  0.00     0.240 C 
ATOM     11  O3  non d ame      -8.142  13.164  66.957  0.00  0.00    -0.271 OA
ATOM     12  H10 non d ame      -8.067  13.586  70.083  0.00  0.00     0.163 HD
BRANCH  10  13
ATOM     13  C6  non d ame      -9.663  14.597  68.085  0.00  0.00     0.086 C 
ATOM     14  H6  non d ame     -10.503  14.311  67.451  0.00  0.00     0.086 H 
BRANCH  13  15
ATOM     15  N2  non d ame     -10.161  14.616  69.450  0.00  0.00    -0.343 N 
ATOM     16  C5  non d ame     -11.604  14.549  69.694  0.00  0.00     0.273 C 
ATOM     17  O2  non d ame     -12.355  14.484  68.784  0.00  0.00    -0.266 OA
ATOM     18  H5  non d ame      -9.512  14.675  70.222  0.00  0.00     0.163 HD
BRANCH  16  19
ATOM     19  C4  non d ame     -12.144  14.567  71.132  0.00  0.00     0.154 A 
ATOM     20  C1  non d ame     -11.730  15.425  72.201  0.00  0.00    -0.017 A 
ATOM     21  C2  non d ame     -12.526  15.043  73.302  0.00  0.00     0.077 A 
ATOM     22  H1  non d ame     -10.970  16.206  72.179  0.00  0.00     0.091 H 
ATOM     23  O1  non d ame     -13.304  14.080  72.903  0.00  0.00    -0.218 OA
ATOM     24  N1  non d ame     -13.099  13.784  71.640  0.00  0.00    -0.123 NA
BRANCH  21  25
ATOM     25  C3  non d ame     -12.483  15.650  74.699  0.00  0.00    -0.029 C 
ATOM     26  H2  non d ame     -12.733  16.709  74.643  0.00  0.00     0.036 H 
ATOM     27  H3  non d ame     -13.202  15.140  75.339  0.00  0.00     0.036 H 
ATOM     28  H4  non d ame     -11.481  15.534  75.115  0.00  0.00     0.036 H 
ENDBRANCH  21  25
ENDBRANCH  16  19
ENDBRANCH  13  15
BRANCH  13  29
ATOM     29  C8  non d ame      -9.198  15.974  67.686  0.00  0.00    -0.049 C 
ATOM     30  H7  non d ame      -8.544  15.899  66.816  0.00  0.00     0.030 H 
ATOM     31  H8  non d ame     -10.060  16.593  67.439  0.00  0.00     0.030 H 
ATOM     32  H9  non d ame      -8.650  16.426  68.513  0.00  0.00     0.030 H 
ENDBRANCH  13  29
ENDBRANCH  10  13
ENDBRANCH   7   9
BRANCH   7  33
ATOM     33  C11 non d ame      -5.635  12.578  70.256  0.00  0.00    -0.033 C 
ATOM     34  H12 non d ame      -5.808  11.860  71.056  0.00  0.00     0.042 H 
BRANCH  33  35
ATOM     35  C12 non d ame      -4.162  12.397  69.772  0.00  0.00    -0.071 C 
ATOM     36  H13 non d ame      -3.490  12.926  70.448  0.00  0.00     0.028 H 
ATOM     37  H14 non d ame      -3.910  11.337  69.766  0.00  0.00     0.028 H 
ATOM     38  H15 non d ame      -4.059  12.802  68.766  0.00  0.00     0.028 H 
ENDBRANCH  33  35
BRANCH  33  39
ATOM     39  C13 non d ame      -5.867  14.011  70.835  0.00  0.00    -0.071 C 
ATOM     40  H16 non d ame      -5.082  14.244  71.553  0.00  0.00     0.028 H 
ATOM     41  H17 non d ame      -5.845  14.739  70.023  0.00  0.00     0.028 H 
ATOM     42  H18 non d ame      -6.837  14.050  71.330  0.00  0.00     0.028 H 
ENDBRANCH  33  39
ENDBRANCH   7  33
ENDBRANCH   4   7
ENDBRANCH   1   3
BRANCH   1  43
ATOM     43  C15 non d ame      -7.528   7.891  67.136  0.00  0.00     0.240 C 
ATOM     44  O5  non d ame      -6.352   7.727  67.180  0.00  0.00    -0.271 OA
ATOM     45  N6  non d ame      -8.327   7.240  66.058  0.00  0.00    -0.355 N 
ATOM     46  H46 non d ame      -9.327   7.369  66.013  0.00  0.00     0.162 HD
BRANCH  45  47
ATOM     47  C20 non d ame      -7.648   6.403  65.047  0.00  0.00     0.013 C 
ATOM     48  H30 non d ame      -6.578   6.428  65.253  0.00  0.00     0.072 H 
BRANCH  47  49
ATOM     49  C21 non d ame      -7.920   6.961  63.669  0.00  0.00    -0.038 C 
ATOM     50  H31 non d ame      -7.346   6.341  62.981  0.00  0.00     0.036 H 
ATOM     51  H32 non d ame      -9.006   7.013  63.581  0.00  0.00     0.036 H 
BRANCH  49  52
ATOM     52  C22 non d ame      -7.399   8.404  63.494  0.00  0.00     0.018 C 
ATOM     53  H33 non d ame      -7.579   8.902  64.447  0.00  0.00     0.048 H 
ATOM     54  H34 non d ame      -6.382   8.307  63.114  0.00  0.00     0.048 H 
BRANCH  52  55
ATOM     55  C23 non d ame      -8.177   9.227  62.429  0.00  0.00     0.259 C 
ATOM     56  O7  non d ame      -7.933   9.101  61.273  0.00  0.00    -0.265 OA
BRANCH  55  57
ATOM     57  O8  non d ame      -9.178  10.145  62.853  0.00  0.00    -0.317 OA
BRANCH  57  58
ATOM     58  C29 non d ame      -9.204  10.364  64.267  0.00  0.00     0.052 C 
ATOM     59  H47 non d ame      -9.439   9.398  64.711  0.00  0.00     0.082 H 
ATOM     60  H48 non d ame      -8.263  10.859  64.506  0.00  0.00     0.082 H 
BRANCH  58  61
ATOM     61  C35 non d ame     -10.367  11.344  64.577  0.00  0.00    -0.034 A 
ATOM     62  C30 non d ame     -10.928  12.106  63.557  0.00  0.00    -0.075 A 
ATOM     63  C31 non d ame     -11.973  12.986  63.837  0.00  0.00    -0.082 A 
ATOM     64  H49 non d ame     -10.551  12.012  62.539  0.00  0.00     0.084 H 
ATOM     65  C32 non d ame     -12.453  13.106  65.143  0.00  0.00    -0.083 A 
ATOM     66  H50 non d ame     -12.413  13.578  63.034  0.00  0.00     0.083 H 
ATOM     67  C33 non d ame     -11.887  12.347  66.159  0.00  0.00    -0.082 A 
ATOM     68  H51 non d ame     -13.270  13.791  65.370  0.00  0.00     0.083 H 
ATOM     69  C34 non d ame     -10.845  11.465  65.883  0.00  0.00    -0.075 A 
ATOM     70  H52 non d ame     -12.264  12.445  67.178  0.00  0.00     0.083 H 
ATOM     71  H53 non d ame     -10.407  10.871  66.687  0.00  0.00     0.084 H 
ENDBRANCH  58  61
ENDBRANCH  57  58
ENDBRANCH  55  57
ENDBRANCH  52  55
ENDBRANCH  49  52
ENDBRANCH  47  49
BRANCH  47  72
ATOM     72  C24 non d ame      -8.170   4.970  65.129  0.00  0.00    -0.039 C 
ATOM     73  H35 non d ame      -9.059   4.949  64.498  0.00  0.00     0.036 H 
ATOM     74  H36 non d ame      -7.316   4.335  64.888  0.00  0.00     0.036 H 
BRANCH  72  75
ATOM     75  C25 non d ame      -8.636   4.592  66.614  0.00  0.00    -0.001 C 
ATOM     76  C26 non d ame      -7.524   3.603  67.315  0.00  0.00    -0.035 C 
ATOM     77  C27 non d ame      -8.160   2.516  67.813  0.00  0.00     0.085 C 
ATOM     78  H38 non d ame      -6.863   3.186  66.556  0.00  0.00     0.036 H 
ATOM     79  H39 non d ame      -7.104   4.080  68.200  0.00  0.00     0.036 H 
ATOM     80  N5  non d ame      -9.553   2.514  67.230  0.00  0.00    -0.049 N 
ATOM     81  H40 non d ame      -7.613   1.655  67.426  0.00  0.00     0.075 H 
ATOM     82  H41 non d ame      -8.225   2.683  68.887  0.00  0.00     0.075 H 
ATOM     83  C28 non d ame      -9.776   3.987  66.608  0.00  0.00     0.193 C 
ATOM     84  H42 non d ame      -9.547   1.844  66.476  0.00  0.00     0.280 HD
ATOM     85  H43 non d ame     -10.188   2.394  68.007  0.00  0.00     0.280 HD
ATOM     86  H44 non d ame     -10.393   4.721  67.127  0.00  0.00     0.129 H 
ATOM     87  H37 non d ame      -8.949   5.467  67.184  0.00  0.00     0.046 H 
BRANCH  83  88
ATOM     88  O6  non d ame     -10.326   3.889  65.293  0.00  0.00    -0.369 OA
ATOM     89  H45 non d ame     -10.139   4.696  64.807  0.00  0.00     0.212 HD
ENDBRANCH  83  88
ENDBRANCH  72  75
ENDBRANCH  47  72
ENDBRANCH  45  47
ENDBRANCH   1  43
BRANCH   1  90
ATOM     90  C16 non d ame      -9.729   8.767  67.976  0.00  0.00    -0.035 C 
ATOM     91  H21 non d ame      -9.953   9.722  67.499  0.00  0.00     0.037 H 
ATOM     92  H22 non d ame      -9.936   7.834  67.452  0.00  0.00     0.037 H 
BRANCH  90  93
ATOM     93  C17 non d ame     -10.567   8.726  69.294  0.00  0.00    -0.059 C 
ATOM     94  H23 non d ame     -11.482   8.173  69.087  0.00  0.00     0.038 H 
BRANCH  93  95
ATOM     95  C18 non d ame      -9.815   7.988  70.448  0.00  0.00    -0.073 C 
ATOM     96  H24 non d ame      -8.901   8.530  70.690  0.00  0.00     0.028 H 
ATOM     97  H25 non d ame     -10.456   7.944  71.328  0.00  0.00     0.028 H 
ATOM     98  H26 non d ame      -9.565   6.976  70.129  0.00  0.00     0.028 H 
ENDBRANCH  93  95
BRANCH  93  99
ATOM     99  C19 non d ame     -10.976  10.137  69.726  0.00  0.00    -0.073 C 
ATOM    100  H27 non d ame     -10.206  10.847  69.422  0.00  0.00     0.028 H 
ATOM    101  H28 non d ame     -11.922  10.400  69.253  0.00  0.00     0.028 H 
ATOM    102  H29 non d ame     -11.092  10.166  70.810  0.00  0.00     0.028 H 
ENDBRANCH  93  99
ENDBRANCH  90  93
ENDBRANCH   1  90
TORSDOF 26
ENDMDL
MODEL 4
REMARK VINA RESULT:      -6.8      2.279      5.953
REMARK  26 active torsions:
REMARK  status: ('A' for Active; 'I' for Inactive)
REMARK    1  A    between atoms: C2_2  and  C3_3 
REMARK    2  A    between atoms: C4_6  and  C5_7 
REMARK       I    between atoms: C5_7  and  N2_9 
REMARK    3  A    between atoms: N2_9  and  C6_10 
REMARK    4  A    between atoms: C6_10  and  C7_11 
REMARK    5  A    between atoms: C6_10  and  C8_13 
REMARK       I    between atoms: C7_11  and  N3_14 
REMARK    6  A    between atoms: N3_14  and  C9_15 
REMARK    7  A    between atoms: C9_15  and  C10_16 
REMARK    8  A    between atoms: C9_15  and  C11_18 
REMARK       I    between atoms: C10_16  and  N4_21 
REMARK    9  A    between atoms: C11_18  and  C12_19 
REMARK   10  A    between atoms: C11_18  and  C13_20 
REMARK   11  A    between atoms: N4_21  and  C14_22 
REMARK   12  A    between atoms: C14_22  and  C15_23 
REMARK   13  A    between atoms: C14_22  and  C16_25 
REMARK       I    between atoms: C15_23  and  N6_40 
REMARK   14  A    between atoms: C16_25  and  C17_26 
REMARK   15  A    between atoms: C17_26  and  C18_27 
REMARK   16  A    between atoms: C17_26  and  C19_28 
REMARK   17  A    between atoms: C20_29  and  C21_30 
REMARK   18  A    between atoms: C20_29  and  C24_33 
REMARK   19  A    between atoms: C20_29  and  N6_40 
REMARK   20  A    between atoms: C21_30  and  C22_31 
REMARK   21  A    between atoms: C22_31  and  C23_32 
REMARK   22  A    between atoms: C23_32  and  O8_43 
REMARK   23  A    between atoms: C24_33  and  C25_34 
REMARK   24  A    between atoms: C28_38  and  O6_39 
REMARK   25  A    between atoms: C29_42  and  O8_43 
REMARK   26  A    between atoms: C29_42  and  C35_49 
ROOT
ATOM      1  C14 non d ame      -8.826  10.077  64.871  0.00  0.00     0.089 C 
ATOM      2  H20 non d ame      -7.766  10.268  65.046  0.00  0.00     0.087 H 
ENDROOT
BRANCH   1   3
ATOM      3  N4  non d ame      -9.187   8.887  65.627  0.00  0.00    -0.346 N 
ATOM      4  C10 non d ame      -8.163   8.192  66.490  0.00  0.00     0.241 C 
ATOM      5  O4  non d ame      -7.053   8.609  66.557  0.00  0.00    -0.271 OA
ATOM      6  H19 non d ame     -10.135   8.546  65.554  0.00  0.00     0.163 HD
BRANCH   4   7
ATOM      7  C9  non d ame      -8.554   6.965  67.269  0.00  0.00     0.092 C 
ATOM      8  H11 non d ame      -7.735   6.246  67.244  0.00  0.00     0.088 H 
BRANCH   7   9
ATOM      9  N3  non d ame      -8.770   7.326  68.674  0.00  0.00    -0.346 N 
ATOM     10  C7  non d ame      -7.818   6.917  69.677  0.00  0.00     0.240 C 
ATOM     11  O3  non d ame      -6.873   6.297  69.373  0.00  0.00    -0.271 OA
ATOM     12  H10 non d ame      -9.581   7.860  68.952  0.00  0.00     0.163 HD
BRANCH  10  13
ATOM     13  C6  non d ame      -8.055   7.302  71.171  0.00  0.00     0.086 C 
ATOM     14  H6  non d ame      -7.692   8.301  71.412  0.00  0.00     0.086 H 
BRANCH  13  15
ATOM     15  N2  non d ame      -9.484   7.304  71.437  0.00  0.00    -0.343 N 
ATOM     16  C5  non d ame     -10.251   8.538  71.253  0.00  0.00     0.273 C 
ATOM     17  O2  non d ame      -9.708   9.525  70.895  0.00  0.00    -0.266 OA
ATOM     18  H5  non d ame      -9.940   6.457  71.745  0.00  0.00     0.163 HD
BRANCH  16  19
ATOM     19  C4  non d ame     -11.762   8.554  71.529  0.00  0.00     0.154 A 
ATOM     20  C1  non d ame     -12.667   7.448  71.453  0.00  0.00    -0.017 A 
ATOM     21  C2  non d ame     -13.927   7.985  71.797  0.00  0.00     0.077 A 
ATOM     22  H1  non d ame     -12.443   6.414  71.189  0.00  0.00     0.091 H 
ATOM     23  O1  non d ame     -13.755   9.250  72.043  0.00  0.00    -0.218 OA
ATOM     24  N1  non d ame     -12.500   9.606  71.893  0.00  0.00    -0.123 NA
BRANCH  21  25
ATOM     25  C3  non d ame     -15.243   7.221  71.869  0.00  0.00    -0.029 C 
ATOM     26  H2  non d ame     -15.446   6.754  70.905  0.00  0.00     0.036 H 
ATOM     27  H3  non d ame     -15.175   6.452  72.638  0.00  0.00     0.036 H 
ATOM     28  H4  non d ame     -16.051   7.911  72.116  0.00  0.00     0.036 H 
ENDBRANCH  21  25
ENDBRANCH  16  19
ENDBRANCH  13  15
BRANCH  13  29
ATOM     29  C8  non d ame      -7.365   6.304  72.066  0.00  0.00    -0.049 C 
ATOM     30  H7  non d ame      -6.309   6.248  71.801  0.00  0.00     0.030 H 
ATOM     31  H8  non d ame      -7.464   6.616  73.105  0.00  0.00     0.030 H 
ATOM     32  H9  non d ame      -7.823   5.323  71.936  0.00  0.00     0.030 H 
ENDBRANCH  13  29
ENDBRANCH  10  13
ENDBRANCH   7   9
BRANCH   7  33
ATOM     33  C11 non d ame      -9.869   6.374  66.681  0.00  0.00    -0.033 C 
ATOM     34  H12 non d ame     -10.240   7.076  65.935  0.00  0.00     0.042 H 
BRANCH  33  35
ATOM     35  C12 non d ame      -9.608   5.016  65.958  0.00  0.00    -0.071 C 
ATOM     36  H13 non d ame      -8.789   4.493  66.452  0.00  0.00     0.028 H 
ATOM     37  H14 non d ame     -10.508   4.403  66.001  0.00  0.00     0.028 H 
ATOM     38  H15 non d ame      -9.345   5.204  64.918  0.00  0.00     0.028 H 
ENDBRANCH  33  35
BRANCH  33  39
ATOM     39  C13 non d ame     -10.960   6.225  67.789  0.00  0.00    -0.071 C 
ATOM     40  H16 non d ame     -11.940   6.447  67.367  0.00  0.00     0.028 H 
ATOM     41  H17 non d ame     -10.953   5.203  68.171  0.00  0.00     0.028 H 
ATOM     42  H18 non d ame     -10.749   6.918  68.603  0.00  0.00     0.028 H 
ENDBRANCH  33  39
ENDBRANCH   7  33
ENDBRANCH   4   7
ENDBRANCH   1   3
BRANCH   1  43
ATOM     43  C15 non d ame      -9.722  11.255  65.347  0.00  0.00     0.240 C 
ATOM     44  O5  non d ame     -10.905  11.167  65.271  0.00  0.00    -0.271 OA
ATOM     45  N6  non d ame      -9.106  12.492  65.906  0.00  0.00    -0.355 N 
ATOM     46  H46 non d ame      -8.103  12.577  65.980  0.00  0.00     0.162 HD
BRANCH  45  47
ATOM     47  C20 non d ame      -9.972  13.603  66.355  0.00  0.00     0.013 C 
ATOM     48  H30 non d ame     -10.965  13.446  65.935  0.00  0.00     0.072 H 
BRANCH  47  49
ATOM     49  C21 non d ame      -9.403  14.913  65.859  0.00  0.00    -0.038 C 
ATOM     50  H31 non d ame      -8.959  15.391  66.731  0.00  0.00     0.036 H 
ATOM     51  H32 non d ame      -8.781  14.657  65.001  0.00  0.00     0.036 H 
BRANCH  49  52
ATOM     52  C22 non d ame     -10.490  15.879  65.338  0.00  0.00     0.018 C 
ATOM     53  H33 non d ame     -10.197  16.131  64.318  0.00  0.00     0.048 H 
ATOM     54  H34 non d ame     -11.441  15.381  65.523  0.00  0.00     0.048 H 
BRANCH  52  55
ATOM     55  C23 non d ame     -10.553  17.226  66.110  0.00  0.00     0.259 C 
ATOM     56  O7  non d ame     -10.535  18.259  65.523  0.00  0.00    -0.265 OA
BRANCH  55  57
ATOM     57  O8  non d ame     -10.618  17.212  67.531  0.00  0.00    -0.317 OA
BRANCH  57  58
ATOM     58  C29 non d ame     -10.093  18.392  68.149  0.00  0.00     0.052 C 
ATOM     59  H47 non d ame     -10.098  19.157  67.374  0.00  0.00     0.082 H 
ATOM     60  H48 non d ame     -10.678  18.533  69.057  0.00  0.00     0.082 H 
BRANCH  58  61
ATOM     61  C35 non d ame      -8.622  18.107  68.552  0.00  0.00    -0.034 A 
ATOM     62  C30 non d ame      -8.205  16.802  68.792  0.00  0.00    -0.075 A 
ATOM     63  C31 non d ame      -6.883  16.547  69.154  0.00  0.00    -0.082 A 
ATOM     64  H49 non d ame      -8.913  15.979  68.695  0.00  0.00     0.084 H 
ATOM     65  C32 non d ame      -5.977  17.603  69.279  0.00  0.00    -0.083 A 
ATOM     66  H50 non d ame      -6.558  15.522  69.338  0.00  0.00     0.083 H 
ATOM     67  C33 non d ame      -6.399  18.905  69.042  0.00  0.00    -0.082 A 
ATOM     68  H51 non d ame      -4.942  17.412  69.561  0.00  0.00     0.083 H 
ATOM     69  C34 non d ame      -7.719  19.164  68.678  0.00  0.00    -0.075 A 
ATOM     70  H52 non d ame      -5.690  19.727  69.143  0.00  0.00     0.083 H 
ATOM     71  H53 non d ame      -8.042  20.189  68.492  0.00  0.00     0.084 H 
ENDBRANCH  58  61
ENDBRANCH  57  58
ENDBRANCH  55  57
ENDBRANCH  52  55
ENDBRANCH  49  52
ENDBRANCH  47  49
BRANCH  47  72
ATOM     72  C24 non d ame     -10.039  13.621  67.881  0.00  0.00    -0.039 C 
ATOM     73  H35 non d ame      -9.283  12.908  68.213  0.00  0.00     0.036 H 
ATOM     74  H36 non d ame      -9.957  14.671  68.163  0.00  0.00     0.036 H 
BRANCH  72  75
ATOM     75  C25 non d ame     -11.453  13.097  68.420  0.00  0.00    -0.001 C 
ATOM     76  C26 non d ame     -12.052  14.148  69.533  0.00  0.00    -0.035 C 
ATOM     77  C27 non d ame     -12.395  13.455  70.646  0.00  0.00     0.085 C 
ATOM     78  H38 non d ame     -11.264  14.815  69.880  0.00  0.00     0.036 H 
ATOM     79  H39 non d ame     -13.001  14.558  69.188  0.00  0.00     0.036 H 
ATOM     80  N5  non d ame     -11.781  12.081  70.517  0.00  0.00    -0.049 N 
ATOM     81  H40 non d ame     -11.918  13.981  71.474  0.00  0.00     0.075 H 
ATOM     82  H41 non d ame     -13.479  13.364  70.610  0.00  0.00     0.075 H 
ATOM     83  C28 non d ame     -11.343  11.934  68.971  0.00  0.00     0.193 C 
ATOM     84  H42 non d ame     -10.949  12.085  71.089  0.00  0.00     0.280 HD
ATOM     85  H43 non d ame     -12.521  11.419  70.705  0.00  0.00     0.280 HD
ATOM     86  H44 non d ame     -11.933  11.331  68.282  0.00  0.00     0.129 H 
ATOM     87  H37 non d ame     -12.119  12.800  67.609  0.00  0.00     0.046 H 
BRANCH  83  88
ATOM     88  O6  non d ame     -10.012  11.421  68.882  0.00  0.00    -0.369 OA
ATOM     89  H45 non d ame      -9.975  10.746  68.200  0.00  0.00     0.212 HD
ENDBRANCH  83  88
ENDBRANCH  72  75
ENDBRANCH  47  72
ENDBRANCH  45  47
ENDBRANCH   1  43
BRANCH   1  90
ATOM     90  C16 non d ame      -9.064   9.816  63.393  0.00  0.00    -0.035 C 
ATOM     91  H21 non d ame      -9.434   8.791  63.336  0.00  0.00     0.037 H 
ATOM     92  H22 non d ame      -9.691  10.641  63.052  0.00  0.00     0.037 H 
BRANCH  90  93
ATOM     93  C17 non d ame      -7.764   9.864  62.530  0.00  0.00    -0.059 C 
ATOM     94  H23 non d ame      -7.660   8.899  62.035  0.00  0.00     0.038 H 
BRANCH  93  95
ATOM     95  C18 non d ame      -7.832  10.962  61.420  0.00  0.00    -0.073 C 
ATOM     96  H24 non d ame      -7.633  10.510  60.449  0.00  0.00     0.028 H 
ATOM     97  H25 non d ame      -8.825  11.412  61.415  0.00  0.00     0.028 H 
ATOM     98  H26 non d ame      -7.086  11.731  61.624  0.00  0.00     0.028 H 
ENDBRANCH  93  95
BRANCH  93  99
ATOM     99  C19 non d ame      -6.528  10.058  63.412  0.00  0.00    -0.073 C 
ATOM    100  H27 non d ame      -5.647   9.678  62.893  0.00  0.00     0.028 H 
ATOM    101  H28 non d ame      -6.396  11.120  63.623  0.00  0.00     0.028 H 
ATOM    102  H29 non d ame      -6.661   9.517  64.349  0.00  0.00     0.028 H 
ENDBRANCH  93  99
ENDBRANCH  90  93
ENDBRANCH   1  90
TORSDOF 26
ENDMDL
MODEL 5
REMARK VINA RESULT:      -6.8      2.542      8.456
REMARK  26 active torsions:
REMARK  status: ('A' for Active; 'I' for Inactive)
REMARK    1  A    between atoms: C2_2  and  C3_3 
REMARK    2  A    between atoms: C4_6  and  C5_7 
REMARK       I    between atoms: C5_7  and  N2_9 
REMARK    3  A    between atoms: N2_9  and  C6_10 
REMARK    4  A    between atoms: C6_10  and  C7_11 
REMARK    5  A    between atoms: C6_10  and  C8_13 
REMARK       I    between atoms: C7_11  and  N3_14 
REMARK    6  A    between atoms: N3_14  and  C9_15 
REMARK    7  A    between atoms: C9_15  and  C10_16 
REMARK    8  A    between atoms: C9_15  and  C11_18 
REMARK       I    between atoms: C10_16  and  N4_21 
REMARK    9  A    between atoms: C11_18  and  C12_19 
REMARK   10  A    between atoms: C11_18  and  C13_20 
REMARK   11  A    between atoms: N4_21  and  C14_22 
REMARK   12  A    between atoms: C14_22  and  C15_23 
REMARK   13  A    between atoms: C14_22  and  C16_25 
REMARK       I    between atoms: C15_23  and  N6_40 
REMARK   14  A    between atoms: C16_25  and  C17_26 
REMARK   15  A    between atoms: C17_26  and  C18_27 
REMARK   16  A    between atoms: C17_26  and  C19_28 
REMARK   17  A    between atoms: C20_29  and  C21_30 
REMARK   18  A    between atoms: C20_29  and  C24_33 
REMARK   19  A    between atoms: C20_29  and  N6_40 
REMARK   20  A    between atoms: C21_30  and  C22_31 
REMARK   21  A    between atoms: C22_31  and  C23_32 
REMARK   22  A    between atoms: C23_32  and  O8_43 
REMARK   23  A    between atoms: C24_33  and  C25_34 
REMARK   24  A    between atoms: C28_38  and  O6_39 
REMARK   25  A    between atoms: C29_42  and  O8_43 
REMARK   26  A    between atoms: C29_42  and  C35_49 
ROOT
ATOM      1  C14 non d ame      -5.744  13.095  68.189  0.00  0.00     0.089 C 
ATOM      2  H20 non d ame      -4.657  13.185  68.233  0.00  0.00     0.087 H 
ENDROOT
BRANCH   1   3
ATOM      3  N4  non d ame      -6.285  14.431  67.989  0.00  0.00    -0.346 N 
ATOM      4  C10 non d ame      -5.380  15.567  67.581  0.00  0.00     0.241 C 
ATOM      5  O4  non d ame      -4.218  15.381  67.422  0.00  0.00    -0.271 OA
ATOM      6  H19 non d ame      -7.275  14.570  68.132  0.00  0.00     0.163 HD
BRANCH   4   7
ATOM      7  C9  non d ame      -5.957  16.942  67.373  0.00  0.00     0.092 C 
ATOM      8  H11 non d ame      -5.717  17.284  66.366  0.00  0.00     0.088 H 
BRANCH   7   9
ATOM      9  N3  non d ame      -7.419  16.879  67.470  0.00  0.00    -0.346 N 
ATOM     10  C7  non d ame      -8.236  17.440  66.424  0.00  0.00     0.240 C 
ATOM     11  O3  non d ame      -7.735  17.948  65.495  0.00  0.00    -0.271 OA
ATOM     12  H10 non d ame      -7.866  16.444  68.265  0.00  0.00     0.163 HD
BRANCH  10  13
ATOM     13  C6  non d ame      -9.791  17.372  66.535  0.00  0.00     0.086 C 
ATOM     14  H6  non d ame     -10.227  16.604  65.895  0.00  0.00     0.086 H 
BRANCH  13  15
ATOM     15  N2  non d ame     -10.151  17.028  67.901  0.00  0.00    -0.343 N 
ATOM     16  C5  non d ame     -11.053  15.900  68.148  0.00  0.00     0.273 C 
ATOM     17  O2  non d ame     -11.485  15.279  67.241  0.00  0.00    -0.266 OA
ATOM     18  H5  non d ame      -9.779  17.567  68.670  0.00  0.00     0.163 HD
BRANCH  16  19
ATOM     19  C4  non d ame     -11.440  15.526  69.586  0.00  0.00     0.154 A 
ATOM     20  C1  non d ame     -12.749  15.219  70.078  0.00  0.00    -0.017 A 
ATOM     21  C2  non d ame     -12.567  14.944  71.451  0.00  0.00     0.077 A 
ATOM     22  H1  non d ame     -13.687  15.198  69.522  0.00  0.00     0.091 H 
ATOM     23  O1  non d ame     -11.298  15.078  71.708  0.00  0.00    -0.218 OA
ATOM     24  N1  non d ame     -10.620  15.417  70.635  0.00  0.00    -0.123 NA
BRANCH  21  25
ATOM     25  C3  non d ame     -13.654  14.561  72.446  0.00  0.00    -0.029 C 
ATOM     26  H2  non d ame     -13.431  15.001  73.417  0.00  0.00     0.036 H 
ATOM     27  H3  non d ame     -14.617  14.930  72.092  0.00  0.00     0.036 H 
ATOM     28  H4  non d ame     -13.694  13.474  72.539  0.00  0.00     0.036 H 
ENDBRANCH  21  25
ENDBRANCH  16  19
ENDBRANCH  13  15
BRANCH  13  29
ATOM     29  C8  non d ame     -10.384  18.708  66.166  0.00  0.00    -0.049 C 
ATOM     30  H7  non d ame      -9.626  19.484  66.277  0.00  0.00     0.030 H 
ATOM     31  H8  non d ame     -10.728  18.681  65.132  0.00  0.00     0.030 H 
ATOM     32  H9  non d ame     -11.225  18.927  66.824  0.00  0.00     0.030 H 
ENDBRANCH  13  29
ENDBRANCH  10  13
ENDBRANCH   7   9
BRANCH   7  33
ATOM     33  C11 non d ame      -5.408  17.906  68.465  0.00  0.00    -0.033 C 
ATOM     34  H12 non d ame      -4.321  17.863  68.425  0.00  0.00     0.042 H 
BRANCH  33  35
ATOM     35  C12 non d ame      -5.830  19.382  68.186  0.00  0.00    -0.071 C 
ATOM     36  H13 non d ame      -6.204  19.466  67.165  0.00  0.00     0.028 H 
ATOM     37  H14 non d ame      -6.613  19.675  68.885  0.00  0.00     0.028 H 
ATOM     38  H15 non d ame      -4.967  20.035  68.311  0.00  0.00     0.028 H 
ENDBRANCH  33  35
BRANCH  33  39
ATOM     39  C13 non d ame      -5.858  17.449  69.890  0.00  0.00    -0.071 C 
ATOM     40  H16 non d ame      -6.942  17.347  69.914  0.00  0.00     0.028 H 
ATOM     41  H17 non d ame      -5.398  16.489  70.127  0.00  0.00     0.028 H 
ATOM     42  H18 non d ame      -5.547  18.192  70.625  0.00  0.00     0.028 H 
ENDBRANCH  33  39
ENDBRANCH   7  33
ENDBRANCH   4   7
ENDBRANCH   1   3
BRANCH   1  43
ATOM     43  C15 non d ame      -6.213  12.191  67.014  0.00  0.00     0.240 C 
ATOM     44  O5  non d ame      -5.421  11.790  66.224  0.00  0.00    -0.271 OA
ATOM     45  N6  non d ame      -7.650  11.817  66.879  0.00  0.00    -0.355 N 
ATOM     46  H46 non d ame      -8.331  12.148  67.547  0.00  0.00     0.162 HD
BRANCH  45  47
ATOM     47  C20 non d ame      -8.080  10.956  65.757  0.00  0.00     0.013 C 
ATOM     48  H30 non d ame      -7.428  11.160  64.908  0.00  0.00     0.072 H 
BRANCH  47  49
ATOM     49  C21 non d ame      -9.512  11.280  65.397  0.00  0.00    -0.038 C 
ATOM     50  H31 non d ame      -9.572  12.368  65.379  0.00  0.00     0.036 H 
ATOM     51  H32 non d ame      -9.727  10.707  64.495  0.00  0.00     0.036 H 
BRANCH  49  52
ATOM     52  C22 non d ame     -10.521  10.806  66.466  0.00  0.00     0.018 C 
ATOM     53  H33 non d ame     -10.975   9.901  66.062  0.00  0.00     0.048 H 
ATOM     54  H34 non d ame      -9.963  10.764  67.401  0.00  0.00     0.048 H 
BRANCH  52  55
ATOM     55  C23 non d ame     -11.691  11.800  66.709  0.00  0.00     0.259 C 
ATOM     56  O7  non d ame     -12.246  12.313  65.792  0.00  0.00    -0.265 OA
BRANCH  55  57
ATOM     57  O8  non d ame     -12.083  12.102  68.042  0.00  0.00    -0.317 OA
BRANCH  57  58
ATOM     58  C29 non d ame     -11.039  11.935  69.007  0.00  0.00     0.052 C 
ATOM     59  H47 non d ame     -10.202  11.499  68.464  0.00  0.00     0.082 H 
ATOM     60  H48 non d ame     -10.929  12.905  69.491  0.00  0.00     0.082 H 
BRANCH  58  61
ATOM     61  C35 non d ame     -11.526  10.911  70.066  0.00  0.00    -0.034 A 
ATOM     62  C30 non d ame     -12.625  11.204  70.867  0.00  0.00    -0.075 A 
ATOM     63  C31 non d ame     -13.062  10.284  71.819  0.00  0.00    -0.082 A 
ATOM     64  H49 non d ame     -13.145  12.156  70.749  0.00  0.00     0.084 H 
ATOM     65  C32 non d ame     -12.392   9.066  71.970  0.00  0.00    -0.083 A 
ATOM     66  H50 non d ame     -13.925  10.516  72.442  0.00  0.00     0.083 H 
ATOM     67  C33 non d ame     -11.294   8.779  71.171  0.00  0.00    -0.082 A 
ATOM     68  H51 non d ame     -12.728   8.341  72.711  0.00  0.00     0.083 H 
ATOM     69  C34 non d ame     -10.856   9.696  70.218  0.00  0.00    -0.075 A 
ATOM     70  H52 non d ame     -10.773   7.829  71.294  0.00  0.00     0.083 H 
ATOM     71  H53 non d ame      -9.993   9.462  69.593  0.00  0.00     0.084 H 
ENDBRANCH  58  61
ENDBRANCH  57  58
ENDBRANCH  55  57
ENDBRANCH  52  55
ENDBRANCH  49  52
ENDBRANCH  47  49
BRANCH  47  72
ATOM     72  C24 non d ame      -7.977   9.487  66.164  0.00  0.00    -0.039 C 
ATOM     73  H35 non d ame      -7.275   9.467  66.999  0.00  0.00     0.036 H 
ATOM     74  H36 non d ame      -9.004   9.153  66.309  0.00  0.00     0.036 H 
BRANCH  72  75
ATOM     75  C25 non d ame      -7.348   8.590  64.996  0.00  0.00    -0.001 C 
ATOM     76  C26 non d ame      -7.013   9.528  63.688  0.00  0.00    -0.035 C 
ATOM     77  C27 non d ame      -7.566   8.958  62.590  0.00  0.00     0.085 C 
ATOM     78  H38 non d ame      -7.534  10.482  63.769  0.00  0.00     0.036 H 
ATOM     79  H39 non d ame      -5.945   9.507  63.475  0.00  0.00     0.036 H 
ATOM     80  N5  non d ame      -8.520   7.895  63.078  0.00  0.00    -0.049 N 
ATOM     81  H40 non d ame      -8.135   9.751  62.105  0.00  0.00     0.075 H 
ATOM     82  H41 non d ame      -6.740   8.480  62.064  0.00  0.00     0.075 H 
ATOM     83  C28 non d ame      -8.161   7.655  64.633  0.00  0.00     0.193 C 
ATOM     84  H42 non d ame      -9.446   8.292  63.019  0.00  0.00     0.280 HD
ATOM     85  H43 non d ame      -8.298   7.054  62.565  0.00  0.00     0.280 HD
ATOM     86  H44 non d ame      -7.602   6.773  64.944  0.00  0.00     0.129 H 
ATOM     87  H37 non d ame      -6.549   7.942  65.359  0.00  0.00     0.046 H 
BRANCH  83  88
ATOM     88  O6  non d ame      -9.355   7.646  65.419  0.00  0.00    -0.369 OA
ATOM     89  H45 non d ame     -10.084   7.313  64.890  0.00  0.00     0.212 HD
ENDBRANCH  83  88
ENDBRANCH  72  75
ENDBRANCH  47  72
ENDBRANCH  45  47
ENDBRANCH   1  43
BRANCH   1  90
ATOM     90  C16 non d ame      -6.268  12.540  69.503  0.00  0.00    -0.035 C 
ATOM     91  H21 non d ame      -7.160  13.126  69.729  0.00  0.00     0.037 H 
ATOM     92  H22 non d ame      -6.348  11.464  69.350  0.00  0.00     0.037 H 
BRANCH  90  93
ATOM     93  C17 non d ame      -5.291  12.743  70.704  0.00  0.00    -0.059 C 
ATOM     94  H23 non d ame      -5.375  11.870  71.350  0.00  0.00     0.038 H 
BRANCH  93  95
ATOM     95  C18 non d ame      -3.802  12.851  70.242  0.00  0.00    -0.073 C 
ATOM     96  H24 non d ame      -3.641  12.201  69.382  0.00  0.00     0.028 H 
ATOM     97  H25 non d ame      -3.583  13.882  69.964  0.00  0.00     0.028 H 
ATOM     98  H26 non d ame      -3.146  12.546  71.057  0.00  0.00     0.028 H 
ENDBRANCH  93  95
BRANCH  93  99
ATOM     99  C19 non d ame      -5.693  13.964  71.536  0.00  0.00    -0.073 C 
ATOM    100  H27 non d ame      -5.875  13.657  72.567  0.00  0.00     0.028 H 
ATOM    101  H28 non d ame      -4.888  14.699  71.512  0.00  0.00     0.028 H 
ATOM    102  H29 non d ame      -6.599  14.405  71.122  0.00  0.00     0.028 H 
ENDBRANCH  93  99
ENDBRANCH  90  93
ENDBRANCH   1  90
TORSDOF 26
ENDMDL
MODEL 6
REMARK VINA RESULT:      -6.7      2.524      7.576
REMARK  26 active torsions:
REMARK  status: ('A' for Active; 'I' for Inactive)
REMARK    1  A    between atoms: C2_2  and  C3_3 
REMARK    2  A    between atoms: C4_6  and  C5_7 
REMARK       I    between atoms: C5_7  and  N2_9 
REMARK    3  A    between atoms: N2_9  and  C6_10 
REMARK    4  A    between atoms: C6_10  and  C7_11 
REMARK    5  A    between atoms: C6_10  and  C8_13 
REMARK       I    between atoms: C7_11  and  N3_14 
REMARK    6  A    between atoms: N3_14  and  C9_15 
REMARK    7  A    between atoms: C9_15  and  C10_16 
REMARK    8  A    between atoms: C9_15  and  C11_18 
REMARK       I    between atoms: C10_16  and  N4_21 
REMARK    9  A    between atoms: C11_18  and  C12_19 
REMARK   10  A    between atoms: C11_18  and  C13_20 
REMARK   11  A    between atoms: N4_21  and  C14_22 
REMARK   12  A    between atoms: C14_22  and  C15_23 
REMARK   13  A    between atoms: C14_22  and  C16_25 
REMARK       I    between atoms: C15_23  and  N6_40 
REMARK   14  A    between atoms: C16_25  and  C17_26 
REMARK   15  A    between atoms: C17_26  and  C18_27 
REMARK   16  A    between atoms: C17_26  and  C19_28 
REMARK   17  A    between atoms: C20_29  and  C21_30 
REMARK   18  A    between atoms: C20_29  and  C24_33 
REMARK   19  A    between atoms: C20_29  and  N6_40 
REMARK   20  A    between atoms: C21_30  and  C22_31 
REMARK   21  A    between atoms: C22_31  and  C23_32 
REMARK   22  A    between atoms: C23_32  and  O8_43 
REMARK   23  A    between atoms: C24_33  and  C25_34 
REMARK   24  A    between atoms: C28_38  and  O6_39 
REMARK   25  A    between atoms: C29_42  and  O8_43 
REMARK   26  A    between atoms: C29_42  and  C35_49 
ROOT
ATOM      1  C14 non d ame      -6.294  11.128  67.107  0.00  0.00     0.089 C 
ATOM      2  H20 non d ame      -5.460  10.454  66.907  0.00  0.00     0.087 H 
ENDROOT
BRANCH   1   3
ATOM      3  N4  non d ame      -7.088  11.216  65.891  0.00  0.00    -0.346 N 
ATOM      4  C10 non d ame      -7.220  10.021  64.980  0.00  0.00     0.241 C 
ATOM      5  O4  non d ame      -6.676   9.000  65.246  0.00  0.00    -0.271 OA
ATOM      6  H19 non d ame      -7.541  12.094  65.680  0.00  0.00     0.163 HD
BRANCH   4   7
ATOM      7  C9  non d ame      -8.050  10.127  63.728  0.00  0.00     0.092 C 
ATOM      8  H11 non d ame      -8.686   9.245  63.642  0.00  0.00     0.088 H 
BRANCH   7   9
ATOM      9  N3  non d ame      -8.937  11.291  63.826  0.00  0.00    -0.346 N 
ATOM     10  C7  non d ame     -10.093  11.246  64.686  0.00  0.00     0.240 C 
ATOM     11  O3  non d ame     -10.327  10.281  65.306  0.00  0.00    -0.271 OA
ATOM     12  H10 non d ame      -8.748  12.130  63.296  0.00  0.00     0.163 HD
BRANCH  10  13
ATOM     13  C6  non d ame     -11.034  12.487  64.783  0.00  0.00     0.086 C 
ATOM     14  H6  non d ame     -11.669  12.467  65.669  0.00  0.00     0.086 H 
BRANCH  13  15
ATOM     15  N2  non d ame     -10.221  13.688  64.882  0.00  0.00    -0.343 N 
ATOM     16  C5  non d ame     -10.606  14.746  65.819  0.00  0.00     0.273 C 
ATOM     17  O2  non d ame     -11.573  14.622  66.486  0.00  0.00    -0.266 OA
ATOM     18  H5  non d ame      -9.397  13.787  64.305  0.00  0.00     0.163 HD
BRANCH  16  19
ATOM     19  C4  non d ame      -9.755  16.020  65.933  0.00  0.00     0.154 A 
ATOM     20  C1  non d ame      -8.383  16.111  66.329  0.00  0.00    -0.017 A 
ATOM     21  C2  non d ame      -8.078  17.489  66.270  0.00  0.00     0.077 A 
ATOM     22  H1  non d ame      -7.711  15.301  66.614  0.00  0.00     0.091 H 
ATOM     23  O1  non d ame      -9.155  18.108  65.883  0.00  0.00    -0.218 OA
ATOM     24  N1  non d ame     -10.147  17.272  65.680  0.00  0.00    -0.123 NA
BRANCH  21  25
ATOM     25  C3  non d ame      -6.736  18.130  66.598  0.00  0.00    -0.029 C 
ATOM     26  H2  non d ame      -6.900  19.049  67.160  0.00  0.00     0.036 H 
ATOM     27  H3  non d ame      -6.140  17.440  67.195  0.00  0.00     0.036 H 
ATOM     28  H4  non d ame      -6.207  18.360  65.672  0.00  0.00     0.036 H 
ENDBRANCH  21  25
ENDBRANCH  16  19
ENDBRANCH  13  15
BRANCH  13  29
ATOM     29  C8  non d ame     -11.909  12.555  63.558  0.00  0.00    -0.049 C 
ATOM     30  H7  non d ame     -12.205  13.590  63.380  0.00  0.00     0.030 H 
ATOM     31  H8  non d ame     -11.358  12.182  62.695  0.00  0.00     0.030 H 
ATOM     32  H9  non d ame     -12.799  11.945  63.713  0.00  0.00     0.030 H 
ENDBRANCH  13  29
ENDBRANCH  10  13
ENDBRANCH   7   9
BRANCH   7  33
ATOM     33  C11 non d ame      -7.112  10.294  62.497  0.00  0.00    -0.033 C 
ATOM     34  H12 non d ame      -6.253  10.882  62.816  0.00  0.00     0.042 H 
BRANCH  33  35
ATOM     35  C12 non d ame      -6.579   8.915  61.997  0.00  0.00    -0.071 C 
ATOM     36  H13 non d ame      -5.597   8.726  62.430  0.00  0.00     0.028 H 
ATOM     37  H14 non d ame      -7.268   8.128  62.300  0.00  0.00     0.028 H 
ATOM     38  H15 non d ame      -6.499   8.931  60.910  0.00  0.00     0.028 H 
ENDBRANCH  33  35
BRANCH  33  39
ATOM     39  C13 non d ame      -7.831  11.073  61.348  0.00  0.00    -0.071 C 
ATOM     40  H16 non d ame      -7.124  11.265  60.542  0.00  0.00     0.028 H 
ATOM     41  H17 non d ame      -8.661  10.476  60.969  0.00  0.00     0.028 H 
ATOM     42  H18 non d ame      -8.210  12.019  61.732  0.00  0.00     0.028 H 
ENDBRANCH  33  39
ENDBRANCH   7  33
ENDBRANCH   4   7
ENDBRANCH   1   3
BRANCH   1  43
ATOM     43  C15 non d ame      -7.205  10.612  68.256  0.00  0.00     0.240 C 
ATOM     44  O5  non d ame      -7.463  11.323  69.172  0.00  0.00    -0.271 OA
ATOM     45  N6  non d ame      -7.765   9.230  68.210  0.00  0.00    -0.355 N 
ATOM     46  H46 non d ame      -7.557   8.618  67.435  0.00  0.00     0.162 HD
BRANCH  45  47
ATOM     47  C20 non d ame      -8.631   8.754  69.310  0.00  0.00     0.013 C 
ATOM     48  H30 non d ame      -8.355   9.296  70.214  0.00  0.00     0.072 H 
BRANCH  47  49
ATOM     49  C21 non d ame      -8.415   7.271  69.511  0.00  0.00    -0.038 C 
ATOM     50  H31 non d ame      -7.666   6.980  68.774  0.00  0.00     0.036 H 
ATOM     51  H32 non d ame      -8.210   7.145  70.575  0.00  0.00     0.036 H 
BRANCH  49  52
ATOM     52  C22 non d ame      -9.676   6.435  69.206  0.00  0.00     0.018 C 
ATOM     53  H33 non d ame     -10.208   6.345  70.154  0.00  0.00     0.048 H 
ATOM     54  H34 non d ame     -10.155   6.921  68.357  0.00  0.00     0.048 H 
BRANCH  52  55
ATOM     55  C23 non d ame      -9.369   4.981  68.749  0.00  0.00     0.259 C 
ATOM     56  O7  non d ame      -9.827   4.055  69.337  0.00  0.00    -0.265 OA
BRANCH  55  57
ATOM     57  O8  non d ame      -8.522   4.768  67.627  0.00  0.00    -0.317 OA
BRANCH  57  58
ATOM     58  C29 non d ame      -9.084   5.197  66.384  0.00  0.00     0.052 C 
ATOM     59  H47 non d ame      -9.714   4.375  66.046  0.00  0.00     0.082 H 
ATOM     60  H48 non d ame      -9.524   6.174  66.581  0.00  0.00     0.082 H 
BRANCH  58  61
ATOM     61  C35 non d ame      -7.923   5.377  65.370  0.00  0.00    -0.034 A 
ATOM     62  C30 non d ame      -8.199   5.569  64.020  0.00  0.00    -0.075 A 
ATOM     63  C31 non d ame      -7.156   5.731  63.110  0.00  0.00    -0.082 A 
ATOM     64  H49 non d ame      -9.233   5.595  63.676  0.00  0.00     0.084 H 
ATOM     65  C32 non d ame      -5.831   5.695  63.554  0.00  0.00    -0.083 A 
ATOM     66  H50 non d ame      -7.376   5.885  62.053  0.00  0.00     0.083 H 
ATOM     67  C33 non d ame      -5.560   5.499  64.901  0.00  0.00    -0.082 A 
ATOM     68  H51 non d ame      -5.010   5.822  62.849  0.00  0.00     0.083 H 
ATOM     69  C34 non d ame      -6.600   5.340  65.814  0.00  0.00    -0.075 A 
ATOM     70  H52 non d ame      -4.525   5.470  65.243  0.00  0.00     0.083 H 
ATOM     71  H53 non d ame      -6.379   5.187  66.872  0.00  0.00     0.084 H 
ENDBRANCH  58  61
ENDBRANCH  57  58
ENDBRANCH  55  57
ENDBRANCH  52  55
ENDBRANCH  49  52
ENDBRANCH  47  49
BRANCH  47  72
ATOM     72  C24 non d ame     -10.096   9.013  68.963  0.00  0.00    -0.039 C 
ATOM     73  H35 non d ame     -10.081   9.492  67.983  0.00  0.00     0.036 H 
ATOM     74  H36 non d ame     -10.599   8.054  69.092  0.00  0.00     0.036 H 
BRANCH  72  75
ATOM     75  C25 non d ame     -10.774  10.044  69.984  0.00  0.00    -0.001 C 
ATOM     76  C26 non d ame     -11.353   9.236  71.293  0.00  0.00    -0.035 C 
ATOM     77  C27 non d ame     -12.645   9.594  71.491  0.00  0.00     0.085 C 
ATOM     78  H38 non d ame     -11.414   8.170  71.078  0.00  0.00     0.036 H 
ATOM     79  H39 non d ame     -10.852   9.581  72.197  0.00  0.00     0.036 H 
ATOM     80  N5  non d ame     -13.097  10.319  70.246  0.00  0.00    -0.049 N 
ATOM     81  H40 non d ame     -13.197   8.657  71.576  0.00  0.00     0.075 H 
ATOM     82  H41 non d ame     -12.628  10.295  72.324  0.00  0.00     0.075 H 
ATOM     83  C28 non d ame     -11.752  10.679  69.428  0.00  0.00     0.193 C 
ATOM     84  H42 non d ame     -13.633   9.656  69.707  0.00  0.00     0.280 HD
ATOM     85  H43 non d ame     -13.524  11.181  70.556  0.00  0.00     0.280 HD
ATOM     86  H44 non d ame     -11.356  11.694  69.430  0.00  0.00     0.129 H 
ATOM     87  H37 non d ame     -10.141  10.911  70.176  0.00  0.00     0.046 H 
BRANCH  83  88
ATOM     88  O6  non d ame     -11.905  10.332  68.050  0.00  0.00    -0.369 OA
ATOM     89  H45 non d ame     -11.563   9.447  67.904  0.00  0.00     0.212 HD
ENDBRANCH  83  88
ENDBRANCH  72  75
ENDBRANCH  47  72
ENDBRANCH  45  47
ENDBRANCH   1  43
BRANCH   1  90
ATOM     90  C16 non d ame      -5.766  12.510  67.455  0.00  0.00    -0.035 C 
ATOM     91  H21 non d ame      -5.917  13.112  66.557  0.00  0.00     0.037 H 
ATOM     92  H22 non d ame      -6.265  12.785  68.384  0.00  0.00     0.037 H 
BRANCH  90  93
ATOM     93  C17 non d ame      -4.233  12.540  67.752  0.00  0.00    -0.059 C 
ATOM     94  H23 non d ame      -3.926  13.584  67.802  0.00  0.00     0.038 H 
BRANCH  93  95
ATOM     95  C18 non d ame      -3.884  11.874  69.122  0.00  0.00    -0.073 C 
ATOM     96  H24 non d ame      -2.803  11.868  69.258  0.00  0.00     0.028 H 
ATOM     97  H25 non d ame      -4.349  12.441  69.929  0.00  0.00     0.028 H 
ATOM     98  H26 non d ame      -4.259  10.850  69.134  0.00  0.00     0.028 H 
ENDBRANCH  93  95
BRANCH  93  99
ATOM     99  C19 non d ame      -3.442  11.889  66.614  0.00  0.00    -0.073 C 
ATOM    100  H27 non d ame      -2.618  12.542  66.324  0.00  0.00     0.028 H 
ATOM    101  H28 non d ame      -3.046  10.930  66.950  0.00  0.00     0.028 H 
ATOM    102  H29 non d ame      -4.099  11.729  65.759  0.00  0.00     0.028 H 
ENDBRANCH  93  99
ENDBRANCH  90  93
ENDBRANCH   1  90
TORSDOF 26
ENDMDL
MODEL 7
REMARK VINA RESULT:      -6.7      2.408      8.397
REMARK  26 active torsions:
REMARK  status: ('A' for Active; 'I' for Inactive)
REMARK    1  A    between atoms: C2_2  and  C3_3 
REMARK    2  A    between atoms: C4_6  and  C5_7 
REMARK       I    between atoms: C5_7  and  N2_9 
REMARK    3  A    between atoms: N2_9  and  C6_10 
REMARK    4  A    between atoms: C6_10  and  C7_11 
REMARK    5  A    between atoms: C6_10  and  C8_13 
REMARK       I    between atoms: C7_11  and  N3_14 
REMARK    6  A    between atoms: N3_14  and  C9_15 
REMARK    7  A    between atoms: C9_15  and  C10_16 
REMARK    8  A    between atoms: C9_15  and  C11_18 
REMARK       I    between atoms: C10_16  and  N4_21 
REMARK    9  A    between atoms: C11_18  and  C12_19 
REMARK   10  A    between atoms: C11_18  and  C13_20 
REMARK   11  A    between atoms: N4_21  and  C14_22 
REMARK   12  A    between atoms: C14_22  and  C15_23 
REMARK   13  A    between atoms: C14_22  and  C16_25 
REMARK       I    between atoms: C15_23  and  N6_40 
REMARK   14  A    between atoms: C16_25  and  C17_26 
REMARK   15  A    between atoms: C17_26  and  C18_27 
REMARK   16  A    between atoms: C17_26  and  C19_28 
REMARK   17  A    between atoms: C20_29  and  C21_30 
REMARK   18  A    between atoms: C20_29  and  C24_33 
REMARK   19  A    between atoms: C20_29  and  N6_40 
REMARK   20  A    between atoms: C21_30  and  C22_31 
REMARK   21  A    between atoms: C22_31  and  C23_32 
REMARK   22  A    between atoms: C23_32  and  O8_43 
REMARK   23  A    between atoms: C24_33  and  C25_34 
REMARK   24  A    between atoms: C28_38  and  O6_39 
REMARK   25  A    between atoms: C29_42  and  O8_43 
REMARK   26  A    between atoms: C29_42  and  C35_49 
ROOT
ATOM      1  C14 non d ame      -7.979   8.378  64.091  0.00  0.00     0.089 C 
ATOM      2  H20 non d ame      -7.998   8.597  63.022  0.00  0.00     0.087 H 
ENDROOT
BRANCH   1   3
ATOM      3  N4  non d ame      -9.046   9.145  64.714  0.00  0.00    -0.346 N 
ATOM      4  C10 non d ame      -9.633  10.345  64.012  0.00  0.00     0.241 C 
ATOM      5  O4  non d ame      -9.227  10.674  62.946  0.00  0.00    -0.271 OA
ATOM      6  H19 non d ame      -9.376   8.851  65.623  0.00  0.00     0.163 HD
BRANCH   4   7
ATOM      7  C9  non d ame     -10.741  11.125  64.669  0.00  0.00     0.092 C 
ATOM      8  H11 non d ame     -11.518  10.436  65.000  0.00  0.00     0.088 H 
BRANCH   7   9
ATOM      9  N3  non d ame     -10.222  11.799  65.864  0.00  0.00    -0.346 N 
ATOM     10  C7  non d ame     -10.992  11.798  67.082  0.00  0.00     0.240 C 
ATOM     11  O3  non d ame     -12.032  11.262  67.121  0.00  0.00    -0.271 OA
ATOM     12  H10 non d ame      -9.327  12.267  65.846  0.00  0.00     0.163 HD
BRANCH  10  13
ATOM     13  C6  non d ame     -10.436  12.520  68.350  0.00  0.00     0.086 C 
ATOM     14  H6  non d ame      -9.350  12.458  68.428  0.00  0.00     0.086 H 
BRANCH  13  15
ATOM     15  N2  non d ame     -10.767  13.933  68.271  0.00  0.00    -0.343 N 
ATOM     16  C5  non d ame      -9.866  14.848  67.567  0.00  0.00     0.273 C 
ATOM     17  O2  non d ame      -8.875  14.438  67.071  0.00  0.00    -0.266 OA
ATOM     18  H5  non d ame     -11.615  14.276  68.701  0.00  0.00     0.163 HD
BRANCH  16  19
ATOM     19  C4  non d ame     -10.205  16.344  67.475  0.00  0.00     0.154 A 
ATOM     20  C1  non d ame      -9.880  17.241  66.408  0.00  0.00    -0.017 A 
ATOM     21  C2  non d ame     -10.411  18.487  66.807  0.00  0.00     0.077 A 
ATOM     22  H1  non d ame      -9.342  17.020  65.486  0.00  0.00     0.091 H 
ATOM     23  O1  non d ame     -10.975  18.315  67.966  0.00  0.00    -0.218 OA
ATOM     24  N1  non d ame     -10.868  17.073  68.377  0.00  0.00    -0.123 NA
BRANCH  21  25
ATOM     25  C3  non d ame     -10.339  19.790  66.021  0.00  0.00    -0.029 C 
ATOM     26  H2  non d ame      -9.333  20.203  66.094  0.00  0.00     0.036 H 
ATOM     27  H3  non d ame     -10.579  19.599  64.976  0.00  0.00     0.036 H 
ATOM     28  H4  non d ame     -11.055  20.503  66.433  0.00  0.00     0.036 H 
ENDBRANCH  21  25
ENDBRANCH  16  19
ENDBRANCH  13  15
BRANCH  13  29
ATOM     29  C8  non d ame     -11.049  11.914  69.586  0.00  0.00    -0.049 C 
ATOM     30  H7  non d ame     -11.021  10.827  69.510  0.00  0.00     0.030 H 
ATOM     31  H8  non d ame     -10.487  12.232  70.464  0.00  0.00     0.030 H 
ATOM     32  H9  non d ame     -12.084  12.244  69.677  0.00  0.00     0.030 H 
ENDBRANCH  13  29
ENDBRANCH  10  13
ENDBRANCH   7   9
BRANCH   7  33
ATOM     33  C11 non d ame     -11.288  12.189  63.673  0.00  0.00    -0.033 C 
ATOM     34  H12 non d ame     -10.687  12.130  62.766  0.00  0.00     0.042 H 
BRANCH  33  35
ATOM     35  C12 non d ame     -12.767  11.888  63.276  0.00  0.00    -0.071 C 
ATOM     36  H13 non d ame     -13.344  12.813  63.295  0.00  0.00     0.028 H 
ATOM     37  H14 non d ame     -12.795  11.464  62.273  0.00  0.00     0.028 H 
ATOM     38  H15 non d ame     -13.194  11.179  63.983  0.00  0.00     0.028 H 
ENDBRANCH  33  35
BRANCH  33  39
ATOM     39  C13 non d ame     -11.141  13.630  64.258  0.00  0.00    -0.071 C 
ATOM     40  H16 non d ame     -12.021  14.218  63.998  0.00  0.00     0.028 H 
ATOM     41  H17 non d ame     -11.048  13.574  65.343  0.00  0.00     0.028 H 
ATOM     42  H18 non d ame     -10.252  14.103  63.841  0.00  0.00     0.028 H 
ENDBRANCH  33  39
ENDBRANCH   7  33
ENDBRANCH   4   7
ENDBRANCH   1   3
BRANCH   1  43
ATOM     43  C15 non d ame      -8.218   6.870  64.386  0.00  0.00     0.240 C 
ATOM     44  O5  non d ame      -7.852   6.050  63.607  0.00  0.00    -0.271 OA
ATOM     45  N6  non d ame      -8.895   6.446  65.645  0.00  0.00    -0.355 N 
ATOM     46  H46 non d ame      -9.207   7.134  66.315  0.00  0.00     0.162 HD
BRANCH  45  47
ATOM     47  C20 non d ame      -9.114   5.009  65.911  0.00  0.00     0.013 C 
ATOM     48  H30 non d ame      -9.126   4.487  64.954  0.00  0.00     0.072 H 
BRANCH  47  49
ATOM     49  C21 non d ame     -10.441   4.826  66.613  0.00  0.00    -0.038 C 
ATOM     50  H31 non d ame     -11.157   4.580  65.830  0.00  0.00     0.036 H 
ATOM     51  H32 non d ame     -10.251   4.119  67.421  0.00  0.00     0.036 H 
BRANCH  49  52
ATOM     52  C22 non d ame     -10.950   6.123  67.278  0.00  0.00     0.018 C 
ATOM     53  H33 non d ame     -10.289   6.916  66.926  0.00  0.00     0.048 H 
ATOM     54  H34 non d ame     -12.017   6.168  67.061  0.00  0.00     0.048 H 
BRANCH  52  55
ATOM     55  C23 non d ame     -10.828   6.122  68.828  0.00  0.00     0.259 C 
ATOM     56  O7  non d ame     -10.631   5.109  69.416  0.00  0.00    -0.265 OA
BRANCH  55  57
ATOM     57  O8  non d ame     -10.968   7.346  69.538  0.00  0.00    -0.317 OA
BRANCH  57  58
ATOM     58  C29 non d ame     -10.520   8.495  68.812  0.00  0.00     0.052 C 
ATOM     59  H47 non d ame     -10.624   8.237  67.759  0.00  0.00     0.082 H 
ATOM     60  H48 non d ame     -11.075   9.338  69.224  0.00  0.00     0.082 H 
BRANCH  58  61
ATOM     61  C35 non d ame      -9.014   8.700  69.123  0.00  0.00    -0.034 A 
ATOM     62  C30 non d ame      -8.532   8.489  70.411  0.00  0.00    -0.075 A 
ATOM     63  C31 non d ame      -7.179   8.673  70.690  0.00  0.00    -0.082 A 
ATOM     64  H49 non d ame      -9.215   8.178  71.202  0.00  0.00     0.084 H 
ATOM     65  C32 non d ame      -6.306   9.075  69.675  0.00  0.00    -0.083 A 
ATOM     66  H50 non d ame      -6.804   8.504  71.699  0.00  0.00     0.083 H 
ATOM     67  C33 non d ame      -6.791   9.289  68.392  0.00  0.00    -0.082 A 
ATOM     68  H51 non d ame      -5.246   9.221  69.884  0.00  0.00     0.083 H 
ATOM     69  C34 non d ame      -8.143   9.103  68.109  0.00  0.00    -0.075 A 
ATOM     70  H52 non d ame      -6.108   9.603  67.603  0.00  0.00     0.083 H 
ATOM     71  H53 non d ame      -8.516   9.271  67.098  0.00  0.00     0.084 H 
ENDBRANCH  58  61
ENDBRANCH  57  58
ENDBRANCH  55  57
ENDBRANCH  52  55
ENDBRANCH  49  52
ENDBRANCH  47  49
BRANCH  47  72
ATOM     72  C24 non d ame      -7.991   4.471  66.795  0.00  0.00    -0.039 C 
ATOM     73  H35 non d ame      -8.478   3.809  67.512  0.00  0.00     0.036 H 
ATOM     74  H36 non d ame      -7.245   4.072  66.106  0.00  0.00     0.036 H 
BRANCH  72  75
ATOM     75  C25 non d ame      -7.284   5.638  67.632  0.00  0.00    -0.001 C 
ATOM     76  C26 non d ame      -5.751   5.871  67.084  0.00  0.00    -0.035 C 
ATOM     77  C27 non d ame      -4.901   5.839  68.139  0.00  0.00     0.085 C 
ATOM     78  H38 non d ame      -5.437   5.021  66.479  0.00  0.00     0.036 H 
ATOM     79  H39 non d ame      -5.640   6.884  66.700  0.00  0.00     0.036 H 
ATOM     80  N5  non d ame      -5.673   5.280  69.311  0.00  0.00    -0.049 N 
ATOM     81  H40 non d ame      -4.118   5.132  67.861  0.00  0.00     0.075 H 
ATOM     82  H41 non d ame      -4.650   6.879  68.343  0.00  0.00     0.075 H 
ATOM     83  C28 non d ame      -7.230   5.347  68.889  0.00  0.00     0.193 C 
ATOM     84  H42 non d ame      -5.404   4.311  69.395  0.00  0.00     0.280 HD
ATOM     85  H43 non d ame      -5.522   5.916  70.082  0.00  0.00     0.280 HD
ATOM     86  H44 non d ame      -7.883   6.117  69.299  0.00  0.00     0.129 H 
ATOM     87  H37 non d ame      -7.917   6.522  67.724  0.00  0.00     0.046 H 
BRANCH  83  88
ATOM     88  O6  non d ame      -7.874   4.106  69.182  0.00  0.00    -0.369 OA
ATOM     89  H45 non d ame      -7.883   3.966  70.132  0.00  0.00     0.212 HD
ENDBRANCH  83  88
ENDBRANCH  72  75
ENDBRANCH  47  72
ENDBRANCH  45  47
ENDBRANCH   1  43
BRANCH   1  90
ATOM     90  C16 non d ame      -6.647   8.810  64.682  0.00  0.00    -0.035 C 
ATOM     91  H21 non d ame      -6.867   9.707  65.264  0.00  0.00     0.037 H 
ATOM     92  H22 non d ame      -6.249   7.924  65.176  0.00  0.00     0.037 H 
BRANCH  90  93
ATOM     93  C17 non d ame      -5.591   9.228  63.610  0.00  0.00    -0.059 C 
ATOM     94  H23 non d ame      -4.756   8.532  63.680  0.00  0.00     0.038 H 
BRANCH  93  95
ATOM     95  C18 non d ame      -6.161   9.145  62.157  0.00  0.00    -0.073 C 
ATOM     96  H24 non d ame      -7.042   9.781  62.075  0.00  0.00     0.028 H 
ATOM     97  H25 non d ame      -5.402   9.481  61.450  0.00  0.00     0.028 H 
ATOM     98  H26 non d ame      -6.435   8.113  61.934  0.00  0.00     0.028 H 
ENDBRANCH  93  95
BRANCH  93  99
ATOM     99  C19 non d ame      -5.042  10.628  63.899  0.00  0.00    -0.073 C 
ATOM    100  H27 non d ame      -4.077  10.748  63.405  0.00  0.00     0.028 H 
ATOM    101  H28 non d ame      -5.740  11.376  63.523  0.00  0.00     0.028 H 
ATOM    102  H29 non d ame      -4.919  10.755  64.975  0.00  0.00     0.028 H 
ENDBRANCH  93  99
ENDBRANCH  90  93
ENDBRANCH   1  90
TORSDOF 26
ENDMDL
MODEL 8
REMARK VINA RESULT:      -6.6      2.773      8.929
REMARK  26 active torsions:
REMARK  status: ('A' for Active; 'I' for Inactive)
REMARK    1  A    between atoms: C2_2  and  C3_3 
REMARK    2  A    between atoms: C4_6  and  C5_7 
REMARK       I    between atoms: C5_7  and  N2_9 
REMARK    3  A    between atoms: N2_9  and  C6_10 
REMARK    4  A    between atoms: C6_10  and  C7_11 
REMARK    5  A    between atoms: C6_10  and  C8_13 
REMARK       I    between atoms: C7_11  and  N3_14 
REMARK    6  A    between atoms: N3_14  and  C9_15 
REMARK    7  A    between atoms: C9_15  and  C10_16 
REMARK    8  A    between atoms: C9_15  and  C11_18 
REMARK       I    between atoms: C10_16  and  N4_21 
REMARK    9  A    between atoms: C11_18  and  C12_19 
REMARK   10  A    between atoms: C11_18  and  C13_20 
REMARK   11  A    between atoms: N4_21  and  C14_22 
REMARK   12  A    between atoms: C14_22  and  C15_23 
REMARK   13  A    between atoms: C14_22  and  C16_25 
REMARK       I    between atoms: C15_23  and  N6_40 
REMARK   14  A    between atoms: C16_25  and  C17_26 
REMARK   15  A    between atoms: C17_26  and  C18_27 
REMARK   16  A    between atoms: C17_26  and  C19_28 
REMARK   17  A    between atoms: C20_29  and  C21_30 
REMARK   18  A    between atoms: C20_29  and  C24_33 
REMARK   19  A    between atoms: C20_29  and  N6_40 
REMARK   20  A    between atoms: C21_30  and  C22_31 
REMARK   21  A    between atoms: C22_31  and  C23_32 
REMARK   22  A    between atoms: C23_32  and  O8_43 
REMARK   23  A    between atoms: C24_33  and  C25_34 
REMARK   24  A    between atoms: C28_38  and  O6_39 
REMARK   25  A    between atoms: C29_42  and  O8_43 
REMARK   26  A    between atoms: C29_42  and  C35_49 
ROOT
ATOM      1  C14 non d ame      -8.266   8.177  62.650  0.00  0.00     0.089 C 
ATOM      2  H20 non d ame      -8.854   8.256  61.735  0.00  0.00     0.087 H 
ENDROOT
BRANCH   1   3
ATOM      3  N4  non d ame      -8.930   8.979  63.667  0.00  0.00    -0.346 N 
ATOM      4  C10 non d ame      -9.380  10.385  63.354  0.00  0.00     0.241 C 
ATOM      5  O4  non d ame      -9.194  10.849  62.277  0.00  0.00    -0.271 OA
ATOM      6  H19 non d ame      -9.076   8.568  64.578  0.00  0.00     0.163 HD
BRANCH   4   7
ATOM      7  C9  non d ame     -10.069  11.200  64.417  0.00  0.00     0.092 C 
ATOM      8  H11 non d ame     -10.741  10.556  64.984  0.00  0.00     0.088 H 
BRANCH   7   9
ATOM      9  N3  non d ame      -9.073  11.721  65.358  0.00  0.00    -0.346 N 
ATOM     10  C7  non d ame      -8.731  10.964  66.536  0.00  0.00     0.240 C 
ATOM     11  O3  non d ame      -9.247   9.935  66.745  0.00  0.00    -0.271 OA
ATOM     12  H10 non d ame      -8.618  12.608  65.192  0.00  0.00     0.163 HD
BRANCH  10  13
ATOM     13  C6  non d ame      -7.671  11.525  67.536  0.00  0.00     0.086 C 
ATOM     14  H6  non d ame      -6.672  11.584  67.104  0.00  0.00     0.086 H 
BRANCH  13  15
ATOM     15  N2  non d ame      -8.044  12.881  67.906  0.00  0.00    -0.343 N 
ATOM     16  C5  non d ame      -7.071  13.965  67.752  0.00  0.00     0.273 C 
ATOM     17  O2  non d ame      -5.990  13.735  67.333  0.00  0.00    -0.266 OA
ATOM     18  H5  non d ame      -8.969  13.068  68.266  0.00  0.00     0.163 HD
BRANCH  16  19
ATOM     19  C4  non d ame      -7.452  15.402  68.138  0.00  0.00     0.154 A 
ATOM     20  C1  non d ame      -6.644  16.576  68.008  0.00  0.00    -0.017 A 
ATOM     21  C2  non d ame      -7.449  17.628  68.499  0.00  0.00     0.077 A 
ATOM     22  H1  non d ame      -5.629  16.653  67.617  0.00  0.00     0.091 H 
ATOM     23  O1  non d ame      -8.585  17.109  68.863  0.00  0.00    -0.218 OA
ATOM     24  N1  non d ame      -8.611  15.811  68.662  0.00  0.00    -0.123 NA
BRANCH  21  25
ATOM     25  C3  non d ame      -7.059  19.098  68.583  0.00  0.00    -0.029 C 
ATOM     26  H2  non d ame      -7.953  19.703  68.730  0.00  0.00     0.036 H 
ATOM     27  H3  non d ame      -6.377  19.245  69.420  0.00  0.00     0.036 H 
ATOM     28  H4  non d ame      -6.566  19.397  67.656  0.00  0.00     0.036 H 
ENDBRANCH  21  25
ENDBRANCH  16  19
ENDBRANCH  13  15
BRANCH  13  29
ATOM     29  C8  non d ame      -7.621  10.651  68.763  0.00  0.00    -0.049 C 
ATOM     30  H7  non d ame      -6.585  10.530  69.080  0.00  0.00     0.030 H 
ATOM     31  H8  non d ame      -8.195  11.114  69.564  0.00  0.00     0.030 H 
ATOM     32  H9  non d ame      -8.044   9.674  68.530  0.00  0.00     0.030 H 
ENDBRANCH  13  29
ENDBRANCH  10  13
ENDBRANCH   7   9
BRANCH   7  33
ATOM     33  C11 non d ame     -10.822  12.389  63.751  0.00  0.00    -0.033 C 
ATOM     34  H12 non d ame     -10.352  12.577  62.786  0.00  0.00     0.042 H 
BRANCH  33  35
ATOM     35  C12 non d ame     -12.319  12.037  63.485  0.00  0.00    -0.071 C 
ATOM     36  H13 non d ame     -12.537  11.049  63.890  0.00  0.00     0.028 H 
ATOM     37  H14 non d ame     -12.957  12.777  63.966  0.00  0.00     0.028 H 
ATOM     38  H15 non d ame     -12.505  12.039  62.411  0.00  0.00     0.028 H 
ENDBRANCH  33  35
BRANCH  33  39
ATOM     39  C13 non d ame     -10.691  13.686  64.613  0.00  0.00    -0.071 C 
ATOM     40  H16 non d ame     -10.791  14.561  63.971  0.00  0.00     0.028 H 
ATOM     41  H17 non d ame     -11.475  13.700  65.371  0.00  0.00     0.028 H 
ATOM     42  H18 non d ame      -9.716  13.703  65.099  0.00  0.00     0.028 H 
ENDBRANCH  33  39
ENDBRANCH   7  33
ENDBRANCH   4   7
ENDBRANCH   1   3
BRANCH   1  43
ATOM     43  C15 non d ame      -8.169   6.712  63.162  0.00  0.00     0.240 C 
ATOM     44  O5  non d ame      -7.736   5.864  62.452  0.00  0.00    -0.271 OA
ATOM     45  N6  non d ame      -8.609   6.367  64.545  0.00  0.00    -0.355 N 
ATOM     46  H46 non d ame      -8.975   7.080  65.159  0.00  0.00     0.162 HD
BRANCH  45  47
ATOM     47  C20 non d ame      -8.510   4.969  65.018  0.00  0.00     0.013 C 
ATOM     48  H30 non d ame      -8.216   4.348  64.171  0.00  0.00     0.072 H 
BRANCH  47  49
ATOM     49  C21 non d ame      -9.856   4.522  65.543  0.00  0.00    -0.038 C 
ATOM     50  H31 non d ame     -10.577   5.238  65.151  0.00  0.00     0.036 H 
ATOM     51  H32 non d ame      -9.938   3.466  65.282  0.00  0.00     0.036 H 
BRANCH  49  52
ATOM     52  C22 non d ame      -9.954   4.600  67.082  0.00  0.00     0.018 C 
ATOM     53  H33 non d ame     -10.577   3.757  67.382  0.00  0.00     0.048 H 
ATOM     54  H34 non d ame      -8.928   4.674  67.440  0.00  0.00     0.048 H 
BRANCH  52  55
ATOM     55  C23 non d ame     -10.680   5.873  67.599  0.00  0.00     0.259 C 
ATOM     56  O7  non d ame     -10.963   6.752  66.851  0.00  0.00    -0.265 OA
BRANCH  55  57
ATOM     57  O8  non d ame     -10.992   5.984  68.983  0.00  0.00    -0.317 OA
BRANCH  57  58
ATOM     58  C29 non d ame     -10.410   7.126  69.620  0.00  0.00     0.052 C 
ATOM     59  H47 non d ame      -9.628   6.734  70.269  0.00  0.00     0.082 H 
ATOM     60  H48 non d ame     -10.156   7.815  68.815  0.00  0.00     0.082 H 
BRANCH  58  61
ATOM     61  C35 non d ame     -11.501   7.786  70.505  0.00  0.00    -0.034 A 
ATOM     62  C30 non d ame     -12.558   7.025  70.994  0.00  0.00    -0.075 A 
ATOM     63  C31 non d ame     -13.537   7.619  71.789  0.00  0.00    -0.082 A 
ATOM     64  H49 non d ame     -12.619   5.963  70.754  0.00  0.00     0.084 H 
ATOM     65  C32 non d ame     -13.458   8.981  72.092  0.00  0.00    -0.083 A 
ATOM     66  H50 non d ame     -14.362   7.019  72.172  0.00  0.00     0.083 H 
ATOM     67  C33 non d ame     -12.403   9.738  71.600  0.00  0.00    -0.082 A 
ATOM     68  H51 non d ame     -14.219   9.453  72.714  0.00  0.00     0.083 H 
ATOM     69  C34 non d ame     -11.421   9.147  70.807  0.00  0.00    -0.075 A 
ATOM     70  H52 non d ame     -12.345  10.800  71.838  0.00  0.00     0.083 H 
ATOM     71  H53 non d ame     -10.595   9.748  70.425  0.00  0.00     0.084 H 
ENDBRANCH  58  61
ENDBRANCH  57  58
ENDBRANCH  55  57
ENDBRANCH  52  55
ENDBRANCH  49  52
ENDBRANCH  47  49
BRANCH  47  72
ATOM     72  C24 non d ame      -7.470   4.874  66.132  0.00  0.00    -0.039 C 
ATOM     73  H35 non d ame      -7.958   5.279  67.019  0.00  0.00     0.036 H 
ATOM     74  H36 non d ame      -7.129   3.839  66.123  0.00  0.00     0.036 H 
BRANCH  72  75
ATOM     75  C25 non d ame      -6.194   5.795  65.833  0.00  0.00    -0.001 C 
ATOM     76  C26 non d ame      -4.954   4.869  65.276  0.00  0.00    -0.035 C 
ATOM     77  C27 non d ame      -3.845   5.141  66.005  0.00  0.00     0.085 C 
ATOM     78  H38 non d ame      -5.148   3.818  65.488  0.00  0.00     0.036 H 
ATOM     79  H39 non d ame      -4.679   5.180  64.269  0.00  0.00     0.036 H 
ATOM     80  N5  non d ame      -4.295   5.922  67.217  0.00  0.00    -0.049 N 
ATOM     81  H40 non d ame      -3.465   4.171  66.329  0.00  0.00     0.075 H 
ATOM     82  H41 non d ame      -3.233   5.784  65.375  0.00  0.00     0.075 H 
ATOM     83  C28 non d ame      -5.800   6.410  66.898  0.00  0.00     0.193 C 
ATOM     84  H42 non d ame      -4.325   5.267  67.985  0.00  0.00     0.280 HD
ATOM     85  H43 non d ame      -3.698   6.735  67.270  0.00  0.00     0.280 HD
ATOM     86  H44 non d ame      -6.000   7.443  66.616  0.00  0.00     0.129 H 
ATOM     87  H37 non d ame      -6.451   6.681  65.252  0.00  0.00     0.046 H 
BRANCH  83  88
ATOM     88  O6  non d ame      -6.651   6.149  68.016  0.00  0.00    -0.369 OA
ATOM     89  H45 non d ame      -6.133   6.175  68.824  0.00  0.00     0.212 HD
ENDBRANCH  83  88
ENDBRANCH  72  75
ENDBRANCH  47  72
ENDBRANCH  45  47
ENDBRANCH   1  43
BRANCH   1  90
ATOM     90  C16 non d ame      -6.870   8.730  62.415  0.00  0.00    -0.035 C 
ATOM     91  H21 non d ame      -6.435   8.095  61.642  0.00  0.00     0.037 H 
ATOM     92  H22 non d ame      -7.009   9.795  62.230  0.00  0.00     0.037 H 
BRANCH  90  93
ATOM     93  C17 non d ame      -5.933   8.617  63.659  0.00  0.00    -0.059 C 
ATOM     94  H23 non d ame      -6.415   7.953  64.376  0.00  0.00     0.038 H 
BRANCH  93  95
ATOM     95  C18 non d ame      -4.544   7.999  63.297  0.00  0.00    -0.073 C 
ATOM     96  H24 non d ame      -4.094   7.568  64.191  0.00  0.00     0.028 H 
ATOM     97  H25 non d ame      -4.678   7.221  62.546  0.00  0.00     0.028 H 
ATOM     98  H26 non d ame      -3.893   8.779  62.900  0.00  0.00     0.028 H 
ENDBRANCH  93  95
BRANCH  93  99
ATOM     99  C19 non d ame      -5.763   9.976  64.342  0.00  0.00    -0.073 C 
ATOM    100  H27 non d ame      -6.186  10.757  63.708  0.00  0.00     0.028 H 
ATOM    101  H28 non d ame      -6.280   9.966  65.302  0.00  0.00     0.028 H 
ATOM    102  H29 non d ame      -4.703  10.172  64.504  0.00  0.00     0.028 H 
ENDBRANCH  93  99
ENDBRANCH  90  93
ENDBRANCH   1  90
TORSDOF 26
ENDMDL
MODEL 9
REMARK VINA RESULT:      -6.5      2.758      7.460
REMARK  26 active torsions:
REMARK  status: ('A' for Active; 'I' for Inactive)
REMARK    1  A    between atoms: C2_2  and  C3_3 
REMARK    2  A    between atoms: C4_6  and  C5_7 
REMARK       I    between atoms: C5_7  and  N2_9 
REMARK    3  A    between atoms: N2_9  and  C6_10 
REMARK    4  A    between atoms: C6_10  and  C7_11 
REMARK    5  A    between atoms: C6_10  and  C8_13 
REMARK       I    between atoms: C7_11  and  N3_14 
REMARK    6  A    between atoms: N3_14  and  C9_15 
REMARK    7  A    between atoms: C9_15  and  C10_16 
REMARK    8  A    between atoms: C9_15  and  C11_18 
REMARK       I    between atoms: C10_16  and  N4_21 
REMARK    9  A    between atoms: C11_18  and  C12_19 
REMARK   10  A    between atoms: C11_18  and  C13_20 
REMARK   11  A    between atoms: N4_21  and  C14_22 
REMARK   12  A    between atoms: C14_22  and  C15_23 
REMARK   13  A    between atoms: C14_22  and  C16_25 
REMARK       I    between atoms: C15_23  and  N6_40 
REMARK   14  A    between atoms: C16_25  and  C17_26 
REMARK   15  A    between atoms: C17_26  and  C18_27 
REMARK   16  A    between atoms: C17_26  and  C19_28 
REMARK   17  A    between atoms: C20_29  and  C21_30 
REMARK   18  A    between atoms: C20_29  and  C24_33 
REMARK   19  A    between atoms: C20_29  and  N6_40 
REMARK   20  A    between atoms: C21_30  and  C22_31 
REMARK   21  A    between atoms: C22_31  and  C23_32 
REMARK   22  A    between atoms: C23_32  and  O8_43 
REMARK   23  A    between atoms: C24_33  and  C25_34 
REMARK   24  A    between atoms: C28_38  and  O6_39 
REMARK   25  A    between atoms: C29_42  and  O8_43 
REMARK   26  A    between atoms: C29_42  and  C35_49 
ROOT
ATOM      1  C14 non d ame      -6.712  10.157  67.745  0.00  0.00     0.089 C 
ATOM      2  H20 non d ame      -5.820   9.681  68.155  0.00  0.00     0.087 H 
ENDROOT
BRANCH   1   3
ATOM      3  N4  non d ame      -6.749   9.863  66.320  0.00  0.00    -0.346 N 
ATOM      4  C10 non d ame      -6.359   8.497  65.813  0.00  0.00     0.241 C 
ATOM      5  O4  non d ame      -6.015   7.651  66.573  0.00  0.00    -0.271 OA
ATOM      6  H19 non d ame      -7.042  10.597  65.690  0.00  0.00     0.163 HD
BRANCH   4   7
ATOM      7  C9  non d ame      -6.408   8.208  64.336  0.00  0.00     0.092 C 
ATOM      8  H11 non d ame      -7.122   7.405  64.151  0.00  0.00     0.088 H 
BRANCH   7   9
ATOM      9  N3  non d ame      -6.896   9.393  63.622  0.00  0.00    -0.346 N 
ATOM     10  C7  non d ame      -8.202   9.379  63.012  0.00  0.00     0.240 C 
ATOM     11  O3  non d ame      -8.875   8.424  63.084  0.00  0.00    -0.271 OA
ATOM     12  H10 non d ame      -6.327  10.224  63.551  0.00  0.00     0.163 HD
BRANCH  10  13
ATOM     13  C6  non d ame      -8.714  10.642  62.251  0.00  0.00     0.086 C 
ATOM     14  H6  non d ame      -9.608  10.445  61.659  0.00  0.00     0.086 H 
BRANCH  13  15
ATOM     15  N2  non d ame      -9.075  11.663  63.221  0.00  0.00    -0.343 N 
ATOM     16  C5  non d ame     -10.466  11.780  63.663  0.00  0.00     0.273 C 
ATOM     17  O2  non d ame     -11.288  11.050  63.229  0.00  0.00    -0.266 OA
ATOM     18  H5  non d ame      -8.366  12.284  63.585  0.00  0.00     0.163 HD
BRANCH  16  19
ATOM     19  C4  non d ame     -10.861  12.853  64.688  0.00  0.00     0.154 A 
ATOM     20  C1  non d ame     -10.105  14.009  65.066  0.00  0.00    -0.017 A 
ATOM     21  C2  non d ame     -10.901  14.664  66.032  0.00  0.00     0.077 A 
ATOM     22  H1  non d ame      -9.130  14.324  64.695  0.00  0.00     0.091 H 
ATOM     23  O1  non d ame     -11.985  13.961  66.183  0.00  0.00    -0.218 OA
ATOM     24  N1  non d ame     -11.985  12.899  65.409  0.00  0.00    -0.123 NA
BRANCH  21  25
ATOM     25  C3  non d ame     -10.553  15.956  66.760  0.00  0.00    -0.029 C 
ATOM     26  H2  non d ame      -9.525  15.905  67.120  0.00  0.00     0.036 H 
ATOM     27  H3  non d ame     -10.657  16.797  66.076  0.00  0.00     0.036 H 
ATOM     28  H4  non d ame     -11.228  16.089  67.606  0.00  0.00     0.036 H 
ENDBRANCH  21  25
ENDBRANCH  16  19
ENDBRANCH  13  15
BRANCH  13  29
ATOM     29  C8  non d ame      -7.630  11.157  61.339  0.00  0.00    -0.049 C 
ATOM     30  H7  non d ame      -7.125  11.999  61.815  0.00  0.00     0.030 H 
ATOM     31  H8  non d ame      -6.909  10.363  61.146  0.00  0.00     0.030 H 
ATOM     32  H9  non d ame      -8.072  11.485  60.398  0.00  0.00     0.030 H 
ENDBRANCH  13  29
ENDBRANCH  10  13
ENDBRANCH   7   9
BRANCH   7  33
ATOM     33  C11 non d ame      -4.980   7.851  63.830  0.00  0.00    -0.033 C 
ATOM     34  H12 non d ame      -4.315   7.855  64.692  0.00  0.00     0.042 H 
BRANCH  33  35
ATOM     35  C12 non d ame      -4.938   6.420  63.209  0.00  0.00    -0.071 C 
ATOM     36  H13 non d ame      -5.641   5.774  63.737  0.00  0.00     0.028 H 
ATOM     37  H14 non d ame      -5.213   6.472  62.157  0.00  0.00     0.028 H 
ATOM     38  H15 non d ame      -3.932   6.014  63.304  0.00  0.00     0.028 H 
ENDBRANCH  33  35
BRANCH  33  39
ATOM     39  C13 non d ame      -4.463   8.922  62.815  0.00  0.00    -0.071 C 
ATOM     40  H16 non d ame      -3.461   8.654  62.484  0.00  0.00     0.028 H 
ATOM     41  H17 non d ame      -5.132   8.960  61.955  0.00  0.00     0.028 H 
ATOM     42  H18 non d ame      -4.438   9.898  63.299  0.00  0.00     0.028 H 
ENDBRANCH  33  39
ENDBRANCH   7  33
ENDBRANCH   4   7
ENDBRANCH   1   3
BRANCH   1  43
ATOM     43  C15 non d ame      -8.018   9.619  68.395  0.00  0.00     0.240 C 
ATOM     44  O5  non d ame      -8.049   9.393  69.561  0.00  0.00    -0.271 OA
ATOM     45  N6  non d ame      -9.235   9.394  67.564  0.00  0.00    -0.355 N 
ATOM     46  H46 non d ame      -9.222   9.586  66.573  0.00  0.00     0.162 HD
BRANCH  45  47
ATOM     47  C20 non d ame     -10.470   8.882  68.197  0.00  0.00     0.013 C 
ATOM     48  H30 non d ame     -10.194   8.416  69.143  0.00  0.00     0.072 H 
BRANCH  47  49
ATOM     49  C21 non d ame     -11.113   7.860  67.287  0.00  0.00    -0.038 C 
ATOM     50  H31 non d ame     -12.187   7.978  67.425  0.00  0.00     0.036 H 
ATOM     51  H32 non d ame     -10.668   8.020  66.304  0.00  0.00     0.036 H 
BRANCH  49  52
ATOM     52  C22 non d ame     -10.777   6.407  67.688  0.00  0.00     0.018 C 
ATOM     53  H33 non d ame     -10.808   6.386  68.777  0.00  0.00     0.048 H 
ATOM     54  H34 non d ame     -11.455   5.778  67.112  0.00  0.00     0.048 H 
BRANCH  52  55
ATOM     55  C23 non d ame      -9.341   5.963  67.292  0.00  0.00     0.259 C 
ATOM     56  O7  non d ame      -8.432   6.127  68.040  0.00  0.00    -0.265 OA
BRANCH  55  57
ATOM     57  O8  non d ame      -9.121   5.372  66.017  0.00  0.00    -0.317 OA
BRANCH  57  58
ATOM     58  C29 non d ame     -10.000   4.282  65.722  0.00  0.00     0.052 C 
ATOM     59  H47 non d ame      -9.573   3.415  66.226  0.00  0.00     0.082 H 
ATOM     60  H48 non d ame     -10.998   4.629  65.986  0.00  0.00     0.082 H 
BRANCH  58  61
ATOM     61  C35 non d ame      -9.955   4.033  64.191  0.00  0.00    -0.034 A 
ATOM     62  C30 non d ame     -10.856   3.152  63.602  0.00  0.00    -0.075 A 
ATOM     63  C31 non d ame     -10.816   2.928  62.226  0.00  0.00    -0.082 A 
ATOM     64  H49 non d ame     -11.595   2.638  64.217  0.00  0.00     0.084 H 
ATOM     65  C32 non d ame      -9.867   3.587  61.440  0.00  0.00    -0.083 A 
ATOM     66  H50 non d ame     -11.526   2.240  61.767  0.00  0.00     0.083 H 
ATOM     67  C33 non d ame      -8.967   4.462  62.033  0.00  0.00    -0.082 A 
ATOM     68  H51 non d ame      -9.830   3.418  60.364  0.00  0.00     0.083 H 
ATOM     69  C34 non d ame      -9.006   4.690  63.407  0.00  0.00    -0.075 A 
ATOM     70  H52 non d ame      -8.227   4.973  61.416  0.00  0.00     0.083 H 
ATOM     71  H53 non d ame      -8.296   5.380  63.865  0.00  0.00     0.084 H 
ENDBRANCH  58  61
ENDBRANCH  57  58
ENDBRANCH  55  57
ENDBRANCH  52  55
ENDBRANCH  49  52
ENDBRANCH  47  49
BRANCH  47  72
ATOM     72  C24 non d ame     -11.442  10.035  68.437  0.00  0.00    -0.039 C 
ATOM     73  H35 non d ame     -11.155  10.809  67.725  0.00  0.00     0.036 H 
ATOM     74  H36 non d ame     -12.437   9.591  68.386  0.00  0.00     0.036 H 
BRANCH  72  75
ATOM     75  C25 non d ame     -11.276  10.657  69.904  0.00  0.00    -0.001 C 
ATOM     76  C26 non d ame     -12.333   9.938  70.939  0.00  0.00    -0.035 C 
ATOM     77  C27 non d ame     -13.023  10.902  71.595  0.00  0.00     0.085 C 
ATOM     78  H38 non d ame     -13.103   9.409  70.379  0.00  0.00     0.036 H 
ATOM     79  H39 non d ame     -11.790   9.428  71.734  0.00  0.00     0.036 H 
ATOM     80  N5  non d ame     -12.768  12.201  70.869  0.00  0.00    -0.049 N 
ATOM     81  H40 non d ame     -14.075  10.634  71.484  0.00  0.00     0.075 H 
ATOM     82  H41 non d ame     -12.576  10.956  72.587  0.00  0.00     0.075 H 
ATOM     83  C28 non d ame     -11.503  11.928  69.903  0.00  0.00     0.193 C 
ATOM     84  H42 non d ame     -13.580  12.372  70.295  0.00  0.00     0.280 HD
ATOM     85  H43 non d ame     -12.495  12.873  71.572  0.00  0.00     0.280 HD
ATOM     86  H44 non d ame     -10.515  12.306  70.163  0.00  0.00     0.129 H 
ATOM     87  H37 non d ame     -10.232  10.705  70.215  0.00  0.00     0.046 H 
BRANCH  83  88
ATOM     88  O6  non d ame     -11.769  12.426  68.590  0.00  0.00    -0.369 OA
ATOM     89  H45 non d ame     -11.355  13.286  68.485  0.00  0.00     0.212 HD
ENDBRANCH  83  88
ENDBRANCH  72  75
ENDBRANCH  47  72
ENDBRANCH  45  47
ENDBRANCH   1  43
BRANCH   1  90
ATOM     90  C16 non d ame      -6.626  11.662  67.939  0.00  0.00    -0.035 C 
ATOM     91  H21 non d ame      -6.516  12.077  66.935  0.00  0.00     0.037 H 
ATOM     92  H22 non d ame      -7.494  11.925  68.544  0.00  0.00     0.037 H 
BRANCH  90  93
ATOM     93  C17 non d ame      -5.370  12.121  68.745  0.00  0.00    -0.059 C 
ATOM     94  H23 non d ame      -4.697  11.267  68.822  0.00  0.00     0.038 H 
BRANCH  93  95
ATOM     95  C18 non d ame      -4.596  13.272  68.027  0.00  0.00    -0.073 C 
ATOM     96  H24 non d ame      -4.184  12.902  67.088  0.00  0.00     0.028 H 
ATOM     97  H25 non d ame      -5.279  14.097  67.824  0.00  0.00     0.028 H 
ATOM     98  H26 non d ame      -3.786  13.620  68.668  0.00  0.00     0.028 H 
ENDBRANCH  93  95
BRANCH  93  99
ATOM     99  C19 non d ame      -5.753  12.528  70.171  0.00  0.00    -0.073 C 
ATOM    100  H27 non d ame      -6.638  11.972  70.482  0.00  0.00     0.028 H 
ATOM    101  H28 non d ame      -4.926  12.304  70.845  0.00  0.00     0.028 H 
ATOM    102  H29 non d ame      -5.965  13.597  70.199  0.00  0.00     0.028 H 
ENDBRANCH  93  99
ENDBRANCH  90  93
ENDBRANCH   1  90
TORSDOF 26
ENDMDL
MODEL 10
REMARK VINA RESULT:      -6.5      2.871      4.668
REMARK  26 active torsions:
REMARK  status: ('A' for Active; 'I' for Inactive)
REMARK    1  A    between atoms: C2_2  and  C3_3 
REMARK    2  A    between atoms: C4_6  and  C5_7 
REMARK       I    between atoms: C5_7  and  N2_9 
REMARK    3  A    between atoms: N2_9  and  C6_10 
REMARK    4  A    between atoms: C6_10  and  C7_11 
REMARK    5  A    between atoms: C6_10  and  C8_13 
REMARK       I    between atoms: C7_11  and  N3_14 
REMARK    6  A    between atoms: N3_14  and  C9_15 
REMARK    7  A    between atoms: C9_15  and  C10_16 
REMARK    8  A    between atoms: C9_15  and  C11_18 
REMARK       I    between atoms: C10_16  and  N4_21 
REMARK    9  A    between atoms: C11_18  and  C12_19 
REMARK   10  A    between atoms: C11_18  and  C13_20 
REMARK   11  A    between atoms: N4_21  and  C14_22 
REMARK   12  A    between atoms: C14_22  and  C15_23 
REMARK   13  A    between atoms: C14_22  and  C16_25 
REMARK       I    between atoms: C15_23  and  N6_40 
REMARK   14  A    between atoms: C16_25  and  C17_26 
REMARK   15  A    between atoms: C17_26  and  C18_27 
REMARK   16  A    between atoms: C17_26  and  C19_28 
REMARK   17  A    between atoms: C20_29  and  C21_30 
REMARK   18  A    between atoms: C20_29  and  C24_33 
REMARK   19  A    between atoms: C20_29  and  N6_40 
REMARK   20  A    between atoms: C21_30  and  C22_31 
REMARK   21  A    between atoms: C22_31  and  C23_32 
REMARK   22  A    between atoms: C23_32  and  O8_43 
REMARK   23  A    between atoms: C24_33  and  C25_34 
REMARK   24  A    between atoms: C28_38  and  O6_39 
REMARK   25  A    between atoms: C29_42  and  O8_43 
REMARK   26  A    between atoms: C29_42  and  C35_49 
ROOT
ATOM      1  C14 non d ame      -7.760   6.315  68.535  0.00  0.00     0.089 C 
ATOM      2  H20 non d ame      -8.073   5.272  68.483  0.00  0.00     0.087 H 
ENDROOT
BRANCH   1   3
ATOM      3  N4  non d ame      -7.058   6.624  67.298  0.00  0.00    -0.346 N 
ATOM      4  C10 non d ame      -7.368   5.860  66.034  0.00  0.00     0.241 C 
ATOM      5  O4  non d ame      -8.185   4.998  66.040  0.00  0.00    -0.271 OA
ATOM      6  H19 non d ame      -6.364   7.358  67.315  0.00  0.00     0.163 HD
BRANCH   4   7
ATOM      7  C9  non d ame      -6.636   6.195  64.762  0.00  0.00     0.092 C 
ATOM      8  H11 non d ame      -7.229   5.865  63.909  0.00  0.00     0.088 H 
BRANCH   7   9
ATOM      9  N3  non d ame      -6.491   7.650  64.651  0.00  0.00    -0.346 N 
ATOM     10  C7  non d ame      -7.105   8.354  63.553  0.00  0.00     0.240 C 
ATOM     11  O3  non d ame      -7.720   7.766  62.748  0.00  0.00    -0.271 OA
ATOM     12  H10 non d ame      -5.963   8.171  65.337  0.00  0.00     0.163 HD
BRANCH  10  13
ATOM     13  C6  non d ame      -6.944   9.902  63.438  0.00  0.00     0.086 C 
ATOM     14  H6  non d ame      -6.816  10.238  62.409  0.00  0.00     0.086 H 
BRANCH  13  15
ATOM     15  N2  non d ame      -8.152  10.539  63.937  0.00  0.00    -0.343 N 
ATOM     16  C5  non d ame      -9.154  11.030  62.988  0.00  0.00     0.273 C 
ATOM     17  O2  non d ame      -8.977  10.911  61.826  0.00  0.00    -0.266 OA
ATOM     18  H5  non d ame      -8.294  10.640  64.932  0.00  0.00     0.163 HD
BRANCH  16  19
ATOM     19  C4  non d ame     -10.435  11.705  63.501  0.00  0.00     0.154 A 
ATOM     20  C1  non d ame     -10.528  12.819  64.395  0.00  0.00    -0.017 A 
ATOM     21  C2  non d ame     -11.913  13.048  64.547  0.00  0.00     0.077 A 
ATOM     22  H1  non d ame      -9.715  13.376  64.860  0.00  0.00     0.091 H 
ATOM     23  O1  non d ame     -12.534  12.166  63.820  0.00  0.00    -0.218 OA
ATOM     24  N1  non d ame     -11.693  11.371  63.200  0.00  0.00    -0.123 NA
BRANCH  21  25
ATOM     25  C3  non d ame     -12.559  14.131  65.402  0.00  0.00    -0.029 C 
ATOM     26  H2  non d ame     -12.216  15.111  65.068  0.00  0.00     0.036 H 
ATOM     27  H3  non d ame     -13.642  14.073  65.305  0.00  0.00     0.036 H 
ATOM     28  H4  non d ame     -12.279  13.985  66.446  0.00  0.00     0.036 H 
ENDBRANCH  21  25
ENDBRANCH  16  19
ENDBRANCH  13  15
BRANCH  13  29
ATOM     29  C8  non d ame      -5.754  10.348  64.248  0.00  0.00    -0.049 C 
ATOM     30  H7  non d ame      -4.924   9.660  64.083  0.00  0.00     0.030 H 
ATOM     31  H8  non d ame      -5.460  11.351  63.943  0.00  0.00     0.030 H 
ATOM     32  H9  non d ame      -6.015  10.352  65.307  0.00  0.00     0.030 H 
ENDBRANCH  13  29
ENDBRANCH  10  13
ENDBRANCH   7   9
BRANCH   7  33
ATOM     33  C11 non d ame      -5.226   5.536  64.786  0.00  0.00    -0.033 C 
ATOM     34  H12 non d ame      -5.043   5.115  63.798  0.00  0.00     0.042 H 
BRANCH  33  35
ATOM     35  C12 non d ame      -4.110   6.591  65.062  0.00  0.00    -0.071 C 
ATOM     36  H13 non d ame      -3.376   6.563  64.256  0.00  0.00     0.028 H 
ATOM     37  H14 non d ame      -4.554   7.584  65.114  0.00  0.00     0.028 H 
ATOM     38  H15 non d ame      -3.620   6.361  66.007  0.00  0.00     0.028 H 
ENDBRANCH  33  35
BRANCH  33  39
ATOM     39  C13 non d ame      -5.171   4.370  65.825  0.00  0.00    -0.071 C 
ATOM     40  H16 non d ame      -4.579   4.679  66.686  0.00  0.00     0.028 H 
ATOM     41  H17 non d ame      -6.184   4.125  66.149  0.00  0.00     0.028 H 
ATOM     42  H18 non d ame      -4.715   3.494  65.365  0.00  0.00     0.028 H 
ENDBRANCH  33  39
ENDBRANCH   7  33
ENDBRANCH   4   7
ENDBRANCH   1   3
BRANCH   1  43
ATOM     43  C15 non d ame      -8.968   7.285  68.673  0.00  0.00     0.240 C 
ATOM     44  O5  non d ame     -10.073   6.880  68.511  0.00  0.00    -0.271 OA
ATOM     45  N6  non d ame      -8.746   8.720  69.016  0.00  0.00    -0.355 N 
ATOM     46  H46 non d ame      -7.812   9.074  69.159  0.00  0.00     0.162 HD
BRANCH  45  47
ATOM     47  C20 non d ame      -9.905   9.629  69.144  0.00  0.00     0.013 C 
ATOM     48  H30 non d ame     -10.675   9.293  68.449  0.00  0.00     0.072 H 
BRANCH  47  49
ATOM     49  C21 non d ame      -9.477  11.037  68.797  0.00  0.00    -0.038 C 
ATOM     50  H31 non d ame      -9.153  11.486  69.736  0.00  0.00     0.036 H 
ATOM     51  H32 non d ame      -8.774  10.936  67.970  0.00  0.00     0.036 H 
BRANCH  49  52
ATOM     52  C22 non d ame     -10.642  11.906  68.276  0.00  0.00     0.018 C 
ATOM     53  H33 non d ame     -10.874  11.525  67.281  0.00  0.00     0.048 H 
ATOM     54  H34 non d ame     -11.400  11.883  69.058  0.00  0.00     0.048 H 
BRANCH  52  55
ATOM     55  C23 non d ame     -10.270  13.403  68.084  0.00  0.00     0.259 C 
ATOM     56  O7  non d ame      -9.251  13.708  67.554  0.00  0.00    -0.265 OA
BRANCH  55  57
ATOM     57  O8  non d ame     -11.156  14.408  68.563  0.00  0.00    -0.317 OA
BRANCH  57  58
ATOM     58  C29 non d ame     -10.654  15.139  69.686  0.00  0.00     0.052 C 
ATOM     59  H47 non d ame      -9.718  14.653  69.959  0.00  0.00     0.082 H 
ATOM     60  H48 non d ame     -10.656  16.185  69.381  0.00  0.00     0.082 H 
BRANCH  58  61
ATOM     61  C35 non d ame     -11.658  14.967  70.856  0.00  0.00    -0.034 A 
ATOM     62  C30 non d ame     -11.760  15.947  71.838  0.00  0.00    -0.075 A 
ATOM     63  C31 non d ame     -12.662  15.792  72.889  0.00  0.00    -0.082 A 
ATOM     64  H49 non d ame     -11.133  16.837  71.783  0.00  0.00     0.084 H 
ATOM     65  C32 non d ame     -13.463  14.648  72.959  0.00  0.00    -0.083 A 
ATOM     66  H50 non d ame     -12.741  16.563  73.655  0.00  0.00     0.083 H 
ATOM     67  C33 non d ame     -13.356  13.671  71.978  0.00  0.00    -0.082 A 
ATOM     68  H51 non d ame     -14.171  14.520  73.777  0.00  0.00     0.083 H 
ATOM     69  C34 non d ame     -12.457  13.823  70.925  0.00  0.00    -0.075 A 
ATOM     70  H52 non d ame     -13.981  12.779  72.037  0.00  0.00     0.083 H 
ATOM     71  H53 non d ame     -12.380  13.051  70.158  0.00  0.00     0.084 H 
ENDBRANCH  58  61
ENDBRANCH  57  58
ENDBRANCH  55  57
ENDBRANCH  52  55
ENDBRANCH  49  52
ENDBRANCH  47  49
BRANCH  47  72
ATOM     72  C24 non d ame     -10.432   9.594  70.577  0.00  0.00    -0.039 C 
ATOM     73  H35 non d ame      -9.786   8.893  71.106  0.00  0.00     0.036 H 
ATOM     74  H36 non d ame     -10.479  10.636  70.895  0.00  0.00     0.036 H 
BRANCH  72  75
ATOM     75  C25 non d ame     -11.922   9.010  70.648  0.00  0.00    -0.001 C 
ATOM     76  C26 non d ame     -12.894  10.056  71.463  0.00  0.00    -0.035 C 
ATOM     77  C27 non d ame     -13.552   9.375  72.432  0.00  0.00     0.085 C 
ATOM     78  H38 non d ame     -12.290  10.772  72.020  0.00  0.00     0.036 H 
ATOM     79  H39 non d ame     -13.694  10.409  70.812  0.00  0.00     0.036 H 
ATOM     80  N5  non d ame     -12.875   8.032  72.564  0.00  0.00    -0.049 N 
ATOM     81  H40 non d ame     -13.394   9.945  73.348  0.00  0.00     0.075 H 
ATOM     82  H41 non d ame     -14.561   9.227  72.049  0.00  0.00     0.075 H 
ATOM     83  C28 non d ame     -11.950   7.869  71.251  0.00  0.00     0.193 C 
ATOM     84  H42 non d ame     -12.276   8.092  73.374  0.00  0.00     0.280 HD
ATOM     85  H43 non d ame     -13.607   7.337  72.529  0.00  0.00     0.280 HD
ATOM     86  H44 non d ame     -12.258   7.219  70.433  0.00  0.00     0.129 H 
ATOM     87  H37 non d ame     -12.274   8.660  69.677  0.00  0.00     0.046 H 
BRANCH  83  88
ATOM     88  O6  non d ame     -10.643   7.423  71.621  0.00  0.00    -0.369 OA
ATOM     89  H45 non d ame     -10.451   6.595  71.176  0.00  0.00     0.212 HD
ENDBRANCH  83  88
ENDBRANCH  72  75
ENDBRANCH  47  72
ENDBRANCH  45  47
ENDBRANCH   1  43
BRANCH   1  90
ATOM     90  C16 non d ame      -6.811   6.510  69.706  0.00  0.00    -0.035 C 
ATOM     91  H21 non d ame      -7.348   7.146  70.410  0.00  0.00     0.037 H 
ATOM     92  H22 non d ame      -6.506   5.506  70.001  0.00  0.00     0.037 H 
BRANCH  90  93
ATOM     93  C17 non d ame      -5.502   7.276  69.331  0.00  0.00    -0.059 C 
ATOM     94  H23 non d ame      -5.674   7.778  68.379  0.00  0.00     0.038 H 
BRANCH  93  95
ATOM     95  C18 non d ame      -5.135   8.368  70.387  0.00  0.00    -0.073 C 
ATOM     96  H24 non d ame      -6.040   8.887  70.701  0.00  0.00     0.028 H 
ATOM     97  H25 non d ame      -4.669   7.895  71.251  0.00  0.00     0.028 H 
ATOM     98  H26 non d ame      -4.440   9.082  69.944  0.00  0.00     0.028 H 
ENDBRANCH  93  95
BRANCH  93  99
ATOM     99  C19 non d ame      -4.337   6.303  69.127  0.00  0.00    -0.073 C 
ATOM    100  H27 non d ame      -4.449   5.801  68.165  0.00  0.00     0.028 H 
ATOM    101  H28 non d ame      -3.397   6.855  69.143  0.00  0.00     0.028 H 
ATOM    102  H29 non d ame      -4.338   5.563  69.927  0.00  0.00     0.028 H 
ENDBRANCH  93  99
ENDBRANCH  90  93
ENDBRANCH   1  90
TORSDOF 26
ENDMDL
MODEL 11
REMARK VINA RESULT:      -6.5      2.454      8.898
REMARK  26 active torsions:
REMARK  status: ('A' for Active; 'I' for Inactive)
REMARK    1  A    between atoms: C2_2  and  C3_3 
REMARK    2  A    between atoms: C4_6  and  C5_7 
REMARK       I    between atoms: C5_7  and  N2_9 
REMARK    3  A    between atoms: N2_9  and  C6_10 
REMARK    4  A    between atoms: C6_10  and  C7_11 
REMARK    5  A    between atoms: C6_10  and  C8_13 
REMARK       I    between atoms: C7_11  and  N3_14 
REMARK    6  A    between atoms: N3_14  and  C9_15 
REMARK    7  A    between atoms: C9_15  and  C10_16 
REMARK    8  A    between atoms: C9_15  and  C11_18 
REMARK       I    between atoms: C10_16  and  N4_21 
REMARK    9  A    between atoms: C11_18  and  C12_19 
REMARK   10  A    between atoms: C11_18  and  C13_20 
REMARK   11  A    between atoms: N4_21  and  C14_22 
REMARK   12  A    between atoms: C14_22  and  C15_23 
REMARK   13  A    between atoms: C14_22  and  C16_25 
REMARK       I    between atoms: C15_23  and  N6_40 
REMARK   14  A    between atoms: C16_25  and  C17_26 
REMARK   15  A    between atoms: C17_26  and  C18_27 
REMARK   16  A    between atoms: C17_26  and  C19_28 
REMARK   17  A    between atoms: C20_29  and  C21_30 
REMARK   18  A    between atoms: C20_29  and  C24_33 
REMARK   19  A    between atoms: C20_29  and  N6_40 
REMARK   20  A    between atoms: C21_30  and  C22_31 
REMARK   21  A    between atoms: C22_31  and  C23_32 
REMARK   22  A    between atoms: C23_32  and  O8_43 
REMARK   23  A    between atoms: C24_33  and  C25_34 
REMARK   24  A    between atoms: C28_38  and  O6_39 
REMARK   25  A    between atoms: C29_42  and  O8_43 
REMARK   26  A    between atoms: C29_42  and  C35_49 
ROOT
ATOM      1  C14 non d ame      -7.586   9.387  64.376  0.00  0.00     0.089 C 
ATOM      2  H20 non d ame      -7.375   9.875  63.424  0.00  0.00     0.087 H 
ENDROOT
BRANCH   1   3
ATOM      3  N4  non d ame      -8.729  10.064  64.971  0.00  0.00    -0.346 N 
ATOM      4  C10 non d ame      -9.720  10.796  64.100  0.00  0.00     0.241 C 
ATOM      5  O4  non d ame      -9.573  10.828  62.922  0.00  0.00    -0.271 OA
ATOM      6  H19 non d ame      -8.834  10.027  65.975  0.00  0.00     0.163 HD
BRANCH   4   7
ATOM      7  C9  non d ame     -10.899  11.486  64.732  0.00  0.00     0.092 C 
ATOM      8  H11 non d ame     -11.578  10.737  65.140  0.00  0.00     0.088 H 
BRANCH   7   9
ATOM      9  N3  non d ame     -10.440  12.311  65.854  0.00  0.00    -0.346 N 
ATOM     10  C7  non d ame     -11.088  12.206  67.137  0.00  0.00     0.240 C 
ATOM     11  O3  non d ame     -11.982  11.465  67.286  0.00  0.00    -0.271 OA
ATOM     12  H10 non d ame      -9.671  12.956  65.741  0.00  0.00     0.163 HD
BRANCH  10  13
ATOM     13  C6  non d ame     -10.597  13.089  68.327  0.00  0.00     0.086 C 
ATOM     14  H6  non d ame      -9.542  12.938  68.557  0.00  0.00     0.086 H 
BRANCH  13  15
ATOM     15  N2  non d ame     -10.747  14.490  67.968  0.00  0.00    -0.343 N 
ATOM     16  C5  non d ame      -9.651  15.182  67.286  0.00  0.00     0.273 C 
ATOM     17  O2  non d ame      -8.652  14.604  67.033  0.00  0.00    -0.266 OA
ATOM     18  H5  non d ame     -11.604  14.977  68.190  0.00  0.00     0.163 HD
BRANCH  16  19
ATOM     19  C4  non d ame      -9.797  16.662  66.900  0.00  0.00     0.154 A 
ATOM     20  C1  non d ame      -9.599  17.800  67.745  0.00  0.00    -0.017 A 
ATOM     21  C2  non d ame      -9.855  18.915  66.918  0.00  0.00     0.077 A 
ATOM     22  H1  non d ame      -9.314  17.813  68.797  0.00  0.00     0.091 H 
ATOM     23  O1  non d ame     -10.160  18.461  65.737  0.00  0.00    -0.218 OA
ATOM     24  N1  non d ame     -10.133  17.149  65.702  0.00  0.00    -0.123 NA
BRANCH  21  25
ATOM     25  C3  non d ame      -9.783  20.380  67.331  0.00  0.00    -0.029 C 
ATOM     26  H2  non d ame     -10.792  20.782  67.421  0.00  0.00     0.036 H 
ATOM     27  H3  non d ame      -9.272  20.462  68.290  0.00  0.00     0.036 H 
ATOM     28  H4  non d ame      -9.232  20.944  66.577  0.00  0.00     0.036 H 
ENDBRANCH  21  25
ENDBRANCH  16  19
ENDBRANCH  13  15
BRANCH  13  29
ATOM     29  C8  non d ame     -11.413  12.781  69.556  0.00  0.00    -0.049 C 
ATOM     30  H7  non d ame     -10.834  12.144  70.226  0.00  0.00     0.030 H 
ATOM     31  H8  non d ame     -11.667  13.709  70.067  0.00  0.00     0.030 H 
ATOM     32  H9  non d ame     -12.327  12.263  69.265  0.00  0.00     0.030 H 
ENDBRANCH  13  29
ENDBRANCH  10  13
ENDBRANCH   7   9
BRANCH   7  33
ATOM     33  C11 non d ame     -11.596  12.393  63.675  0.00  0.00    -0.033 C 
ATOM     34  H12 non d ame     -10.942  12.447  62.806  0.00  0.00     0.042 H 
BRANCH  33  35
ATOM     35  C12 non d ame     -12.953  11.781  63.207  0.00  0.00    -0.071 C 
ATOM     36  H13 non d ame     -13.337  11.115  63.979  0.00  0.00     0.028 H 
ATOM     37  H14 non d ame     -13.669  12.581  63.027  0.00  0.00     0.028 H 
ATOM     38  H15 non d ame     -12.797  11.218  62.287  0.00  0.00     0.028 H 
ENDBRANCH  33  35
BRANCH  33  39
ATOM     39  C13 non d ame     -11.789  13.843  64.224  0.00  0.00    -0.071 C 
ATOM     40  H16 non d ame     -11.056  14.037  65.006  0.00  0.00     0.028 H 
ATOM     41  H17 non d ame     -11.654  14.560  63.414  0.00  0.00     0.028 H 
ATOM     42  H18 non d ame     -12.794  13.945  64.635  0.00  0.00     0.028 H 
ENDBRANCH  33  39
ENDBRANCH   7  33
ENDBRANCH   4   7
ENDBRANCH   1   3
BRANCH   1  43
ATOM     43  C15 non d ame      -7.939   7.883  64.200  0.00  0.00     0.240 C 
ATOM     44  O5  non d ame      -8.134   7.444  63.113  0.00  0.00    -0.271 OA
ATOM     45  N6  non d ame      -8.026   6.985  65.388  0.00  0.00    -0.355 N 
ATOM     46  H46 non d ame      -7.859   7.346  66.316  0.00  0.00     0.162 HD
BRANCH  45  47
ATOM     47  C20 non d ame      -8.362   5.557  65.204  0.00  0.00     0.013 C 
ATOM     48  H30 non d ame      -8.400   5.356  64.134  0.00  0.00     0.072 H 
BRANCH  47  49
ATOM     49  C21 non d ame      -9.709   5.275  65.830  0.00  0.00    -0.038 C 
ATOM     50  H31 non d ame     -10.372   6.060  65.468  0.00  0.00     0.036 H 
ATOM     51  H32 non d ame      -9.926   4.231  65.605  0.00  0.00     0.036 H 
BRANCH  49  52
ATOM     52  C22 non d ame      -9.690   5.395  67.370  0.00  0.00     0.018 C 
ATOM     53  H33 non d ame     -10.394   4.645  67.733  0.00  0.00     0.048 H 
ATOM     54  H34 non d ame      -8.641   5.341  67.658  0.00  0.00     0.048 H 
BRANCH  52  55
ATOM     55  C23 non d ame     -10.211   6.760  67.899  0.00  0.00     0.259 C 
ATOM     56  O7  non d ame     -10.639   7.574  67.147  0.00  0.00    -0.265 OA
BRANCH  55  57
ATOM     57  O8  non d ame     -10.157   7.034  69.294  0.00  0.00    -0.317 OA
BRANCH  57  58
ATOM     58  C29 non d ame     -11.200   6.409  70.049  0.00  0.00     0.052 C 
ATOM     59  H47 non d ame     -11.842   5.921  69.318  0.00  0.00     0.082 H 
ATOM     60  H48 non d ame     -10.696   5.817  70.812  0.00  0.00     0.082 H 
BRANCH  58  61
ATOM     61  C35 non d ame     -12.015   7.526  70.754  0.00  0.00    -0.034 A 
ATOM     62  C30 non d ame     -11.510   8.820  70.822  0.00  0.00    -0.075 A 
ATOM     63  C31 non d ame     -12.243   9.823  71.455  0.00  0.00    -0.082 A 
ATOM     64  H49 non d ame     -10.541   9.049  70.378  0.00  0.00     0.084 H 
ATOM     65  C32 non d ame     -13.484   9.527  72.025  0.00  0.00    -0.083 A 
ATOM     66  H50 non d ame     -11.846  10.837  71.504  0.00  0.00     0.083 H 
ATOM     67  C33 non d ame     -13.982   8.232  71.959  0.00  0.00    -0.082 A 
ATOM     68  H51 non d ame     -14.063  10.305  72.521  0.00  0.00     0.083 H 
ATOM     69  C34 non d ame     -13.254   7.228  71.324  0.00  0.00    -0.075 A 
ATOM     70  H52 non d ame     -14.950   8.004  72.406  0.00  0.00     0.083 H 
ATOM     71  H53 non d ame     -13.653   6.214  71.275  0.00  0.00     0.084 H 
ENDBRANCH  58  61
ENDBRANCH  57  58
ENDBRANCH  55  57
ENDBRANCH  52  55
ENDBRANCH  49  52
ENDBRANCH  47  49
BRANCH  47  72
ATOM     72  C24 non d ame      -7.297   4.687  65.870  0.00  0.00    -0.039 C 
ATOM     73  H35 non d ame      -7.667   4.498  66.878  0.00  0.00     0.036 H 
ATOM     74  H36 non d ame      -7.133   3.855  65.185  0.00  0.00     0.036 H 
BRANCH  72  75
ATOM     75  C25 non d ame      -5.903   5.462  66.015  0.00  0.00    -0.001 C 
ATOM     76  C26 non d ame      -4.927   5.100  64.742  0.00  0.00    -0.035 C 
ATOM     77  C27 non d ame      -3.720   4.707  65.216  0.00  0.00     0.085 C 
ATOM     78  H38 non d ame      -5.298   4.216  64.225  0.00  0.00     0.036 H 
ATOM     79  H39 non d ame      -4.697   6.004  64.178  0.00  0.00     0.036 H 
ATOM     80  N5  non d ame      -3.888   4.454  66.695  0.00  0.00    -0.049 N 
ATOM     81  H40 non d ame      -3.505   3.762  64.716  0.00  0.00     0.075 H 
ATOM     82  H41 non d ame      -3.060   5.561  65.075  0.00  0.00     0.075 H 
ATOM     83  C28 non d ame      -5.295   5.132  67.105  0.00  0.00     0.193 C 
ATOM     84  H42 non d ame      -3.969   3.454  66.807  0.00  0.00     0.280 HD
ATOM     85  H43 non d ame      -3.144   4.955  67.158  0.00  0.00     0.280 HD
ATOM     86  H44 non d ame      -5.318   6.081  67.640  0.00  0.00     0.129 H 
ATOM     87  H37 non d ame      -6.040   6.518  66.250  0.00  0.00     0.046 H 
BRANCH  83  88
ATOM     88  O6  non d ame      -6.066   4.228  67.899  0.00  0.00    -0.369 OA
ATOM     89  H45 non d ame      -6.734   4.718  68.383  0.00  0.00     0.212 HD
ENDBRANCH  83  88
ENDBRANCH  72  75
ENDBRANCH  47  72
ENDBRANCH  45  47
ENDBRANCH   1  43
BRANCH   1  90
ATOM     90  C16 non d ame      -6.390   9.527  65.303  0.00  0.00    -0.035 C 
ATOM     91  H21 non d ame      -6.330  10.590  65.539  0.00  0.00     0.037 H 
ATOM     92  H22 non d ame      -6.554   8.801  66.099  0.00  0.00     0.037 H 
BRANCH  90  93
ATOM     93  C17 non d ame      -5.030   9.147  64.634  0.00  0.00    -0.059 C 
ATOM     94  H23 non d ame      -5.219   8.322  63.947  0.00  0.00     0.038 H 
BRANCH  93  95
ATOM     95  C18 non d ame      -4.430  10.328  63.806  0.00  0.00    -0.073 C 
ATOM     96  H24 non d ame      -4.393  11.224  64.427  0.00  0.00     0.028 H 
ATOM     97  H25 non d ame      -3.422  10.069  63.483  0.00  0.00     0.028 H 
ATOM     98  H26 non d ame      -5.056  10.515  62.933  0.00  0.00     0.028 H 
ENDBRANCH  93  95
BRANCH  93  99
ATOM     99  C19 non d ame      -4.027   8.648  65.677  0.00  0.00    -0.073 C 
ATOM    100  H27 non d ame      -4.500   7.888  66.301  0.00  0.00     0.028 H 
ATOM    101  H28 non d ame      -3.162   8.217  65.171  0.00  0.00     0.028 H 
ATOM    102  H29 non d ame      -3.705   9.482  66.300  0.00  0.00     0.028 H 
ENDBRANCH  93  99
ENDBRANCH  90  93
ENDBRANCH   1  90
TORSDOF 26
ENDMDL
MODEL 12
REMARK VINA RESULT:      -6.4      2.454      4.698
REMARK  26 active torsions:
REMARK  status: ('A' for Active; 'I' for Inactive)
REMARK    1  A    between atoms: C2_2  and  C3_3 
REMARK    2  A    between atoms: C4_6  and  C5_7 
REMARK       I    between atoms: C5_7  and  N2_9 
REMARK    3  A    between atoms: N2_9  and  C6_10 
REMARK    4  A    between atoms: C6_10  and  C7_11 
REMARK    5  A    between atoms: C6_10  and  C8_13 
REMARK       I    between atoms: C7_11  and  N3_14 
REMARK    6  A    between atoms: N3_14  and  C9_15 
REMARK    7  A    between atoms: C9_15  and  C10_16 
REMARK    8  A    between atoms: C9_15  and  C11_18 
REMARK       I    between atoms: C10_16  and  N4_21 
REMARK    9  A    between atoms: C11_18  and  C12_19 
REMARK   10  A    between atoms: C11_18  and  C13_20 
REMARK   11  A    between atoms: N4_21  and  C14_22 
REMARK   12  A    between atoms: C14_22  and  C15_23 
REMARK   13  A    between atoms: C14_22  and  C16_25 
REMARK       I    between atoms: C15_23  and  N6_40 
REMARK   14  A    between atoms: C16_25  and  C17_26 
REMARK   15  A    between atoms: C17_26  and  C18_27 
REMARK   16  A    between atoms: C17_26  and  C19_28 
REMARK   17  A    between atoms: C20_29  and  C21_30 
REMARK   18  A    between atoms: C20_29  and  C24_33 
REMARK   19  A    between atoms: C20_29  and  N6_40 
REMARK   20  A    between atoms: C21_30  and  C22_31 
REMARK   21  A    between atoms: C22_31  and  C23_32 
REMARK   22  A    between atoms: C23_32  and  O8_43 
REMARK   23  A    between atoms: C24_33  and  C25_34 
REMARK   24  A    between atoms: C28_38  and  O6_39 
REMARK   25  A    between atoms: C29_42  and  O8_43 
REMARK   26  A    between atoms: C29_42  and  C35_49 
ROOT
ATOM      1  C14 non d ame      -7.406  10.591  67.767  0.00  0.00     0.089 C 
ATOM      2  H20 non d ame      -6.981   9.830  68.423  0.00  0.00     0.087 H 
ENDROOT
BRANCH   1   3
ATOM      3  N4  non d ame      -7.025  10.254  66.403  0.00  0.00    -0.346 N 
ATOM      4  C10 non d ame      -6.317   8.955  66.109  0.00  0.00     0.241 C 
ATOM      5  O4  non d ame      -6.062   8.197  66.987  0.00  0.00    -0.271 OA
ATOM      6  H19 non d ame      -7.247  10.912  65.670  0.00  0.00     0.163 HD
BRANCH   4   7
ATOM      7  C9  non d ame      -5.934   8.620  64.691  0.00  0.00     0.092 C 
ATOM      8  H11 non d ame      -6.270   7.610  64.457  0.00  0.00     0.088 H 
BRANCH   7   9
ATOM      9  N3  non d ame      -6.623   9.529  63.770  0.00  0.00    -0.346 N 
ATOM     10  C7  non d ame      -8.044   9.404  63.563  0.00  0.00     0.240 C 
ATOM     11  O3  non d ame      -8.650   8.577  64.128  0.00  0.00    -0.271 OA
ATOM     12  H10 non d ame      -6.114  10.247  63.275  0.00  0.00     0.163 HD
BRANCH  10  13
ATOM     13  C6  non d ame      -8.772  10.373  62.580  0.00  0.00     0.086 C 
ATOM     14  H6  non d ame      -9.698   9.956  62.184  0.00  0.00     0.086 H 
BRANCH  13  15
ATOM     15  N2  non d ame      -9.135  11.585  63.295  0.00  0.00    -0.343 N 
ATOM     16  C5  non d ame     -10.544  11.855  63.590  0.00  0.00     0.273 C 
ATOM     17  O2  non d ame     -11.377  11.092  63.245  0.00  0.00    -0.266 OA
ATOM     18  H5  non d ame      -8.415  12.234  63.583  0.00  0.00     0.163 HD
BRANCH  16  19
ATOM     19  C4  non d ame     -10.941  13.132  64.346  0.00  0.00     0.154 A 
ATOM     20  C1  non d ame     -10.089  14.225  64.706  0.00  0.00    -0.017 A 
ATOM     21  C2  non d ame     -10.932  15.136  65.379  0.00  0.00     0.077 A 
ATOM     22  H1  non d ame      -9.023  14.339  64.507  0.00  0.00     0.091 H 
ATOM     23  O1  non d ame     -12.126  14.620  65.397  0.00  0.00    -0.218 OA
ATOM     24  N1  non d ame     -12.156  13.450  64.801  0.00  0.00    -0.123 NA
BRANCH  21  25
ATOM     25  C3  non d ame     -10.519  16.477  65.972  0.00  0.00    -0.029 C 
ATOM     26  H2  non d ame      -9.542  16.762  65.582  0.00  0.00     0.036 H 
ATOM     27  H3  non d ame     -11.253  17.236  65.702  0.00  0.00     0.036 H 
ATOM     28  H4  non d ame     -10.466  16.393  67.059  0.00  0.00     0.036 H 
ENDBRANCH  21  25
ENDBRANCH  16  19
ENDBRANCH  13  15
BRANCH  13  29
ATOM     29  C8  non d ame      -7.856  10.706  61.429  0.00  0.00    -0.049 C 
ATOM     30  H7  non d ame      -6.820  10.564  61.737  0.00  0.00     0.030 H 
ATOM     31  H8  non d ame      -8.079  10.054  60.586  0.00  0.00     0.030 H 
ATOM     32  H9  non d ame      -8.007  11.745  61.135  0.00  0.00     0.030 H 
ENDBRANCH  13  29
ENDBRANCH  10  13
ENDBRANCH   7   9
BRANCH   7  33
ATOM     33  C11 non d ame      -4.395   8.779  64.519  0.00  0.00    -0.033 C 
ATOM     34  H12 non d ame      -3.920   7.918  64.988  0.00  0.00     0.042 H 
BRANCH  33  35
ATOM     35  C12 non d ame      -3.989   8.776  63.012  0.00  0.00    -0.071 C 
ATOM     36  H13 non d ame      -4.152   7.783  62.593  0.00  0.00     0.028 H 
ATOM     37  H14 non d ame      -4.595   9.502  62.471  0.00  0.00     0.028 H 
ATOM     38  H15 non d ame      -2.936   9.040  62.920  0.00  0.00     0.028 H 
ENDBRANCH  33  35
BRANCH  33  39
ATOM     39  C13 non d ame      -3.882  10.066  65.240  0.00  0.00    -0.071 C 
ATOM     40  H16 non d ame      -3.873   9.900  66.317  0.00  0.00     0.028 H 
ATOM     41  H17 non d ame      -2.871  10.295  64.900  0.00  0.00     0.028 H 
ATOM     42  H18 non d ame      -4.541  10.902  65.006  0.00  0.00     0.028 H 
ENDBRANCH  33  39
ENDBRANCH   7  33
ENDBRANCH   4   7
ENDBRANCH   1   3
BRANCH   1  43
ATOM     43  C15 non d ame      -8.958  10.637  67.848  0.00  0.00     0.240 C 
ATOM     44  O5  non d ame      -9.604  10.616  66.851  0.00  0.00    -0.271 OA
ATOM     45  N6  non d ame      -9.641  10.699  69.172  0.00  0.00    -0.355 N 
ATOM     46  H46 non d ame      -9.103  10.714  70.026  0.00  0.00     0.162 HD
BRANCH  45  47
ATOM     47  C20 non d ame     -11.118  10.742  69.234  0.00  0.00     0.013 C 
ATOM     48  H30 non d ame     -11.502  10.534  68.235  0.00  0.00     0.072 H 
BRANCH  47  49
ATOM     49  C21 non d ame     -11.561  12.117  69.680  0.00  0.00    -0.038 C 
ATOM     50  H31 non d ame     -12.614  12.018  69.939  0.00  0.00     0.036 H 
ATOM     51  H32 non d ame     -10.840  12.428  70.437  0.00  0.00     0.036 H 
BRANCH  49  52
ATOM     52  C22 non d ame     -11.486  13.167  68.549  0.00  0.00     0.018 C 
ATOM     53  H33 non d ame     -11.299  12.603  67.635  0.00  0.00     0.048 H 
ATOM     54  H34 non d ame     -12.391  13.767  68.643  0.00  0.00     0.048 H 
BRANCH  52  55
ATOM     55  C23 non d ame     -10.297  14.157  68.692  0.00  0.00     0.259 C 
ATOM     56  O7  non d ame      -9.216  13.862  68.297  0.00  0.00    -0.265 OA
BRANCH  55  57
ATOM     57  O8  non d ame     -10.512  15.419  69.313  0.00  0.00    -0.317 OA
BRANCH  57  58
ATOM     58  C29 non d ame     -11.877  15.848  69.300  0.00  0.00     0.052 C 
ATOM     59  H47 non d ame     -11.850  16.909  69.054  0.00  0.00     0.082 H 
ATOM     60  H48 non d ame     -12.399  15.150  68.646  0.00  0.00     0.082 H 
BRANCH  58  61
ATOM     61  C35 non d ame     -12.442  15.691  70.737  0.00  0.00    -0.034 A 
ATOM     62  C30 non d ame     -13.716  15.168  70.932  0.00  0.00    -0.075 A 
ATOM     63  C31 non d ame     -14.223  15.026  72.224  0.00  0.00    -0.082 A 
ATOM     64  H49 non d ame     -14.317  14.868  70.074  0.00  0.00     0.084 H 
ATOM     65  C32 non d ame     -13.451  15.414  73.322  0.00  0.00    -0.083 A 
ATOM     66  H50 non d ame     -15.221  14.613  72.373  0.00  0.00     0.083 H 
ATOM     67  C33 non d ame     -12.181  15.939  73.123  0.00  0.00    -0.082 A 
ATOM     68  H51 non d ame     -13.840  15.306  74.335  0.00  0.00     0.083 H 
ATOM     69  C34 non d ame     -11.670  16.079  71.834  0.00  0.00    -0.075 A 
ATOM     70  H52 non d ame     -11.583  16.242  73.983  0.00  0.00     0.083 H 
ATOM     71  H53 non d ame     -10.671  16.491  71.686  0.00  0.00     0.084 H 
ENDBRANCH  58  61
ENDBRANCH  57  58
ENDBRANCH  55  57
ENDBRANCH  52  55
ENDBRANCH  49  52
ENDBRANCH  47  49
BRANCH  47  72
ATOM     72  C24 non d ame     -11.624   9.696  70.225  0.00  0.00    -0.039 C 
ATOM     73  H35 non d ame     -11.661  10.205  71.189  0.00  0.00     0.036 H 
ATOM     74  H36 non d ame     -12.538   9.297  69.785  0.00  0.00     0.036 H 
BRANCH  72  75
ATOM     75  C25 non d ame     -10.599   8.474  70.374  0.00  0.00    -0.001 C 
ATOM     76  C26 non d ame     -10.843   7.389  69.163  0.00  0.00    -0.035 C 
ATOM     77  C27 non d ame     -10.980   6.155  69.704  0.00  0.00     0.085 C 
ATOM     78  H38 non d ame     -11.806   7.568  68.688  0.00  0.00     0.036 H 
ATOM     79  H39 non d ame      -9.943   7.300  68.553  0.00  0.00     0.036 H 
ATOM     80  N5  non d ame     -11.181   6.345  71.189  0.00  0.00    -0.049 N 
ATOM     81  H40 non d ame     -11.895   5.748  69.272  0.00  0.00     0.075 H 
ATOM     82  H41 non d ame     -10.028   5.655  69.536  0.00  0.00     0.075 H 
ATOM     83  C28 non d ame     -10.752   7.869  71.504  0.00  0.00     0.193 C 
ATOM     84  H42 non d ame     -12.171   6.247  71.359  0.00  0.00     0.280 HD
ATOM     85  H43 non d ame     -10.526   5.727  71.647  0.00  0.00     0.280 HD
ATOM     86  H44 non d ame      -9.796   8.090  71.979  0.00  0.00     0.129 H 
ATOM     87  H37 non d ame      -9.575   8.813  70.538  0.00  0.00     0.046 H 
BRANCH  83  88
ATOM     88  O6  non d ame     -11.739   8.500  72.323  0.00  0.00    -0.369 OA
ATOM     89  H45 non d ame     -12.304   9.050  71.775  0.00  0.00     0.212 HD
ENDBRANCH  83  88
ENDBRANCH  72  75
ENDBRANCH  47  72
ENDBRANCH  45  47
ENDBRANCH   1  43
BRANCH   1  90
ATOM     90  C16 non d ame      -6.834  11.954  68.119  0.00  0.00    -0.035 C 
ATOM     91  H21 non d ame      -5.909  12.036  67.547  0.00  0.00     0.037 H 
ATOM     92  H22 non d ame      -7.645  12.661  67.947  0.00  0.00     0.037 H 
BRANCH  90  93
ATOM     93  C17 non d ame      -6.435  12.097  69.623  0.00  0.00    -0.059 C 
ATOM     94  H23 non d ame      -7.328  12.390  70.175  0.00  0.00     0.038 H 
BRANCH  93  95
ATOM     95  C18 non d ame      -5.922  10.751  70.227  0.00  0.00    -0.073 C 
ATOM     96  H24 non d ame      -6.691  10.327  70.874  0.00  0.00     0.028 H 
ATOM     97  H25 non d ame      -5.700  10.052  69.421  0.00  0.00     0.028 H 
ATOM     98  H26 non d ame      -5.018  10.935  70.808  0.00  0.00     0.028 H 
ENDBRANCH  93  95
BRANCH  93  99
ATOM     99  C19 non d ame      -5.399  13.208  69.811  0.00  0.00    -0.073 C 
ATOM    100  H27 non d ame      -5.034  13.193  70.838  0.00  0.00     0.028 H 
ATOM    101  H28 non d ame      -4.567  13.048  69.125  0.00  0.00     0.028 H 
ATOM    102  H29 non d ame      -5.860  14.174  69.602  0.00  0.00     0.028 H 
ENDBRANCH  93  99
ENDBRANCH  90  93
ENDBRANCH   1  90
TORSDOF 26
ENDMDL
MODEL 13
REMARK VINA RESULT:      -6.4      2.568      9.018
REMARK  26 active torsions:
REMARK  status: ('A' for Active; 'I' for Inactive)
REMARK    1  A    between atoms: C2_2  and  C3_3 
REMARK    2  A    between atoms: C4_6  and  C5_7 
REMARK       I    between atoms: C5_7  and  N2_9 
REMARK    3  A    between atoms: N2_9  and  C6_10 
REMARK    4  A    between atoms: C6_10  and  C7_11 
REMARK    5  A    between atoms: C6_10  and  C8_13 
REMARK       I    between atoms: C7_11  and  N3_14 
REMARK    6  A    between atoms: N3_14  and  C9_15 
REMARK    7  A    between atoms: C9_15  and  C10_16 
REMARK    8  A    between atoms: C9_15  and  C11_18 
REMARK       I    between atoms: C10_16  and  N4_21 
REMARK    9  A    between atoms: C11_18  and  C12_19 
REMARK   10  A    between atoms: C11_18  and  C13_20 
REMARK   11  A    between atoms: N4_21  and  C14_22 
REMARK   12  A    between atoms: C14_22  and  C15_23 
REMARK   13  A    between atoms: C14_22  and  C16_25 
REMARK       I    between atoms: C15_23  and  N6_40 
REMARK   14  A    between atoms: C16_25  and  C17_26 
REMARK   15  A    between atoms: C17_26  and  C18_27 
REMARK   16  A    between atoms: C17_26  and  C19_28 
REMARK   17  A    between atoms: C20_29  and  C21_30 
REMARK   18  A    between atoms: C20_29  and  C24_33 
REMARK   19  A    between atoms: C20_29  and  N6_40 
REMARK   20  A    between atoms: C21_30  and  C22_31 
REMARK   21  A    between atoms: C22_31  and  C23_32 
REMARK   22  A    between atoms: C23_32  and  O8_43 
REMARK   23  A    between atoms: C24_33  and  C25_34 
REMARK   24  A    between atoms: C28_38  and  O6_39 
REMARK   25  A    between atoms: C29_42  and  O8_43 
REMARK   26  A    between atoms: C29_42  and  C35_49 
ROOT
ATOM      1  C14 non d ame      -7.999   7.755  63.753  0.00  0.00     0.089 C 
ATOM      2  H20 non d ame      -8.157   7.893  62.683  0.00  0.00     0.087 H 
ENDROOT
BRANCH   1   3
ATOM      3  N4  non d ame      -8.953   8.605  64.450  0.00  0.00    -0.346 N 
ATOM      4  C10 non d ame      -9.454   9.875  63.806  0.00  0.00     0.241 C 
ATOM      5  O4  non d ame      -9.072  10.191  62.727  0.00  0.00    -0.271 OA
ATOM      6  H19 non d ame      -9.263   8.320  65.368  0.00  0.00     0.163 HD
BRANCH   4   7
ATOM      7  C9  non d ame     -10.444  10.741  64.538  0.00  0.00     0.092 C 
ATOM      8  H11 non d ame     -11.304  10.136  64.829  0.00  0.00     0.088 H 
BRANCH   7   9
ATOM      9  N3  non d ame      -9.834  11.245  65.773  0.00  0.00    -0.346 N 
ATOM     10  C7  non d ame     -10.544  11.140  67.023  0.00  0.00     0.240 C 
ATOM     11  O3  non d ame     -11.609  10.654  67.055  0.00  0.00    -0.271 OA
ATOM     12  H10 non d ame      -8.916  11.668  65.761  0.00  0.00     0.163 HD
BRANCH  10  13
ATOM     13  C6  non d ame      -9.890  11.682  68.332  0.00  0.00     0.086 C 
ATOM     14  H6  non d ame      -8.801  11.695  68.286  0.00  0.00     0.086 H 
BRANCH  13  15
ATOM     15  N2  non d ame     -10.314  13.058  68.537  0.00  0.00    -0.343 N 
ATOM     16  C5  non d ame      -9.570  14.145  67.898  0.00  0.00     0.273 C 
ATOM     17  O2  non d ame      -8.629  13.903  67.225  0.00  0.00    -0.266 OA
ATOM     18  H5  non d ame     -11.117  13.255  69.116  0.00  0.00     0.163 HD
BRANCH  16  19
ATOM     19  C4  non d ame     -10.007  15.603  68.105  0.00  0.00     0.154 A 
ATOM     20  C1  non d ame      -9.834  16.696  67.197  0.00  0.00    -0.017 A 
ATOM     21  C2  non d ame     -10.404  17.808  67.854  0.00  0.00     0.077 A 
ATOM     22  H1  non d ame      -9.366  16.683  66.212  0.00  0.00     0.091 H 
ATOM     23  O1  non d ame     -10.852  17.393  69.002  0.00  0.00    -0.218 OA
ATOM     24  N1  non d ame     -10.632  16.109  69.171  0.00  0.00    -0.123 NA
BRANCH  21  25
ATOM     25  C3  non d ame     -10.482  19.231  67.315  0.00  0.00    -0.029 C 
ATOM     26  H2  non d ame      -9.675  19.393  66.599  0.00  0.00     0.036 H 
ATOM     27  H3  non d ame     -11.441  19.380  66.820  0.00  0.00     0.036 H 
ATOM     28  H4  non d ame     -10.384  19.938  68.139  0.00  0.00     0.036 H 
ENDBRANCH  21  25
ENDBRANCH  16  19
ENDBRANCH  13  15
BRANCH  13  29
ATOM     29  C8  non d ame     -10.318  10.831  69.500  0.00  0.00    -0.049 C 
ATOM     30  H7  non d ame     -10.339  11.440  70.405  0.00  0.00     0.030 H 
ATOM     31  H8  non d ame     -11.312  10.427  69.312  0.00  0.00     0.030 H 
ATOM     32  H9  non d ame      -9.611  10.012  69.631  0.00  0.00     0.030 H 
ENDBRANCH  13  29
ENDBRANCH  10  13
ENDBRANCH   7   9
BRANCH   7  33
ATOM     33  C11 non d ame     -10.850  11.941  63.635  0.00  0.00    -0.033 C 
ATOM     34  H12 non d ame     -10.262  11.879  62.721  0.00  0.00     0.042 H 
BRANCH  33  35
ATOM     35  C12 non d ame     -12.356  11.865  63.231  0.00  0.00    -0.071 C 
ATOM     36  H13 non d ame     -12.733  12.870  63.041  0.00  0.00     0.028 H 
ATOM     37  H14 non d ame     -12.460  11.262  62.330  0.00  0.00     0.028 H 
ATOM     38  H15 non d ame     -12.925  11.411  64.041  0.00  0.00     0.028 H 
ENDBRANCH  33  35
BRANCH  33  39
ATOM     39  C13 non d ame     -10.520  13.301  64.331  0.00  0.00    -0.071 C 
ATOM     40  H16 non d ame     -10.168  14.014  63.586  0.00  0.00     0.028 H 
ATOM     41  H17 non d ame     -11.419  13.692  64.810  0.00  0.00     0.028 H 
ATOM     42  H18 non d ame      -9.746  13.147  65.082  0.00  0.00     0.028 H 
ENDBRANCH  33  39
ENDBRANCH   7  33
ENDBRANCH   4   7
ENDBRANCH   1   3
BRANCH   1  43
ATOM     43  C15 non d ame      -8.234   6.283  64.197  0.00  0.00     0.240 C 
ATOM     44  O5  non d ame      -8.328   5.426  63.379  0.00  0.00    -0.271 OA
ATOM     45  N6  non d ame      -8.333   5.939  65.645  0.00  0.00    -0.355 N 
ATOM     46  H46 non d ame      -8.251   6.658  66.349  0.00  0.00     0.162 HD
BRANCH  45  47
ATOM     47  C20 non d ame      -8.556   4.535  66.051  0.00  0.00     0.013 C 
ATOM     48  H30 non d ame      -8.523   3.917  65.154  0.00  0.00     0.072 H 
BRANCH  47  49
ATOM     49  C21 non d ame      -9.911   4.414  66.711  0.00  0.00    -0.038 C 
ATOM     50  H31 non d ame     -10.448   3.654  66.144  0.00  0.00     0.036 H 
ATOM     51  H32 non d ame      -9.709   4.262  67.772  0.00  0.00     0.036 H 
BRANCH  49  52
ATOM     52  C22 non d ame     -10.746   5.709  66.606  0.00  0.00     0.018 C 
ATOM     53  H33 non d ame     -10.199   6.359  65.923  0.00  0.00     0.048 H 
ATOM     54  H34 non d ame     -11.758   5.389  66.360  0.00  0.00     0.048 H 
BRANCH  52  55
ATOM     55  C23 non d ame     -10.858   6.492  67.944  0.00  0.00     0.259 C 
ATOM     56  O7  non d ame     -10.698   7.669  67.969  0.00  0.00    -0.265 OA
BRANCH  55  57
ATOM     57  O8  non d ame     -11.141   5.783  69.145  0.00  0.00    -0.317 OA
BRANCH  57  58
ATOM     58  C29 non d ame     -11.695   6.597  70.183  0.00  0.00     0.052 C 
ATOM     59  H47 non d ame     -11.779   7.597  69.761  0.00  0.00     0.082 H 
ATOM     60  H48 non d ame     -12.588   6.072  70.523  0.00  0.00     0.082 H 
BRANCH  58  61
ATOM     61  C35 non d ame     -10.676   6.639  71.353  0.00  0.00    -0.034 A 
ATOM     62  C30 non d ame     -10.222   7.861  71.838  0.00  0.00    -0.075 A 
ATOM     63  C31 non d ame      -9.306   7.898  72.889  0.00  0.00    -0.082 A 
ATOM     64  H49 non d ame     -10.583   8.789  71.396  0.00  0.00     0.084 H 
ATOM     65  C32 non d ame      -8.843   6.706  73.453  0.00  0.00    -0.083 A 
ATOM     66  H50 non d ame      -8.955   8.857  73.269  0.00  0.00     0.083 H 
ATOM     67  C33 non d ame      -9.296   5.489  72.963  0.00  0.00    -0.082 A 
ATOM     68  H51 non d ame      -8.128   6.727  74.275  0.00  0.00     0.083 H 
ATOM     69  C34 non d ame     -10.213   5.448  71.915  0.00  0.00    -0.075 A 
ATOM     70  H52 non d ame      -8.931   4.561  73.405  0.00  0.00     0.083 H 
ATOM     71  H53 non d ame     -10.565   4.487  71.536  0.00  0.00     0.084 H 
ENDBRANCH  58  61
ENDBRANCH  57  58
ENDBRANCH  55  57
ENDBRANCH  52  55
ENDBRANCH  49  52
ENDBRANCH  47  49
BRANCH  47  72
ATOM     72  C24 non d ame      -7.469   4.104  67.033  0.00  0.00    -0.039 C 
ATOM     73  H35 non d ame      -7.334   3.035  66.865  0.00  0.00     0.036 H 
ATOM     74  H36 non d ame      -6.638   4.790  66.867  0.00  0.00     0.036 H 
BRANCH  72  75
ATOM     75  C25 non d ame      -7.937   4.287  68.554  0.00  0.00    -0.001 C 
ATOM     76  C26 non d ame      -7.437   5.748  69.120  0.00  0.00    -0.035 C 
ATOM     77  C27 non d ame      -6.787   5.561  70.294  0.00  0.00     0.085 C 
ATOM     78  H38 non d ame      -6.670   6.160  68.467  0.00  0.00     0.036 H 
ATOM     79  H39 non d ame      -8.298   6.355  69.400  0.00  0.00     0.036 H 
ATOM     80  N5  non d ame      -6.511   4.081  70.415  0.00  0.00    -0.049 N 
ATOM     81  H40 non d ame      -5.840   6.091  70.190  0.00  0.00     0.075 H 
ATOM     82  H41 non d ame      -7.494   5.855  71.069  0.00  0.00     0.075 H 
ATOM     83  C28 non d ame      -7.445   3.364  69.310  0.00  0.00     0.193 C 
ATOM     84  H42 non d ame      -5.545   3.948  70.156  0.00  0.00     0.280 HD
ATOM     85  H43 non d ame      -6.831   3.805  71.333  0.00  0.00     0.280 HD
ATOM     86  H44 non d ame      -8.355   2.843  69.607  0.00  0.00     0.129 H 
ATOM     87  H37 non d ame      -8.988   4.033  68.696  0.00  0.00     0.046 H 
BRANCH  83  88
ATOM     88  O6  non d ame      -6.684   2.409  68.568  0.00  0.00    -0.369 OA
ATOM     89  H45 non d ame      -7.139   1.563  68.574  0.00  0.00     0.212 HD
ENDBRANCH  83  88
ENDBRANCH  72  75
ENDBRANCH  47  72
ENDBRANCH  45  47
ENDBRANCH   1  43
BRANCH   1  90
ATOM     90  C16 non d ame      -6.589   8.182  64.126  0.00  0.00    -0.035 C 
ATOM     91  H21 non d ame      -6.582   9.269  64.030  0.00  0.00     0.037 H 
ATOM     92  H22 non d ame      -6.393   7.720  65.092  0.00  0.00     0.037 H 
BRANCH  90  93
ATOM     93  C17 non d ame      -5.493   7.648  63.150  0.00  0.00    -0.059 C 
ATOM     94  H23 non d ame      -5.984   7.387  62.213  0.00  0.00     0.038 H 
BRANCH  93  95
ATOM     95  C18 non d ame      -4.407   8.726  62.834  0.00  0.00    -0.073 C 
ATOM     96  H24 non d ame      -3.416   8.299  62.991  0.00  0.00     0.028 H 
ATOM     97  H25 non d ame      -4.505   9.047  61.797  0.00  0.00     0.028 H 
ATOM     98  H26 non d ame      -4.544   9.582  63.495  0.00  0.00     0.028 H 
ENDBRANCH  93  95
BRANCH  93  99
ATOM     99  C19 non d ame      -4.850   6.370  63.696  0.00  0.00    -0.073 C 
ATOM    100  H27 non d ame      -5.376   6.056  64.598  0.00  0.00     0.028 H 
ATOM    101  H28 non d ame      -4.913   5.583  62.944  0.00  0.00     0.028 H 
ATOM    102  H29 non d ame      -3.803   6.562  63.932  0.00  0.00     0.028 H 
ENDBRANCH  93  99
ENDBRANCH  90  93
ENDBRANCH   1  90
TORSDOF 26
ENDMDL
MODEL 14
REMARK VINA RESULT:      -6.3      2.503      5.941
REMARK  26 active torsions:
REMARK  status: ('A' for Active; 'I' for Inactive)
REMARK    1  A    between atoms: C2_2  and  C3_3 
REMARK    2  A    between atoms: C4_6  and  C5_7 
REMARK       I    between atoms: C5_7  and  N2_9 
REMARK    3  A    between atoms: N2_9  and  C6_10 
REMARK    4  A    between atoms: C6_10  and  C7_11 
REMARK    5  A    between atoms: C6_10  and  C8_13 
REMARK       I    between atoms: C7_11  and  N3_14 
REMARK    6  A    between atoms: N3_14  and  C9_15 
REMARK    7  A    between atoms: C9_15  and  C10_16 
REMARK    8  A    between atoms: C9_15  and  C11_18 
REMARK       I    between atoms: C10_16  and  N4_21 
REMARK    9  A    between atoms: C11_18  and  C12_19 
REMARK   10  A    between atoms: C11_18  and  C13_20 
REMARK   11  A    between atoms: N4_21  and  C14_22 
REMARK   12  A    between atoms: C14_22  and  C15_23 
REMARK   13  A    between atoms: C14_22  and  C16_25 
REMARK       I    between atoms: C15_23  and  N6_40 
REMARK   14  A    between atoms: C16_25  and  C17_26 
REMARK   15  A    between atoms: C17_26  and  C18_27 
REMARK   16  A    between atoms: C17_26  and  C19_28 
REMARK   17  A    between atoms: C20_29  and  C21_30 
REMARK   18  A    between atoms: C20_29  and  C24_33 
REMARK   19  A    between atoms: C20_29  and  N6_40 
REMARK   20  A    between atoms: C21_30  and  C22_31 
REMARK   21  A    between atoms: C22_31  and  C23_32 
REMARK   22  A    between atoms: C23_32  and  O8_43 
REMARK   23  A    between atoms: C24_33  and  C25_34 
REMARK   24  A    between atoms: C28_38  and  O6_39 
REMARK   25  A    between atoms: C29_42  and  O8_43 
REMARK   26  A    between atoms: C29_42  and  C35_49 
ROOT
ATOM      1  C14 non d ame      -9.157  11.218  65.711  0.00  0.00     0.089 C 
ATOM      2  H20 non d ame      -8.635  11.465  64.786  0.00  0.00     0.087 H 
ENDROOT
BRANCH   1   3
ATOM      3  N4  non d ame      -8.636   9.943  66.182  0.00  0.00    -0.346 N 
ATOM      4  C10 non d ame      -8.132   8.916  65.198  0.00  0.00     0.241 C 
ATOM      5  O4  non d ame      -8.161   9.138  64.032  0.00  0.00    -0.271 OA
ATOM      6  H19 non d ame      -8.623   9.772  67.177  0.00  0.00     0.163 HD
BRANCH   4   7
ATOM      7  C9  non d ame      -7.591   7.604  65.702  0.00  0.00     0.092 C 
ATOM      8  H11 non d ame      -6.797   7.797  66.423  0.00  0.00     0.088 H 
BRANCH   7   9
ATOM      9  N3  non d ame      -8.650   6.878  66.410  0.00  0.00    -0.346 N 
ATOM     10  C7  non d ame      -8.509   6.586  67.814  0.00  0.00     0.240 C 
ATOM     11  O3  non d ame      -7.550   6.927  68.392  0.00  0.00    -0.271 OA
ATOM     12  H10 non d ame      -9.483   6.576  65.924  0.00  0.00     0.163 HD
BRANCH  10  13
ATOM     13  C6  non d ame      -9.639   5.809  68.561  0.00  0.00     0.086 C 
ATOM     14  H6  non d ame      -9.273   5.268  69.433  0.00  0.00     0.086 H 
BRANCH  13  15
ATOM     15  N2  non d ame     -10.624   6.762  69.046  0.00  0.00    -0.343 N 
ATOM     16  C5  non d ame     -10.599   7.173  70.452  0.00  0.00     0.273 C 
ATOM     17  O2  non d ame      -9.785   6.729  71.184  0.00  0.00    -0.266 OA
ATOM     18  H5  non d ame     -11.318   7.134  68.413  0.00  0.00     0.163 HD
BRANCH  16  19
ATOM     19  C4  non d ame     -11.634   8.180  70.977  0.00  0.00     0.154 A 
ATOM     20  C1  non d ame     -11.516   9.606  71.007  0.00  0.00    -0.017 A 
ATOM     21  C2  non d ame     -12.726  10.058  71.578  0.00  0.00     0.077 A 
ATOM     22  H1  non d ame     -10.681  10.218  70.665  0.00  0.00     0.091 H 
ATOM     23  O1  non d ame     -13.448   9.009  71.840  0.00  0.00    -0.218 OA
ATOM     24  N1  non d ame     -12.832   7.900  71.499  0.00  0.00    -0.123 NA
BRANCH  21  25
ATOM     25  C3  non d ame     -13.113  11.509  71.837  0.00  0.00    -0.029 C 
ATOM     26  H2  non d ame     -12.347  12.168  71.428  0.00  0.00     0.036 H 
ATOM     27  H3  non d ame     -14.068  11.721  71.357  0.00  0.00     0.036 H 
ATOM     28  H4  non d ame     -13.201  11.676  72.911  0.00  0.00     0.036 H 
ENDBRANCH  21  25
ENDBRANCH  16  19
ENDBRANCH  13  15
BRANCH  13  29
ATOM     29  C8  non d ame     -10.288   4.830  67.616  0.00  0.00    -0.049 C 
ATOM     30  H7  non d ame      -9.625   4.646  66.771  0.00  0.00     0.030 H 
ATOM     31  H8  non d ame     -10.481   3.894  68.138  0.00  0.00     0.030 H 
ATOM     32  H9  non d ame     -11.229   5.246  67.254  0.00  0.00     0.030 H 
ENDBRANCH  13  29
ENDBRANCH  10  13
ENDBRANCH   7   9
BRANCH   7  33
ATOM     33  C11 non d ame      -7.095   6.751  64.498  0.00  0.00    -0.033 C 
ATOM     34  H12 non d ame      -6.988   7.419  63.644  0.00  0.00     0.042 H 
BRANCH  33  35
ATOM     35  C12 non d ame      -5.694   6.126  64.784  0.00  0.00    -0.071 C 
ATOM     36  H13 non d ame      -4.926   6.701  64.266  0.00  0.00     0.028 H 
ATOM     37  H14 non d ame      -5.500   6.143  65.856  0.00  0.00     0.028 H 
ATOM     38  H15 non d ame      -5.678   5.096  64.427  0.00  0.00     0.028 H 
ENDBRANCH  33  35
BRANCH  33  39
ATOM     39  C13 non d ame      -8.140   5.651  64.124  0.00  0.00    -0.071 C 
ATOM     40  H16 non d ame      -8.377   5.722  63.063  0.00  0.00     0.028 H 
ATOM     41  H17 non d ame      -7.723   4.666  64.338  0.00  0.00     0.028 H 
ATOM     42  H18 non d ame      -9.047   5.797  64.710  0.00  0.00     0.028 H 
ENDBRANCH  33  39
ENDBRANCH   7  33
ENDBRANCH   4   7
ENDBRANCH   1   3
BRANCH   1  43
ATOM     43  C15 non d ame      -8.928  12.285  66.819  0.00  0.00     0.240 C 
ATOM     44  O5  non d ame      -9.044  11.985  67.963  0.00  0.00    -0.271 OA
ATOM     45  N6  non d ame      -8.553  13.681  66.454  0.00  0.00    -0.355 N 
ATOM     46  H46 non d ame      -8.447  13.947  65.486  0.00  0.00     0.162 HD
BRANCH  45  47
ATOM     47  C20 non d ame      -8.337  14.684  67.518  0.00  0.00     0.013 C 
ATOM     48  H30 non d ame      -8.428  14.179  68.480  0.00  0.00     0.072 H 
BRANCH  47  49
ATOM     49  C21 non d ame      -9.384  15.769  67.404  0.00  0.00    -0.038 C 
ATOM     50  H31 non d ame     -10.236  15.418  67.986  0.00  0.00     0.036 H 
ATOM     51  H32 non d ame      -8.880  16.695  67.680  0.00  0.00     0.036 H 
BRANCH  49  52
ATOM     52  C22 non d ame      -9.892  15.961  65.959  0.00  0.00     0.018 C 
ATOM     53  H33 non d ame      -8.998  16.039  65.339  0.00  0.00     0.048 H 
ATOM     54  H34 non d ame     -10.605  15.156  65.787  0.00  0.00     0.048 H 
BRANCH  52  55
ATOM     55  C23 non d ame     -10.679  17.284  65.742  0.00  0.00     0.259 C 
ATOM     56  O7  non d ame     -11.233  17.494  64.712  0.00  0.00    -0.265 OA
BRANCH  55  57
ATOM     57  O8  non d ame     -10.717  18.250  66.785  0.00  0.00    -0.317 OA
BRANCH  57  58
ATOM     58  C29 non d ame      -9.978  19.442  66.501  0.00  0.00     0.052 C 
ATOM     59  H47 non d ame      -9.955  19.523  65.415  0.00  0.00     0.082 H 
ATOM     60  H48 non d ame     -10.445  20.227  67.097  0.00  0.00     0.082 H 
BRANCH  58  61
ATOM     61  C35 non d ame      -8.527  19.238  67.010  0.00  0.00    -0.034 A 
ATOM     62  C30 non d ame      -8.264  19.210  68.376  0.00  0.00    -0.075 A 
ATOM     63  C31 non d ame      -6.960  19.026  68.833  0.00  0.00    -0.082 A 
ATOM     64  H49 non d ame      -9.080  19.330  69.089  0.00  0.00     0.084 H 
ATOM     65  C32 non d ame      -5.915  18.874  67.918  0.00  0.00    -0.083 A 
ATOM     66  H50 non d ame      -6.758  19.001  69.904  0.00  0.00     0.083 H 
ATOM     67  C33 non d ame      -6.181  18.906  66.555  0.00  0.00    -0.082 A 
ATOM     68  H51 non d ame      -4.892  18.728  68.267  0.00  0.00     0.083 H 
ATOM     69  C34 non d ame      -7.483  19.087  66.095  0.00  0.00    -0.075 A 
ATOM     70  H52 non d ame      -5.363  18.789  65.844  0.00  0.00     0.083 H 
ATOM     71  H53 non d ame      -7.684  19.110  65.023  0.00  0.00     0.084 H 
ENDBRANCH  58  61
ENDBRANCH  57  58
ENDBRANCH  55  57
ENDBRANCH  52  55
ENDBRANCH  49  52
ENDBRANCH  47  49
BRANCH  47  72
ATOM     72  C24 non d ame      -6.947  15.300  67.373  0.00  0.00    -0.039 C 
ATOM     73  H35 non d ame      -6.555  14.912  66.432  0.00  0.00     0.036 H 
ATOM     74  H36 non d ame      -7.089  16.373  67.502  0.00  0.00     0.036 H 
BRANCH  72  75
ATOM     75  C25 non d ame      -5.957  14.812  68.534  0.00  0.00    -0.001 C 
ATOM     76  C26 non d ame      -6.357  15.539  69.953  0.00  0.00    -0.035 C 
ATOM     77  C27 non d ame      -5.244  16.098  70.485  0.00  0.00     0.085 C 
ATOM     78  H38 non d ame      -7.007  16.393  69.766  0.00  0.00     0.036 H 
ATOM     79  H39 non d ame      -6.642  14.789  70.690  0.00  0.00     0.036 H 
ATOM     80  N5  non d ame      -4.191  16.102  69.403  0.00  0.00    -0.049 N 
ATOM     81  H40 non d ame      -5.518  17.128  70.718  0.00  0.00     0.075 H 
ATOM     82  H41 non d ame      -4.932  15.424  71.282  0.00  0.00     0.075 H 
ATOM     83  C28 non d ame      -4.730  15.102  68.256  0.00  0.00     0.193 C 
ATOM     84  H42 non d ame      -4.169  17.039  69.029  0.00  0.00     0.280 HD
ATOM     85  H43 non d ame      -3.359  15.702  69.812  0.00  0.00     0.280 HD
ATOM     86  H44 non d ame      -4.308  14.103  68.149  0.00  0.00     0.129 H 
ATOM     87  H37 non d ame      -5.840  13.727  68.547  0.00  0.00     0.046 H 
BRANCH  83  88
ATOM     88  O6  non d ame      -4.599  15.710  66.970  0.00  0.00    -0.369 OA
ATOM     89  H45 non d ame      -5.334  15.443  66.413  0.00  0.00     0.212 HD
ENDBRANCH  83  88
ENDBRANCH  72  75
ENDBRANCH  47  72
ENDBRANCH  45  47
ENDBRANCH   1  43
BRANCH   1  90
ATOM     90  C16 non d ame     -10.646  11.074  65.440  0.00  0.00    -0.035 C 
ATOM     91  H21 non d ame     -10.728  10.286  64.690  0.00  0.00     0.037 H 
ATOM     92  H22 non d ame     -11.107  10.944  66.419  0.00  0.00     0.037 H 
BRANCH  90  93
ATOM     93  C17 non d ame     -11.295  12.349  64.812  0.00  0.00    -0.059 C 
ATOM     94  H23 non d ame     -10.493  13.054  64.593  0.00  0.00     0.038 H 
BRANCH  93  95
ATOM     95  C18 non d ame     -12.033  12.035  63.472  0.00  0.00    -0.073 C 
ATOM     96  H24 non d ame     -12.108  12.946  62.877  0.00  0.00     0.028 H 
ATOM     97  H25 non d ame     -11.472  11.284  62.916  0.00  0.00     0.028 H 
ATOM     98  H26 non d ame     -13.032  11.658  63.687  0.00  0.00     0.028 H 
ENDBRANCH  93  95
BRANCH  93  99
ATOM     99  C19 non d ame     -12.239  13.029  65.808  0.00  0.00    -0.073 C 
ATOM    100  H27 non d ame     -12.754  12.270  66.397  0.00  0.00     0.028 H 
ATOM    101  H28 non d ame     -11.662  13.675  66.470  0.00  0.00     0.028 H 
ATOM    102  H29 non d ame     -12.970  13.628  65.264  0.00  0.00     0.028 H 
ENDBRANCH  93  99
ENDBRANCH  90  93
ENDBRANCH   1  90
TORSDOF 26
ENDMDL
MODEL 15
REMARK VINA RESULT:      -6.3      2.557      6.278
REMARK  26 active torsions:
REMARK  status: ('A' for Active; 'I' for Inactive)
REMARK    1  A    between atoms: C2_2  and  C3_3 
REMARK    2  A    between atoms: C4_6  and  C5_7 
REMARK       I    between atoms: C5_7  and  N2_9 
REMARK    3  A    between atoms: N2_9  and  C6_10 
REMARK    4  A    between atoms: C6_10  and  C7_11 
REMARK    5  A    between atoms: C6_10  and  C8_13 
REMARK       I    between atoms: C7_11  and  N3_14 
REMARK    6  A    between atoms: N3_14  and  C9_15 
REMARK    7  A    between atoms: C9_15  and  C10_16 
REMARK    8  A    between atoms: C9_15  and  C11_18 
REMARK       I    between atoms: C10_16  and  N4_21 
REMARK    9  A    between atoms: C11_18  and  C12_19 
REMARK   10  A    between atoms: C11_18  and  C13_20 
REMARK   11  A    between atoms: N4_21  and  C14_22 
REMARK   12  A    between atoms: C14_22  and  C15_23 
REMARK   13  A    between atoms: C14_22  and  C16_25 
REMARK       I    between atoms: C15_23  and  N6_40 
REMARK   14  A    between atoms: C16_25  and  C17_26 
REMARK   15  A    between atoms: C17_26  and  C18_27 
REMARK   16  A    between atoms: C17_26  and  C19_28 
REMARK   17  A    between atoms: C20_29  and  C21_30 
REMARK   18  A    between atoms: C20_29  and  C24_33 
REMARK   19  A    between atoms: C20_29  and  N6_40 
REMARK   20  A    between atoms: C21_30  and  C22_31 
REMARK   21  A    between atoms: C22_31  and  C23_32 
REMARK   22  A    between atoms: C23_32  and  O8_43 
REMARK   23  A    between atoms: C24_33  and  C25_34 
REMARK   24  A    between atoms: C28_38  and  O6_39 
REMARK   25  A    between atoms: C29_42  and  O8_43 
REMARK   26  A    between atoms: C29_42  and  C35_49 
ROOT
ATOM      1  C14 non d ame      -7.099   9.474  63.439  0.00  0.00     0.089 C 
ATOM      2  H20 non d ame      -6.588   9.972  62.614  0.00  0.00     0.087 H 
ENDROOT
BRANCH   1   3
ATOM      3  N4  non d ame      -6.385   9.808  64.662  0.00  0.00    -0.346 N 
ATOM      4  C10 non d ame      -5.129  10.643  64.608  0.00  0.00     0.241 C 
ATOM      5  O4  non d ame      -4.712  11.032  63.566  0.00  0.00    -0.271 OA
ATOM      6  H19 non d ame      -6.753   9.465  65.538  0.00  0.00     0.163 HD
BRANCH   4   7
ATOM      7  C9  non d ame      -4.405  10.983  65.883  0.00  0.00     0.092 C 
ATOM      8  H11 non d ame      -3.782  11.863  65.719  0.00  0.00     0.088 H 
BRANCH   7   9
ATOM      9  N3  non d ame      -5.380  11.333  66.921  0.00  0.00    -0.346 N 
ATOM     10  C7  non d ame      -5.333  12.630  67.547  0.00  0.00     0.240 C 
ATOM     11  O3  non d ame      -4.516  13.407  67.230  0.00  0.00    -0.271 OA
ATOM     12  H10 non d ame      -6.091  10.673  67.206  0.00  0.00     0.163 HD
BRANCH  10  13
ATOM     13  C6  non d ame      -6.372  12.994  68.654  0.00  0.00     0.086 C 
ATOM     14  H6  non d ame      -5.904  13.259  69.601  0.00  0.00     0.086 H 
BRANCH  13  15
ATOM     15  N2  non d ame      -7.129  14.159  68.224  0.00  0.00    -0.343 N 
ATOM     16  C5  non d ame      -6.873  15.458  68.849  0.00  0.00     0.273 C 
ATOM     17  O2  non d ame      -6.058  15.555  69.700  0.00  0.00    -0.266 OA
ATOM     18  H5  non d ame      -7.826  14.066  67.498  0.00  0.00     0.163 HD
BRANCH  16  19
ATOM     19  C4  non d ame      -7.665  16.697  68.404  0.00  0.00     0.154 A 
ATOM     20  C1  non d ame      -8.706  16.751  67.423  0.00  0.00    -0.017 A 
ATOM     21  C2  non d ame      -9.101  18.107  67.388  0.00  0.00     0.077 A 
ATOM     22  H1  non d ame      -9.113  15.932  66.830  0.00  0.00     0.091 H 
ATOM     23  O1  non d ame      -8.368  18.747  68.251  0.00  0.00    -0.218 OA
ATOM     24  N1  non d ame      -7.523  17.945  68.857  0.00  0.00    -0.123 NA
BRANCH  21  25
ATOM     25  C3  non d ame     -10.186  18.706  66.503  0.00  0.00    -0.029 C 
ATOM     26  H2  non d ame     -10.771  17.905  66.051  0.00  0.00     0.036 H 
ATOM     27  H3  non d ame     -10.838  19.338  67.105  0.00  0.00     0.036 H 
ATOM     28  H4  non d ame      -9.724  19.306  65.717  0.00  0.00     0.036 H 
ENDBRANCH  21  25
ENDBRANCH  16  19
ENDBRANCH  13  15
BRANCH  13  29
ATOM     29  C8  non d ame      -7.301  11.829  68.878  0.00  0.00    -0.049 C 
ATOM     30  H7  non d ame      -6.732  10.899  68.846  0.00  0.00     0.030 H 
ATOM     31  H8  non d ame      -7.781  11.928  69.851  0.00  0.00     0.030 H 
ATOM     32  H9  non d ame      -8.061  11.815  68.097  0.00  0.00     0.030 H 
ENDBRANCH  13  29
ENDBRANCH  10  13
ENDBRANCH   7   9
BRANCH   7  33
ATOM     33  C11 non d ame      -3.572   9.754  66.350  0.00  0.00    -0.033 C 
ATOM     34  H12 non d ame      -3.313   9.176  65.464  0.00  0.00     0.042 H 
BRANCH  33  35
ATOM     35  C12 non d ame      -2.237  10.197  67.028  0.00  0.00    -0.071 C 
ATOM     36  H13 non d ame      -2.255   9.920  68.082  0.00  0.00     0.028 H 
ATOM     37  H14 non d ame      -1.399   9.703  66.537  0.00  0.00     0.028 H 
ATOM     38  H15 non d ame      -2.126  11.277  66.938  0.00  0.00     0.028 H 
ENDBRANCH  33  35
BRANCH  33  39
ATOM     39  C13 non d ame      -4.410   8.838  67.298  0.00  0.00    -0.071 C 
ATOM     40  H16 non d ame      -4.689   7.927  66.770  0.00  0.00     0.028 H 
ATOM     41  H17 non d ame      -3.815   8.581  68.176  0.00  0.00     0.028 H 
ATOM     42  H18 non d ame      -5.310   9.366  67.612  0.00  0.00     0.028 H 
ENDBRANCH  33  39
ENDBRANCH   7  33
ENDBRANCH   4   7
ENDBRANCH   1   3
BRANCH   1  43
ATOM     43  C15 non d ame      -8.574   9.943  63.585  0.00  0.00     0.240 C 
ATOM     44  O5  non d ame      -9.377   9.634  62.766  0.00  0.00    -0.271 OA
ATOM     45  N6  non d ame      -8.989  10.771  64.754  0.00  0.00    -0.355 N 
ATOM     46  H46 non d ame      -8.317  11.036  65.459  0.00  0.00     0.162 HD
BRANCH  45  47
ATOM     47  C20 non d ame     -10.396  11.209  64.879  0.00  0.00     0.013 C 
ATOM     48  H30 non d ame     -10.859  11.136  63.895  0.00  0.00     0.072 H 
BRANCH  47  49
ATOM     49  C21 non d ame     -10.434  12.641  65.362  0.00  0.00    -0.038 C 
ATOM     50  H31 non d ame      -9.791  12.672  66.241  0.00  0.00     0.036 H 
ATOM     51  H32 non d ame     -10.196  13.252  64.491  0.00  0.00     0.036 H 
BRANCH  49  52
ATOM     52  C22 non d ame     -11.838  13.078  65.833  0.00  0.00     0.018 C 
ATOM     53  H33 non d ame     -12.304  13.555  64.970  0.00  0.00     0.048 H 
ATOM     54  H34 non d ame     -12.291  12.191  66.275  0.00  0.00     0.048 H 
BRANCH  52  55
ATOM     55  C23 non d ame     -11.817  14.153  66.955  0.00  0.00     0.259 C 
ATOM     56  O7  non d ame     -11.777  15.308  66.682  0.00  0.00    -0.265 OA
BRANCH  55  57
ATOM     57  O8  non d ame     -11.832  13.739  68.316  0.00  0.00    -0.317 OA
BRANCH  57  58
ATOM     58  C29 non d ame     -11.121  14.614  69.197  0.00  0.00     0.052 C 
ATOM     59  H47 non d ame     -10.156  14.139  69.368  0.00  0.00     0.082 H 
ATOM     60  H48 non d ame     -11.169  15.600  68.736  0.00  0.00     0.082 H 
BRANCH  58  61
ATOM     61  C35 non d ame     -11.890  14.664  70.544  0.00  0.00    -0.034 A 
ATOM     62  C30 non d ame     -12.720  13.611  70.914  0.00  0.00    -0.075 A 
ATOM     63  C31 non d ame     -13.410  13.657  72.124  0.00  0.00    -0.082 A 
ATOM     64  H49 non d ame     -12.828  12.748  70.256  0.00  0.00     0.084 H 
ATOM     65  C32 non d ame     -13.271  14.764  72.965  0.00  0.00    -0.083 A 
ATOM     66  H50 non d ame     -14.057  12.827  72.412  0.00  0.00     0.083 H 
ATOM     67  C33 non d ame     -12.446  15.816  72.590  0.00  0.00    -0.082 A 
ATOM     68  H51 non d ame     -13.807  14.807  73.913  0.00  0.00     0.083 H 
ATOM     69  C34 non d ame     -11.752  15.772  71.383  0.00  0.00    -0.075 A 
ATOM     70  H52 non d ame     -12.341  16.679  73.248  0.00  0.00     0.083 H 
ATOM     71  H53 non d ame     -11.104  16.602  71.096  0.00  0.00     0.084 H 
ENDBRANCH  58  61
ENDBRANCH  57  58
ENDBRANCH  55  57
ENDBRANCH  52  55
ENDBRANCH  49  52
ENDBRANCH  47  49
BRANCH  47  72
ATOM     72  C24 non d ame     -11.128  10.314  65.878  0.00  0.00    -0.039 C 
ATOM     73  H35 non d ame     -11.924  10.933  66.292  0.00  0.00     0.036 H 
ATOM     74  H36 non d ame     -11.375   9.406  65.327  0.00  0.00     0.036 H 
BRANCH  72  75
ATOM     75  C25 non d ame     -10.180   9.885  67.096  0.00  0.00    -0.001 C 
ATOM     76  C26 non d ame      -9.797   8.291  66.972  0.00  0.00    -0.035 C 
ATOM     77  C27 non d ame     -10.064   7.686  68.155  0.00  0.00     0.085 C 
ATOM     78  H38 non d ame     -10.473   7.797  66.275  0.00  0.00     0.036 H 
ATOM     79  H39 non d ame      -8.719   8.172  66.863  0.00  0.00     0.036 H 
ATOM     80  N5  non d ame     -10.898   8.649  68.965  0.00  0.00    -0.049 N 
ATOM     81  H40 non d ame     -10.670   6.814  67.906  0.00  0.00     0.075 H 
ATOM     82  H41 non d ame      -9.098   7.557  68.641  0.00  0.00     0.075 H 
ATOM     83  C28 non d ame     -10.760  10.081  68.233  0.00  0.00     0.193 C 
ATOM     84  H42 non d ame     -11.854   8.337  68.885  0.00  0.00     0.280 HD
ATOM     85  H43 non d ame     -10.461   8.711  69.874  0.00  0.00     0.280 HD
ATOM     86  H44 non d ame     -10.122  10.859  68.650  0.00  0.00     0.129 H 
ATOM     87  H37 non d ame      -9.355  10.583  67.242  0.00  0.00     0.046 H 
BRANCH  83  88
ATOM     88  O6  non d ame     -12.047  10.684  68.083  0.00  0.00    -0.369 OA
ATOM     89  H45 non d ame     -12.497  10.295  67.329  0.00  0.00     0.212 HD
ENDBRANCH  83  88
ENDBRANCH  72  75
ENDBRANCH  47  72
ENDBRANCH  45  47
ENDBRANCH   1  43
BRANCH   1  90
ATOM     90  C16 non d ame      -7.059   7.968  63.236  0.00  0.00    -0.035 C 
ATOM     91  H21 non d ame      -8.074   7.623  63.435  0.00  0.00     0.037 H 
ATOM     92  H22 non d ame      -6.617   7.821  62.251  0.00  0.00     0.037 H 
BRANCH  90  93
ATOM     93  C17 non d ame      -6.134   7.224  64.251  0.00  0.00    -0.059 C 
ATOM     94  H23 non d ame      -5.836   7.941  65.015  0.00  0.00     0.038 H 
BRANCH  93  95
ATOM     95  C18 non d ame      -6.870   6.046  64.966  0.00  0.00    -0.073 C 
ATOM     96  H24 non d ame      -6.385   5.105  64.709  0.00  0.00     0.028 H 
ATOM     97  H25 non d ame      -6.829   6.193  66.045  0.00  0.00     0.028 H 
ATOM     98  H26 non d ame      -7.911   6.019  64.642  0.00  0.00     0.028 H 
ENDBRANCH  93  95
BRANCH  93  99
ATOM     99  C19 non d ame      -4.855   6.731  63.567  0.00  0.00    -0.073 C 
ATOM    100  H27 non d ame      -4.241   6.194  64.290  0.00  0.00     0.028 H 
ATOM    101  H28 non d ame      -5.118   6.065  62.745  0.00  0.00     0.028 H 
ATOM    102  H29 non d ame      -4.299   7.584  63.178  0.00  0.00     0.028 H 
ENDBRANCH  93  99
ENDBRANCH  90  93
ENDBRANCH   1  90
TORSDOF 26
ENDMDL
MODEL 16
REMARK VINA RESULT:      -6.2      2.391      5.947
REMARK  26 active torsions:
REMARK  status: ('A' for Active; 'I' for Inactive)
REMARK    1  A    between atoms: C2_2  and  C3_3 
REMARK    2  A    between atoms: C4_6  and  C5_7 
REMARK       I    between atoms: C5_7  and  N2_9 
REMARK    3  A    between atoms: N2_9  and  C6_10 
REMARK    4  A    between atoms: C6_10  and  C7_11 
REMARK    5  A    between atoms: C6_10  and  C8_13 
REMARK       I    between atoms: C7_11  and  N3_14 
REMARK    6  A    between atoms: N3_14  and  C9_15 
REMARK    7  A    between atoms: C9_15  and  C10_16 
REMARK    8  A    between atoms: C9_15  and  C11_18 
REMARK       I    between atoms: C10_16  and  N4_21 
REMARK    9  A    between atoms: C11_18  and  C12_19 
REMARK   10  A    between atoms: C11_18  and  C13_20 
REMARK   11  A    between atoms: N4_21  and  C14_22 
REMARK   12  A    between atoms: C14_22  and  C15_23 
REMARK   13  A    between atoms: C14_22  and  C16_25 
REMARK       I    between atoms: C15_23  and  N6_40 
REMARK   14  A    between atoms: C16_25  and  C17_26 
REMARK   15  A    between atoms: C17_26  and  C18_27 
REMARK   16  A    between atoms: C17_26  and  C19_28 
REMARK   17  A    between atoms: C20_29  and  C21_30 
REMARK   18  A    between atoms: C20_29  and  C24_33 
REMARK   19  A    between atoms: C20_29  and  N6_40 
REMARK   20  A    between atoms: C21_30  and  C22_31 
REMARK   21  A    between atoms: C22_31  and  C23_32 
REMARK   22  A    between atoms: C23_32  and  O8_43 
REMARK   23  A    between atoms: C24_33  and  C25_34 
REMARK   24  A    between atoms: C28_38  and  O6_39 
REMARK   25  A    between atoms: C29_42  and  O8_43 
REMARK   26  A    between atoms: C29_42  and  C35_49 
ROOT
ATOM      1  C14 non d ame      -8.145   8.906  64.333  0.00  0.00     0.089 C 
ATOM      2  H20 non d ame      -7.056   8.884  64.388  0.00  0.00     0.087 H 
ENDROOT
BRANCH   1   3
ATOM      3  N4  non d ame      -8.646   7.799  65.134  0.00  0.00    -0.346 N 
ATOM      4  C10 non d ame      -7.704   6.994  65.995  0.00  0.00     0.241 C 
ATOM      5  O4  non d ame      -6.546   7.255  66.023  0.00  0.00    -0.271 OA
ATOM      6  H19 non d ame      -9.634   7.592  65.094  0.00  0.00     0.163 HD
BRANCH   4   7
ATOM      7  C9  non d ame      -8.240   5.855  66.822  0.00  0.00     0.092 C 
ATOM      8  H11 non d ame      -7.488   5.069  66.882  0.00  0.00     0.088 H 
BRANCH   7   9
ATOM      9  N3  non d ame      -8.490   6.320  68.191  0.00  0.00    -0.346 N 
ATOM     10  C7  non d ame      -7.640   5.877  69.268  0.00  0.00     0.240 C 
ATOM     11  O3  non d ame      -6.751   5.147  69.053  0.00  0.00    -0.271 OA
ATOM     12  H10 non d ame      -9.253   6.951  68.392  0.00  0.00     0.163 HD
BRANCH  10  13
ATOM     13  C6  non d ame      -7.912   6.373  70.722  0.00  0.00     0.086 C 
ATOM     14  H6  non d ame      -7.257   7.192  71.019  0.00  0.00     0.086 H 
BRANCH  13  15
ATOM     15  N2  non d ame      -9.273   6.880  70.800  0.00  0.00    -0.343 N 
ATOM     16  C5  non d ame      -9.520   8.197  71.392  0.00  0.00     0.273 C 
ATOM     17  O2  non d ame      -8.618   8.838  71.806  0.00  0.00    -0.266 OA
ATOM     18  H5  non d ame     -10.038   6.323  70.447  0.00  0.00     0.163 HD
BRANCH  16  19
ATOM     19  C4  non d ame     -10.953   8.745  71.480  0.00  0.00     0.154 A 
ATOM     20  C1  non d ame     -12.107   8.071  71.991  0.00  0.00    -0.017 A 
ATOM     21  C2  non d ame     -13.162   8.999  71.850  0.00  0.00     0.077 A 
ATOM     22  H1  non d ame     -12.169   7.063  72.403  0.00  0.00     0.091 H 
ATOM     23  O1  non d ame     -12.662  10.077  71.320  0.00  0.00    -0.218 OA
ATOM     24  N1  non d ame     -11.374   9.953  71.095  0.00  0.00    -0.123 NA
BRANCH  21  25
ATOM     25  C3  non d ame     -14.616   8.778  72.246  0.00  0.00    -0.029 C 
ATOM     26  H2  non d ame     -15.258   8.946  71.382  0.00  0.00     0.036 H 
ATOM     27  H3  non d ame     -14.745   7.756  72.601  0.00  0.00     0.036 H 
ATOM     28  H4  non d ame     -14.886   9.475  73.041  0.00  0.00     0.036 H 
ENDBRANCH  21  25
ENDBRANCH  16  19
ENDBRANCH  13  15
BRANCH  13  29
ATOM     29  C8  non d ame      -7.731   5.230  71.688  0.00  0.00    -0.049 C 
ATOM     30  H7  non d ame      -8.692   4.743  71.858  0.00  0.00     0.030 H 
ATOM     31  H8  non d ame      -7.027   4.511  71.273  0.00  0.00     0.030 H 
ATOM     32  H9  non d ame      -7.347   5.612  72.634  0.00  0.00     0.030 H 
ENDBRANCH  13  29
ENDBRANCH  10  13
ENDBRANCH   7   9
BRANCH   7  33
ATOM     33  C11 non d ame      -9.573   5.345  66.200  0.00  0.00    -0.033 C 
ATOM     34  H12 non d ame      -9.650   5.764  65.197  0.00  0.00     0.042 H 
BRANCH  33  35
ATOM     35  C12 non d ame      -9.575   3.790  66.060  0.00  0.00    -0.071 C 
ATOM     36  H13 non d ame      -8.553   3.435  65.930  0.00  0.00     0.028 H 
ATOM     37  H14 non d ame     -10.004   3.346  66.957  0.00  0.00     0.028 H 
ATOM     38  H15 non d ame     -10.170   3.506  65.193  0.00  0.00     0.028 H 
ENDBRANCH  33  35
BRANCH  33  39
ATOM     39  C13 non d ame     -10.802   5.840  67.027  0.00  0.00    -0.071 C 
ATOM     40  H16 non d ame     -10.553   5.833  68.087  0.00  0.00     0.028 H 
ATOM     41  H17 non d ame     -11.061   6.854  66.721  0.00  0.00     0.028 H 
ATOM     42  H18 non d ame     -11.651   5.180  66.848  0.00  0.00     0.028 H 
ENDBRANCH  33  39
ENDBRANCH   7  33
ENDBRANCH   4   7
ENDBRANCH   1   3
BRANCH   1  43
ATOM     43  C15 non d ame      -8.736  10.230  64.894  0.00  0.00     0.240 C 
ATOM     44  O5  non d ame      -9.519  10.849  64.250  0.00  0.00    -0.271 OA
ATOM     45  N6  non d ame      -8.331  10.723  66.242  0.00  0.00    -0.355 N 
ATOM     46  H46 non d ame      -7.670  10.204  66.801  0.00  0.00     0.162 HD
BRANCH  45  47
ATOM     47  C20 non d ame      -8.902  11.984  66.763  0.00  0.00     0.013 C 
ATOM     48  H30 non d ame      -9.437  12.472  65.949  0.00  0.00     0.072 H 
BRANCH  47  49
ATOM     49  C21 non d ame      -7.783  12.875  67.253  0.00  0.00    -0.038 C 
ATOM     50  H31 non d ame      -6.944  12.210  67.456  0.00  0.00     0.036 H 
ATOM     51  H32 non d ame      -7.687  13.663  66.505  0.00  0.00     0.036 H 
BRANCH  49  52
ATOM     52  C22 non d ame      -8.118  13.577  68.587  0.00  0.00     0.018 C 
ATOM     53  H33 non d ame      -8.981  13.048  68.991  0.00  0.00     0.048 H 
ATOM     54  H34 non d ame      -7.184  13.604  69.149  0.00  0.00     0.048 H 
BRANCH  52  55
ATOM     55  C23 non d ame      -8.561  15.058  68.422  0.00  0.00     0.259 C 
ATOM     56  O7  non d ame      -9.697  15.368  68.584  0.00  0.00    -0.265 OA
BRANCH  55  57
ATOM     57  O8  non d ame      -7.596  16.038  68.061  0.00  0.00    -0.317 OA
BRANCH  57  58
ATOM     58  C29 non d ame      -8.108  17.075  67.218  0.00  0.00     0.052 C 
ATOM     59  H47 non d ame      -7.854  16.780  66.201  0.00  0.00     0.082 H 
ATOM     60  H48 non d ame      -9.152  17.199  67.505  0.00  0.00     0.082 H 
BRANCH  58  61
ATOM     61  C35 non d ame      -7.347  18.385  67.555  0.00  0.00    -0.034 A 
ATOM     62  C30 non d ame      -6.233  18.350  68.388  0.00  0.00    -0.075 A 
ATOM     63  C31 non d ame      -5.550  19.527  68.690  0.00  0.00    -0.082 A 
ATOM     64  H49 non d ame      -5.895  17.400  68.802  0.00  0.00     0.084 H 
ATOM     65  C32 non d ame      -5.987  20.743  68.159  0.00  0.00    -0.083 A 
ATOM     66  H50 non d ame      -4.675  19.495  69.340  0.00  0.00     0.083 H 
ATOM     67  C33 non d ame      -7.102  20.774  67.332  0.00  0.00    -0.082 A 
ATOM     68  H51 non d ame      -5.458  21.668  68.390  0.00  0.00     0.083 H 
ATOM     69  C34 non d ame      -7.786  19.600  67.025  0.00  0.00    -0.075 A 
ATOM     70  H52 non d ame      -7.441  21.726  66.921  0.00  0.00     0.083 H 
ATOM     71  H53 non d ame      -8.660  19.632  66.373  0.00  0.00     0.084 H 
ENDBRANCH  58  61
ENDBRANCH  57  58
ENDBRANCH  55  57
ENDBRANCH  52  55
ENDBRANCH  49  52
ENDBRANCH  47  49
BRANCH  47  72
ATOM     72  C24 non d ame      -9.855  11.680  67.917  0.00  0.00    -0.039 C 
ATOM     73  H35 non d ame      -9.815  10.598  68.050  0.00  0.00     0.036 H 
ATOM     74  H36 non d ame      -9.547  12.339  68.729  0.00  0.00     0.036 H 
BRANCH  72  75
ATOM     75  C25 non d ame     -11.369  12.055  67.552  0.00  0.00    -0.001 C 
ATOM     76  C26 non d ame     -11.401  13.011  66.214  0.00  0.00    -0.035 C 
ATOM     77  C27 non d ame     -12.149  14.108  66.480  0.00  0.00     0.085 C 
ATOM     78  H38 non d ame     -10.409  13.419  66.022  0.00  0.00     0.036 H 
ATOM     79  H39 non d ame     -11.951  12.516  65.414  0.00  0.00     0.036 H 
ATOM     80  N5  non d ame     -12.357  14.148  67.975  0.00  0.00    -0.049 N 
ATOM     81  H40 non d ame     -11.534  14.959  66.184  0.00  0.00     0.075 H 
ATOM     82  H41 non d ame     -13.107  13.933  65.993  0.00  0.00     0.075 H 
ATOM     83  C28 non d ame     -11.942  12.687  68.521  0.00  0.00     0.193 C 
ATOM     84  H42 non d ame     -11.702  14.825  68.337  0.00  0.00     0.280 HD
ATOM     85  H43 non d ame     -13.348  14.276  68.123  0.00  0.00     0.280 HD
ATOM     86  H44 non d ame     -12.706  11.964  68.805  0.00  0.00     0.129 H 
ATOM     87  H37 non d ame     -12.022  11.182  67.553  0.00  0.00     0.046 H 
BRANCH  83  88
ATOM     88  O6  non d ame     -11.090  12.810  69.662  0.00  0.00    -0.369 OA
ATOM     89  H45 non d ame     -10.331  13.353  69.436  0.00  0.00     0.212 HD
ENDBRANCH  83  88
ENDBRANCH  72  75
ENDBRANCH  47  72
ENDBRANCH  45  47
ENDBRANCH   1  43
BRANCH   1  90
ATOM     90  C16 non d ame      -8.592   8.717  62.892  0.00  0.00    -0.035 C 
ATOM     91  H21 non d ame      -8.708   7.639  62.765  0.00  0.00     0.037 H 
ATOM     92  H22 non d ame      -9.451   9.375  62.768  0.00  0.00     0.037 H 
BRANCH  90  93
ATOM     93  C17 non d ame      -7.531   9.173  61.841  0.00  0.00    -0.059 C 
ATOM     94  H23 non d ame      -7.556   8.462  61.016  0.00  0.00     0.038 H 
BRANCH  93  95
ATOM     95  C18 non d ame      -7.847  10.589  61.261  0.00  0.00    -0.073 C 
ATOM     96  H24 non d ame      -7.672  10.587  60.185  0.00  0.00     0.028 H 
ATOM     97  H25 non d ame      -8.889  10.838  61.459  0.00  0.00     0.028 H 
ATOM     98  H26 non d ame      -7.200  11.328  61.733  0.00  0.00     0.028 H 
ENDBRANCH  93  95
BRANCH  93  99
ATOM     99  C19 non d ame      -6.119   9.131  62.434  0.00  0.00    -0.073 C 
ATOM    100  H27 non d ame      -6.006   8.229  63.037  0.00  0.00     0.028 H 
ATOM    101  H28 non d ame      -5.387   9.123  61.626  0.00  0.00     0.028 H 
ATOM    102  H29 non d ame      -5.961  10.009  63.059  0.00  0.00     0.028 H 
ENDBRANCH  93  99
ENDBRANCH  90  93
ENDBRANCH   1  90
TORSDOF 26
ENDMDL
MODEL 17
REMARK VINA RESULT:      -6.2      2.566      9.268
REMARK  26 active torsions:
REMARK  status: ('A' for Active; 'I' for Inactive)
REMARK    1  A    between atoms: C2_2  and  C3_3 
REMARK    2  A    between atoms: C4_6  and  C5_7 
REMARK       I    between atoms: C5_7  and  N2_9 
REMARK    3  A    between atoms: N2_9  and  C6_10 
REMARK    4  A    between atoms: C6_10  and  C7_11 
REMARK    5  A    between atoms: C6_10  and  C8_13 
REMARK       I    between atoms: C7_11  and  N3_14 
REMARK    6  A    between atoms: N3_14  and  C9_15 
REMARK    7  A    between atoms: C9_15  and  C10_16 
REMARK    8  A    between atoms: C9_15  and  C11_18 
REMARK       I    between atoms: C10_16  and  N4_21 
REMARK    9  A    between atoms: C11_18  and  C12_19 
REMARK   10  A    between atoms: C11_18  and  C13_20 
REMARK   11  A    between atoms: N4_21  and  C14_22 
REMARK   12  A    between atoms: C14_22  and  C15_23 
REMARK   13  A    between atoms: C14_22  and  C16_25 
REMARK       I    between atoms: C15_23  and  N6_40 
REMARK   14  A    between atoms: C16_25  and  C17_26 
REMARK   15  A    between atoms: C17_26  and  C18_27 
REMARK   16  A    between atoms: C17_26  and  C19_28 
REMARK   17  A    between atoms: C20_29  and  C21_30 
REMARK   18  A    between atoms: C20_29  and  C24_33 
REMARK   19  A    between atoms: C20_29  and  N6_40 
REMARK   20  A    between atoms: C21_30  and  C22_31 
REMARK   21  A    between atoms: C22_31  and  C23_32 
REMARK   22  A    between atoms: C23_32  and  O8_43 
REMARK   23  A    between atoms: C24_33  and  C25_34 
REMARK   24  A    between atoms: C28_38  and  O6_39 
REMARK   25  A    between atoms: C29_42  and  O8_43 
REMARK   26  A    between atoms: C29_42  and  C35_49 
ROOT
ATOM      1  C14 non d ame     -11.317  13.897  66.374  0.00  0.00     0.089 C 
ATOM      2  H20 non d ame     -11.849  14.517  65.651  0.00  0.00     0.087 H 
ENDROOT
BRANCH   1   3
ATOM      3  N4  non d ame     -12.128  13.836  67.581  0.00  0.00    -0.346 N 
ATOM      4  C10 non d ame     -11.503  13.455  68.900  0.00  0.00     0.241 C 
ATOM      5  O4  non d ame     -10.346  13.198  68.963  0.00  0.00    -0.271 OA
ATOM      6  H19 non d ame     -13.111  14.056  67.505  0.00  0.00     0.163 HD
BRANCH   4   7
ATOM      7  C9  non d ame     -12.355  13.402  70.140  0.00  0.00     0.092 C 
ATOM      8  H11 non d ame     -13.404  13.502  69.860  0.00  0.00     0.088 H 
BRANCH   7   9
ATOM      9  N3  non d ame     -12.203  12.093  70.783  0.00  0.00    -0.346 N 
ATOM     10  C7  non d ame     -12.428  10.888  70.026  0.00  0.00     0.240 C 
ATOM     11  O3  non d ame     -12.733  10.950  68.897  0.00  0.00    -0.271 OA
ATOM     12  H10 non d ame     -11.941  12.022  71.757  0.00  0.00     0.163 HD
BRANCH  10  13
ATOM     13  C6  non d ame     -12.267   9.497  70.717  0.00  0.00     0.086 C 
ATOM     14  H6  non d ame     -12.145   8.683  70.003  0.00  0.00     0.086 H 
BRANCH  13  15
ATOM     15  N2  non d ame     -11.067   9.515  71.537  0.00  0.00    -0.343 N 
ATOM     16  C5  non d ame     -10.329   8.270  71.764  0.00  0.00     0.273 C 
ATOM     17  O2  non d ame     -10.711   7.260  71.285  0.00  0.00    -0.266 OA
ATOM     18  H5  non d ame     -10.749  10.383  71.945  0.00  0.00     0.163 HD
BRANCH  16  19
ATOM     19  C4  non d ame      -9.059   8.275  72.628  0.00  0.00     0.154 A 
ATOM     20  C1  non d ame      -8.908   7.741  73.947  0.00  0.00    -0.017 A 
ATOM     21  C2  non d ame      -7.562   7.997  74.291  0.00  0.00     0.077 A 
ATOM     22  H1  non d ame      -9.659   7.244  74.561  0.00  0.00     0.091 H 
ATOM     23  O1  non d ame      -7.012   8.604  73.280  0.00  0.00    -0.218 OA
ATOM     24  N1  non d ame      -7.866   8.778  72.298  0.00  0.00    -0.123 NA
BRANCH  21  25
ATOM     25  C3  non d ame      -6.880   7.627  75.602  0.00  0.00    -0.029 C 
ATOM     26  H2  non d ame      -5.921   8.141  75.671  0.00  0.00     0.036 H 
ATOM     27  H3  non d ame      -7.513   7.924  76.437  0.00  0.00     0.036 H 
ATOM     28  H4  non d ame      -6.718   6.548  75.635  0.00  0.00     0.036 H 
ENDBRANCH  21  25
ENDBRANCH  16  19
ENDBRANCH  13  15
BRANCH  13  29
ATOM     29  C8  non d ame     -13.474   9.217  71.574  0.00  0.00    -0.049 C 
ATOM     30  H7  non d ame     -14.106  10.104  71.613  0.00  0.00     0.030 H 
ATOM     31  H8  non d ame     -14.038   8.387  71.149  0.00  0.00     0.030 H 
ATOM     32  H9  non d ame     -13.151   8.958  72.583  0.00  0.00     0.030 H 
ENDBRANCH  13  29
ENDBRANCH  10  13
ENDBRANCH   7   9
BRANCH   7  33
ATOM     33  C11 non d ame     -11.904  14.518  71.127  0.00  0.00    -0.033 C 
ATOM     34  H12 non d ame     -10.887  14.287  71.441  0.00  0.00     0.042 H 
BRANCH  33  35
ATOM     35  C12 non d ame     -11.875  15.915  70.431  0.00  0.00    -0.071 C 
ATOM     36  H13 non d ame     -11.247  15.865  69.542  0.00  0.00     0.028 H 
ATOM     37  H14 non d ame     -12.887  16.199  70.146  0.00  0.00     0.028 H 
ATOM     38  H15 non d ame     -11.470  16.654  71.121  0.00  0.00     0.028 H 
ENDBRANCH  33  35
BRANCH  33  39
ATOM     39  C13 non d ame     -12.810  14.539  72.400  0.00  0.00    -0.071 C 
ATOM     40  H16 non d ame     -12.880  13.533  72.812  0.00  0.00     0.028 H 
ATOM     41  H17 non d ame     -12.376  15.208  73.144  0.00  0.00     0.028 H 
ATOM     42  H18 non d ame     -13.806  14.892  72.132  0.00  0.00     0.028 H 
ENDBRANCH  33  39
ENDBRANCH   7  33
ENDBRANCH   4   7
ENDBRANCH   1   3
BRANCH   1  43
ATOM     43  C15 non d ame     -11.096  12.448  65.854  0.00  0.00     0.240 C 
ATOM     44  O5  non d ame     -12.031  11.774  65.565  0.00  0.00    -0.271 OA
ATOM     45  N6  non d ame      -9.716  11.902  65.707  0.00  0.00    -0.355 N 
ATOM     46  H46 non d ame      -8.914  12.467  65.945  0.00  0.00     0.162 HD
BRANCH  45  47
ATOM     47  C20 non d ame      -9.522  10.523  65.211  0.00  0.00     0.013 C 
ATOM     48  H30 non d ame      -8.457  10.296  65.257  0.00  0.00     0.072 H 
BRANCH  47  49
ATOM     49  C21 non d ame     -10.008  10.432  63.782  0.00  0.00    -0.038 C 
ATOM     50  H31 non d ame      -9.756   9.426  63.449  0.00  0.00     0.036 H 
ATOM     51  H32 non d ame     -11.049  10.756  63.804  0.00  0.00     0.036 H 
BRANCH  49  52
ATOM     52  C22 non d ame      -9.268  11.403  62.836  0.00  0.00     0.018 C 
ATOM     53  H33 non d ame     -10.034  11.814  62.177  0.00  0.00     0.048 H 
ATOM     54  H34 non d ame      -8.694  12.066  63.482  0.00  0.00     0.048 H 
BRANCH  52  55
ATOM     55  C23 non d ame      -8.234  10.707  61.907  0.00  0.00     0.259 C 
ATOM     56  O7  non d ame      -7.458  11.352  61.279  0.00  0.00    -0.265 OA
BRANCH  55  57
ATOM     57  O8  non d ame      -8.234   9.289  61.804  0.00  0.00    -0.317 OA
BRANCH  57  58
ATOM     58  C29 non d ame      -7.138   8.657  62.473  0.00  0.00     0.052 C 
ATOM     59  H47 non d ame      -6.457   8.337  61.685  0.00  0.00     0.082 H 
ATOM     60  H48 non d ame      -6.803   9.369  63.227  0.00  0.00     0.082 H 
BRANCH  58  61
ATOM     61  C35 non d ame      -7.681   7.396  63.196  0.00  0.00    -0.034 A 
ATOM     62  C30 non d ame      -8.111   6.299  62.457  0.00  0.00    -0.075 A 
ATOM     63  C31 non d ame      -8.599   5.166  63.108  0.00  0.00    -0.082 A 
ATOM     64  H49 non d ame      -8.065   6.326  61.368  0.00  0.00     0.084 H 
ATOM     65  C32 non d ame      -8.659   5.135  64.503  0.00  0.00    -0.083 A 
ATOM     66  H50 non d ame      -8.932   4.307  62.525  0.00  0.00     0.083 H 
ATOM     67  C33 non d ame      -8.233   6.234  65.237  0.00  0.00    -0.082 A 
ATOM     68  H51 non d ame      -9.039   4.253  65.020  0.00  0.00     0.083 H 
ATOM     69  C34 non d ame      -7.742   7.367  64.591  0.00  0.00    -0.075 A 
ATOM     70  H52 non d ame      -8.283   6.206  66.326  0.00  0.00     0.083 H 
ATOM     71  H53 non d ame      -7.408   8.225  65.175  0.00  0.00     0.084 H 
ENDBRANCH  58  61
ENDBRANCH  57  58
ENDBRANCH  55  57
ENDBRANCH  52  55
ENDBRANCH  49  52
ENDBRANCH  47  49
BRANCH  47  72
ATOM     72  C24 non d ame     -10.311   9.547  66.081  0.00  0.00    -0.039 C 
ATOM     73  H35 non d ame     -11.316   9.965  66.148  0.00  0.00     0.036 H 
ATOM     74  H36 non d ame     -10.159   8.566  65.629  0.00  0.00     0.036 H 
BRANCH  72  75
ATOM     75  C25 non d ame      -9.728   9.475  67.572  0.00  0.00    -0.001 C 
ATOM     76  C26 non d ame      -8.085   9.439  67.528  0.00  0.00    -0.035 C 
ATOM     77  C27 non d ame      -7.652   8.398  68.281  0.00  0.00     0.085 C 
ATOM     78  H38 non d ame      -7.742   9.188  66.525  0.00  0.00     0.036 H 
ATOM     79  H39 non d ame      -7.678  10.310  68.042  0.00  0.00     0.036 H 
ATOM     80  N5  non d ame      -8.854   7.529  68.564  0.00  0.00    -0.049 N 
ATOM     81  H40 non d ame      -6.958   7.848  67.645  0.00  0.00     0.075 H 
ATOM     82  H41 non d ame      -7.305   8.838  69.214  0.00  0.00     0.075 H 
ATOM     83  C28 non d ame     -10.146   8.420  68.188  0.00  0.00     0.193 C 
ATOM     84  H42 non d ame      -8.802   6.751  67.922  0.00  0.00     0.280 HD
ATOM     85  H43 non d ame      -8.858   7.362  69.560  0.00  0.00     0.280 HD
ATOM     86  H44 non d ame     -10.753   8.875  68.971  0.00  0.00     0.129 H 
ATOM     87  H37 non d ame     -10.191  10.210  68.231  0.00  0.00     0.046 H 
BRANCH  83  88
ATOM     88  O6  non d ame     -11.057   7.658  67.394  0.00  0.00    -0.369 OA
ATOM     89  H45 non d ame     -10.735   6.757  67.314  0.00  0.00     0.212 HD
ENDBRANCH  83  88
ENDBRANCH  72  75
ENDBRANCH  47  72
ENDBRANCH  45  47
ENDBRANCH   1  43
BRANCH   1  90
ATOM     90  C16 non d ame      -9.977  14.530  66.708  0.00  0.00    -0.035 C 
ATOM     91  H21 non d ame      -9.940  14.570  67.797  0.00  0.00     0.037 H 
ATOM     92  H22 non d ame      -9.237  13.948  66.159  0.00  0.00     0.037 H 
BRANCH  90  93
ATOM     93  C17 non d ame      -9.837  16.003  66.208  0.00  0.00    -0.059 C 
ATOM     94  H23 non d ame      -8.835  16.119  65.797  0.00  0.00     0.038 H 
BRANCH  93  95
ATOM     95  C18 non d ame     -10.858  16.341  65.074  0.00  0.00    -0.073 C 
ATOM     96  H24 non d ame     -10.963  15.481  64.412  0.00  0.00     0.028 H 
ATOM     97  H25 non d ame     -11.826  16.578  65.517  0.00  0.00     0.028 H 
ATOM     98  H26 non d ame     -10.499  17.198  64.505  0.00  0.00     0.028 H 
ENDBRANCH  93  95
BRANCH  93  99
ATOM     99  C19 non d ame      -9.968  16.991  67.370  0.00  0.00    -0.073 C 
ATOM    100  H27 non d ame     -11.009  17.306  67.464  0.00  0.00     0.028 H 
ATOM    101  H28 non d ame      -9.650  16.507  68.294  0.00  0.00     0.028 H 
ATOM    102  H29 non d ame      -9.340  17.861  67.181  0.00  0.00     0.028 H 
ENDBRANCH  93  99
ENDBRANCH  90  93
ENDBRANCH   1  90
TORSDOF 26
ENDMDL
MODEL 18
REMARK VINA RESULT:      -6.1      2.785      8.888
REMARK  26 active torsions:
REMARK  status: ('A' for Active; 'I' for Inactive)
REMARK    1  A    between atoms: C2_2  and  C3_3 
REMARK    2  A    between atoms: C4_6  and  C5_7 
REMARK       I    between atoms: C5_7  and  N2_9 
REMARK    3  A    between atoms: N2_9  and  C6_10 
REMARK    4  A    between atoms: C6_10  and  C7_11 
REMARK    5  A    between atoms: C6_10  and  C8_13 
REMARK       I    between atoms: C7_11  and  N3_14 
REMARK    6  A    between atoms: N3_14  and  C9_15 
REMARK    7  A    between atoms: C9_15  and  C10_16 
REMARK    8  A    between atoms: C9_15  and  C11_18 
REMARK       I    between atoms: C10_16  and  N4_21 
REMARK    9  A    between atoms: C11_18  and  C12_19 
REMARK   10  A    between atoms: C11_18  and  C13_20 
REMARK   11  A    between atoms: N4_21  and  C14_22 
REMARK   12  A    between atoms: C14_22  and  C15_23 
REMARK   13  A    between atoms: C14_22  and  C16_25 
REMARK       I    between atoms: C15_23  and  N6_40 
REMARK   14  A    between atoms: C16_25  and  C17_26 
REMARK   15  A    between atoms: C17_26  and  C18_27 
REMARK   16  A    between atoms: C17_26  and  C19_28 
REMARK   17  A    between atoms: C20_29  and  C21_30 
REMARK   18  A    between atoms: C20_29  and  C24_33 
REMARK   19  A    between atoms: C20_29  and  N6_40 
REMARK   20  A    between atoms: C21_30  and  C22_31 
REMARK   21  A    between atoms: C22_31  and  C23_32 
REMARK   22  A    between atoms: C23_32  and  O8_43 
REMARK   23  A    between atoms: C24_33  and  C25_34 
REMARK   24  A    between atoms: C28_38  and  O6_39 
REMARK   25  A    between atoms: C29_42  and  O8_43 
REMARK   26  A    between atoms: C29_42  and  C35_49 
ROOT
ATOM      1  C14 non d ame     -11.705  13.897  67.639  0.00  0.00     0.089 C 
ATOM      2  H20 non d ame     -12.476  14.147  68.369  0.00  0.00     0.087 H 
ENDROOT
BRANCH   1   3
ATOM      3  N4  non d ame     -10.818  15.045  67.529  0.00  0.00    -0.346 N 
ATOM      4  C10 non d ame     -11.024  16.254  68.408  0.00  0.00     0.241 C 
ATOM      5  O4  non d ame     -11.913  16.280  69.194  0.00  0.00    -0.271 OA
ATOM      6  H19 non d ame     -10.069  15.005  66.852  0.00  0.00     0.163 HD
BRANCH   4   7
ATOM      7  C9  non d ame     -10.093  17.432  68.285  0.00  0.00     0.092 C 
ATOM      8  H11 non d ame     -10.132  18.018  69.203  0.00  0.00     0.088 H 
BRANCH   7   9
ATOM      9  N3  non d ame      -8.715  16.952  68.136  0.00  0.00    -0.346 N 
ATOM     10  C7  non d ame      -7.621  17.732  68.659  0.00  0.00     0.240 C 
ATOM     11  O3  non d ame      -7.829  18.748  69.201  0.00  0.00    -0.271 OA
ATOM     12  H10 non d ame      -8.519  16.078  67.670  0.00  0.00     0.163 HD
BRANCH  10  13
ATOM     13  C6  non d ame      -6.156  17.217  68.494  0.00  0.00     0.086 C 
ATOM     14  H6  non d ame      -5.435  17.809  69.058  0.00  0.00     0.086 H 
BRANCH  13  15
ATOM     15  N2  non d ame      -6.073  15.860  69.009  0.00  0.00    -0.343 N 
ATOM     16  C5  non d ame      -5.471  15.623  70.323  0.00  0.00     0.273 C 
ATOM     17  O2  non d ame      -5.054  16.529  70.956  0.00  0.00    -0.266 OA
ATOM     18  H5  non d ame      -6.429  15.091  68.460  0.00  0.00     0.163 HD
BRANCH  16  19
ATOM     19  C4  non d ame      -5.377  14.194  70.880  0.00  0.00     0.154 A 
ATOM     20  C1  non d ame      -5.229  12.982  70.132  0.00  0.00    -0.017 A 
ATOM     21  C2  non d ame      -5.194  11.958  71.104  0.00  0.00     0.077 A 
ATOM     22  H1  non d ame      -5.158  12.865  69.051  0.00  0.00     0.091 H 
ATOM     23  O1  non d ame      -5.307  12.525  72.269  0.00  0.00    -0.218 OA
ATOM     24  N1  non d ame      -5.415  13.829  72.164  0.00  0.00    -0.123 NA
BRANCH  21  25
ATOM     25  C3  non d ame      -5.048  10.466  70.836  0.00  0.00    -0.029 C 
ATOM     26  H2  non d ame      -4.000  10.179  70.931  0.00  0.00     0.036 H 
ATOM     27  H3  non d ame      -5.644   9.907  71.556  0.00  0.00     0.036 H 
ATOM     28  H4  non d ame      -5.395  10.242  69.826  0.00  0.00     0.036 H 
ENDBRANCH  21  25
ENDBRANCH  16  19
ENDBRANCH  13  15
BRANCH  13  29
ATOM     29  C8  non d ame      -5.773  17.241  67.037  0.00  0.00    -0.049 C 
ATOM     30  H7  non d ame      -4.859  17.822  66.911  0.00  0.00     0.030 H 
ATOM     31  H8  non d ame      -5.607  16.222  66.687  0.00  0.00     0.030 H 
ATOM     32  H9  non d ame      -6.575  17.698  66.458  0.00  0.00     0.030 H 
ENDBRANCH  13  29
ENDBRANCH  10  13
ENDBRANCH   7   9
BRANCH   7  33
ATOM     33  C11 non d ame     -10.485  18.274  67.035  0.00  0.00    -0.033 C 
ATOM     34  H12 non d ame     -11.494  17.985  66.747  0.00  0.00     0.042 H 
BRANCH  33  35
ATOM     35  C12 non d ame     -10.508  19.799  67.363  0.00  0.00    -0.071 C 
ATOM     36  H13 non d ame     -10.084  20.357  66.528  0.00  0.00     0.028 H 
ATOM     37  H14 non d ame     -11.536  20.120  67.529  0.00  0.00     0.028 H 
ATOM     38  H15 non d ame      -9.919  19.986  68.260  0.00  0.00     0.028 H 
ENDBRANCH  33  35
BRANCH  33  39
ATOM     39  C13 non d ame      -9.533  17.967  65.834  0.00  0.00    -0.071 C 
ATOM     40  H16 non d ame      -8.541  18.365  66.046  0.00  0.00     0.028 H 
ATOM     41  H17 non d ame      -9.469  16.888  65.687  0.00  0.00     0.028 H 
ATOM     42  H18 non d ame      -9.926  18.434  64.931  0.00  0.00     0.028 H 
ENDBRANCH  33  39
ENDBRANCH   7  33
ENDBRANCH   4   7
ENDBRANCH   1   3
BRANCH   1  43
ATOM     43  C15 non d ame     -10.865  12.662  68.071  0.00  0.00     0.240 C 
ATOM     44  O5  non d ame      -9.868  12.815  68.699  0.00  0.00    -0.271 OA
ATOM     45  N6  non d ame     -11.308  11.285  67.708  0.00  0.00    -0.355 N 
ATOM     46  H46 non d ame     -12.155  11.142  67.179  0.00  0.00     0.162 HD
BRANCH  45  47
ATOM     47  C20 non d ame     -10.498  10.121  68.127  0.00  0.00     0.013 C 
ATOM     48  H30 non d ame      -9.577  10.496  68.573  0.00  0.00     0.072 H 
BRANCH  47  49
ATOM     49  C21 non d ame     -10.177   9.273  66.917  0.00  0.00    -0.038 C 
ATOM     50  H31 non d ame      -9.204   8.827  67.120  0.00  0.00     0.036 H 
ATOM     51  H32 non d ame     -11.048   8.636  66.764  0.00  0.00     0.036 H 
BRANCH  49  52
ATOM     52  C22 non d ame     -10.015  10.108  65.627  0.00  0.00     0.018 C 
ATOM     53  H33 non d ame     -10.198   9.417  64.803  0.00  0.00     0.048 H 
ATOM     54  H34 non d ame     -10.653  10.981  65.758  0.00  0.00     0.048 H 
BRANCH  52  55
ATOM     55  C23 non d ame      -8.576  10.657  65.413  0.00  0.00     0.259 C 
ATOM     56  O7  non d ame      -8.089  11.396  66.206  0.00  0.00    -0.265 OA
BRANCH  55  57
ATOM     57  O8  non d ame      -7.851  10.276  64.250  0.00  0.00    -0.317 OA
BRANCH  57  58
ATOM     58  C29 non d ame      -8.528   9.319  63.430  0.00  0.00     0.052 C 
ATOM     59  H47 non d ame      -9.434   9.053  63.974  0.00  0.00     0.082 H 
ATOM     60  H48 non d ame      -8.598   9.774  62.443  0.00  0.00     0.082 H 
BRANCH  58  61
ATOM     61  C35 non d ame      -7.629   8.057  63.327  0.00  0.00    -0.034 A 
ATOM     62  C30 non d ame      -8.206   6.793  63.259  0.00  0.00    -0.075 A 
ATOM     63  C31 non d ame      -7.399   5.661  63.166  0.00  0.00    -0.082 A 
ATOM     64  H49 non d ame      -9.292   6.690  63.277  0.00  0.00     0.084 H 
ATOM     65  C32 non d ame      -6.008   5.796  63.145  0.00  0.00    -0.083 A 
ATOM     66  H50 non d ame      -7.854   4.672  63.110  0.00  0.00     0.083 H 
ATOM     67  C33 non d ame      -5.436   7.059  63.217  0.00  0.00    -0.082 A 
ATOM     68  H51 non d ame      -5.369   4.916  63.072  0.00  0.00     0.083 H 
ATOM     69  C34 non d ame      -6.240   8.194  63.308  0.00  0.00    -0.075 A 
ATOM     70  H52 non d ame      -4.350   7.160  63.202  0.00  0.00     0.083 H 
ATOM     71  H53 non d ame      -5.783   9.183  63.362  0.00  0.00     0.084 H 
ENDBRANCH  58  61
ENDBRANCH  57  58
ENDBRANCH  55  57
ENDBRANCH  52  55
ENDBRANCH  49  52
ENDBRANCH  47  49
BRANCH  47  72
ATOM     72  C24 non d ame     -11.278   9.287  69.141  0.00  0.00    -0.039 C 
ATOM     73  H35 non d ame     -12.324   9.559  68.996  0.00  0.00     0.036 H 
ATOM     74  H36 non d ame     -10.956   8.258  68.981  0.00  0.00     0.036 H 
BRANCH  72  75
ATOM     75  C25 non d ame     -10.895   9.674  70.648  0.00  0.00    -0.001 C 
ATOM     76  C26 non d ame      -9.675   8.708  71.180  0.00  0.00    -0.035 C 
ATOM     77  C27 non d ame     -10.034   8.169  72.370  0.00  0.00     0.085 C 
ATOM     78  H38 non d ame      -9.573   7.841  70.528  0.00  0.00     0.036 H 
ATOM     79  H39 non d ame      -8.802   9.310  71.427  0.00  0.00     0.036 H 
ATOM     80  N5  non d ame     -11.514   8.418  72.539  0.00  0.00    -0.049 N 
ATOM     81  H40 non d ame      -9.864   7.096  72.267  0.00  0.00     0.075 H 
ATOM     82  H41 non d ame      -9.490   8.737  73.123  0.00  0.00     0.075 H 
ATOM     83  C28 non d ame     -11.905   9.533  71.440  0.00  0.00     0.193 C 
ATOM     84  H42 non d ame     -11.979   7.554  72.301  0.00  0.00     0.280 HD
ATOM     85  H43 non d ame     -11.633   8.819  73.459  0.00  0.00     0.280 HD
ATOM     86  H44 non d ame     -12.072  10.568  71.734  0.00  0.00     0.129 H 
ATOM     87  H37 non d ame     -10.769  10.749  70.778  0.00  0.00     0.046 H 
BRANCH  83  88
ATOM     88  O6  non d ame     -13.087   9.141  70.739  0.00  0.00    -0.369 OA
ATOM     89  H45 non d ame     -13.857   9.512  71.177  0.00  0.00     0.212 HD
ENDBRANCH  83  88
ENDBRANCH  72  75
ENDBRANCH  47  72
ENDBRANCH  45  47
ENDBRANCH   1  43
BRANCH   1  90
ATOM     90  C16 non d ame     -12.345  13.633  66.286  0.00  0.00    -0.035 C 
ATOM     91  H21 non d ame     -12.475  12.551  66.234  0.00  0.00     0.037 H 
ATOM     92  H22 non d ame     -13.214  14.289  66.244  0.00  0.00     0.037 H 
BRANCH  90  93
ATOM     93  C17 non d ame     -11.438  14.026  65.076  0.00  0.00    -0.059 C 
ATOM     94  H23 non d ame     -10.424  14.159  65.454  0.00  0.00     0.038 H 
BRANCH  93  95
ATOM     95  C18 non d ame     -11.396  12.910  63.984  0.00  0.00    -0.073 C 
ATOM     96  H24 non d ame     -10.832  12.056  64.358  0.00  0.00     0.028 H 
ATOM     97  H25 non d ame     -12.413  12.598  63.745  0.00  0.00     0.028 H 
ATOM     98  H26 non d ame     -10.915  13.299  63.086  0.00  0.00     0.028 H 
ENDBRANCH  93  95
BRANCH  93  99
ATOM     99  C19 non d ame     -11.877  15.363  64.474  0.00  0.00    -0.073 C 
ATOM    100  H27 non d ame     -11.006  15.889  64.084  0.00  0.00     0.028 H 
ATOM    101  H28 non d ame     -12.585  15.180  63.664  0.00  0.00     0.028 H 
ATOM    102  H29 non d ame     -12.356  15.969  65.243  0.00  0.00     0.028 H 
ENDBRANCH  93  99
ENDBRANCH  90  93
ENDBRANCH   1  90
TORSDOF 26
ENDMDL
MODEL 19
REMARK VINA RESULT:      -6.1      3.005      5.393
REMARK  26 active torsions:
REMARK  status: ('A' for Active; 'I' for Inactive)
REMARK    1  A    between atoms: C2_2  and  C3_3 
REMARK    2  A    between atoms: C4_6  and  C5_7 
REMARK       I    between atoms: C5_7  and  N2_9 
REMARK    3  A    between atoms: N2_9  and  C6_10 
REMARK    4  A    between atoms: C6_10  and  C7_11 
REMARK    5  A    between atoms: C6_10  and  C8_13 
REMARK       I    between atoms: C7_11  and  N3_14 
REMARK    6  A    between atoms: N3_14  and  C9_15 
REMARK    7  A    between atoms: C9_15  and  C10_16 
REMARK    8  A    between atoms: C9_15  and  C11_18 
REMARK       I    between atoms: C10_16  and  N4_21 
REMARK    9  A    between atoms: C11_18  and  C12_19 
REMARK   10  A    between atoms: C11_18  and  C13_20 
REMARK   11  A    between atoms: N4_21  and  C14_22 
REMARK   12  A    between atoms: C14_22  and  C15_23 
REMARK   13  A    between atoms: C14_22  and  C16_25 
REMARK       I    between atoms: C15_23  and  N6_40 
REMARK   14  A    between atoms: C16_25  and  C17_26 
REMARK   15  A    between atoms: C17_26  and  C18_27 
REMARK   16  A    between atoms: C17_26  and  C19_28 
REMARK   17  A    between atoms: C20_29  and  C21_30 
REMARK   18  A    between atoms: C20_29  and  C24_33 
REMARK   19  A    between atoms: C20_29  and  N6_40 
REMARK   20  A    between atoms: C21_30  and  C22_31 
REMARK   21  A    between atoms: C22_31  and  C23_32 
REMARK   22  A    between atoms: C23_32  and  O8_43 
REMARK   23  A    between atoms: C24_33  and  C25_34 
REMARK   24  A    between atoms: C28_38  and  O6_39 
REMARK   25  A    between atoms: C29_42  and  O8_43 
REMARK   26  A    between atoms: C29_42  and  C35_49 
ROOT
ATOM      1  C14 non d ame      -7.867   6.464  67.679  0.00  0.00     0.089 C 
ATOM      2  H20 non d ame      -7.900   5.378  67.582  0.00  0.00     0.087 H 
ENDROOT
BRANCH   1   3
ATOM      3  N4  non d ame      -7.403   7.004  66.410  0.00  0.00    -0.346 N 
ATOM      4  C10 non d ame      -7.286   6.111  65.200  0.00  0.00     0.241 C 
ATOM      5  O4  non d ame      -7.568   4.960  65.273  0.00  0.00    -0.271 OA
ATOM      6  H19 non d ame      -7.165   7.985  66.369  0.00  0.00     0.163 HD
BRANCH   4   7
ATOM      7  C9  non d ame      -6.808   6.687  63.893  0.00  0.00     0.092 C 
ATOM      8  H11 non d ame      -7.308   6.175  63.071  0.00  0.00     0.088 H 
BRANCH   7   9
ATOM      9  N3  non d ame      -7.187   8.102  63.815  0.00  0.00    -0.346 N 
ATOM     10  C7  non d ame      -8.139   8.540  62.825  0.00  0.00     0.240 C 
ATOM     11  O3  non d ame      -8.611   7.769  62.082  0.00  0.00    -0.271 OA
ATOM     12  H10 non d ame      -6.787   8.780  64.449  0.00  0.00     0.163 HD
BRANCH  10  13
ATOM     13  C6  non d ame      -8.535  10.047  62.746  0.00  0.00     0.086 C 
ATOM     14  H6  non d ame      -9.610  10.197  62.644  0.00  0.00     0.086 H 
BRANCH  13  15
ATOM     15  N2  non d ame      -8.139  10.704  63.981  0.00  0.00    -0.343 N 
ATOM     16  C5  non d ame      -8.856  10.401  65.222  0.00  0.00     0.273 C 
ATOM     17  O2  non d ame      -9.751   9.630  65.214  0.00  0.00    -0.266 OA
ATOM     18  H5  non d ame      -7.374  11.364  63.977  0.00  0.00     0.163 HD
BRANCH  16  19
ATOM     19  C4  non d ame      -8.447  11.088  66.534  0.00  0.00     0.154 A 
ATOM     20  C1  non d ame      -8.265  12.490  66.757  0.00  0.00    -0.017 A 
ATOM     21  C2  non d ame      -7.896  12.596  68.116  0.00  0.00     0.077 A 
ATOM     22  H1  non d ame      -8.383  13.304  66.042  0.00  0.00     0.091 H 
ATOM     23  O1  non d ame      -7.874  11.392  68.608  0.00  0.00    -0.218 OA
ATOM     24  N1  non d ame      -8.192  10.495  67.703  0.00  0.00    -0.123 NA
BRANCH  21  25
ATOM     25  C3  non d ame      -7.584  13.885  68.866  0.00  0.00    -0.029 C 
ATOM     26  H2  non d ame      -8.388  14.603  68.706  0.00  0.00     0.036 H 
ATOM     27  H3  non d ame      -7.493  13.672  69.931  0.00  0.00     0.036 H 
ATOM     28  H4  non d ame      -6.645  14.302  68.498  0.00  0.00     0.036 H 
ENDBRANCH  21  25
ENDBRANCH  16  19
ENDBRANCH  13  15
BRANCH  13  29
ATOM     29  C8  non d ame      -7.840  10.691  61.573  0.00  0.00    -0.049 C 
ATOM     30  H7  non d ame      -7.425  11.652  61.880  0.00  0.00     0.030 H 
ATOM     31  H8  non d ame      -7.036  10.043  61.225  0.00  0.00     0.030 H 
ATOM     32  H9  non d ame      -8.557  10.847  60.767  0.00  0.00     0.030 H 
ENDBRANCH  13  29
ENDBRANCH  10  13
ENDBRANCH   7   9
BRANCH   7  33
ATOM     33  C11 non d ame      -5.259   6.561  63.806  0.00  0.00    -0.033 C 
ATOM     34  H12 non d ame      -5.006   6.327  62.773  0.00  0.00     0.042 H 
BRANCH  33  35
ATOM     35  C12 non d ame      -4.558   7.908  64.168  0.00  0.00    -0.071 C 
ATOM     36  H13 non d ame      -5.154   8.440  64.909  0.00  0.00     0.028 H 
ATOM     37  H14 non d ame      -3.569   7.704  64.575  0.00  0.00     0.028 H 
ATOM     38  H15 non d ame      -4.464   8.519  63.271  0.00  0.00     0.028 H 
ENDBRANCH  33  35
BRANCH  33  39
ATOM     39  C13 non d ame      -4.742   5.394  64.707  0.00  0.00    -0.071 C 
ATOM     40  H16 non d ame      -4.704   4.474  64.124  0.00  0.00     0.028 H 
ATOM     41  H17 non d ame      -3.742   5.633  65.072  0.00  0.00     0.028 H 
ATOM     42  H18 non d ame      -5.416   5.261  65.553  0.00  0.00     0.028 H 
ENDBRANCH  33  39
ENDBRANCH   7  33
ENDBRANCH   4   7
ENDBRANCH   1   3
BRANCH   1  43
ATOM     43  C15 non d ame      -9.266   7.068  67.991  0.00  0.00     0.240 C 
ATOM     44  O5  non d ame     -10.142   6.975  67.193  0.00  0.00    -0.271 OA
ATOM     45  N6  non d ame      -9.517   7.755  69.291  0.00  0.00    -0.355 N 
ATOM     46  H46 non d ame      -8.782   7.836  69.978  0.00  0.00     0.162 HD
BRANCH  45  47
ATOM     47  C20 non d ame     -10.853   8.323  69.573  0.00  0.00     0.013 C 
ATOM     48  H30 non d ame     -11.427   8.306  68.647  0.00  0.00     0.072 H 
BRANCH  47  49
ATOM     49  C21 non d ame     -10.699   9.746  70.058  0.00  0.00    -0.038 C 
ATOM     50  H31 non d ame     -11.223   9.790  71.012  0.00  0.00     0.036 H 
ATOM     51  H32 non d ame      -9.630   9.959  70.012  0.00  0.00     0.036 H 
BRANCH  49  52
ATOM     52  C22 non d ame     -11.389  10.773  69.133  0.00  0.00     0.018 C 
ATOM     53  H33 non d ame     -10.678  10.974  68.332  0.00  0.00     0.048 H 
ATOM     54  H34 non d ame     -12.366  10.350  68.901  0.00  0.00     0.048 H 
BRANCH  52  55
ATOM     55  C23 non d ame     -11.665  12.143  69.813  0.00  0.00     0.259 C 
ATOM     56  O7  non d ame     -12.369  12.211  70.768  0.00  0.00    -0.265 OA
BRANCH  55  57
ATOM     57  O8  non d ame     -11.077  13.320  69.272  0.00  0.00    -0.317 OA
BRANCH  57  58
ATOM     58  C29 non d ame     -11.985  14.132  68.522  0.00  0.00     0.052 C 
ATOM     59  H47 non d ame     -12.967  13.678  68.658  0.00  0.00     0.082 H 
ATOM     60  H48 non d ame     -11.807  15.155  68.852  0.00  0.00     0.082 H 
BRANCH  58  61
ATOM     61  C35 non d ame     -11.597  14.025  67.023  0.00  0.00    -0.034 A 
ATOM     62  C30 non d ame     -10.871  15.045  66.417  0.00  0.00    -0.075 A 
ATOM     63  C31 non d ame     -10.522  14.948  65.070  0.00  0.00    -0.082 A 
ATOM     64  H49 non d ame     -10.574  15.919  66.997  0.00  0.00     0.084 H 
ATOM     65  C32 non d ame     -10.905  13.828  64.329  0.00  0.00    -0.083 A 
ATOM     66  H50 non d ame      -9.950  15.748  64.599  0.00  0.00     0.083 H 
ATOM     67  C33 non d ame     -11.634  12.814  64.937  0.00  0.00    -0.082 A 
ATOM     68  H51 non d ame     -10.636  13.744  63.276  0.00  0.00     0.083 H 
ATOM     69  C34 non d ame     -11.982  12.906  66.283  0.00  0.00    -0.075 A 
ATOM     70  H52 non d ame     -11.933  11.942  64.355  0.00  0.00     0.083 H 
ATOM     71  H53 non d ame     -12.553  12.104  66.754  0.00  0.00     0.084 H 
ENDBRANCH  58  61
ENDBRANCH  57  58
ENDBRANCH  55  57
ENDBRANCH  52  55
ENDBRANCH  49  52
ENDBRANCH  47  49
BRANCH  47  72
ATOM     72  C24 non d ame     -11.551   7.491  70.646  0.00  0.00    -0.039 C 
ATOM     73  H35 non d ame     -12.200   8.188  71.177  0.00  0.00     0.036 H 
ATOM     74  H36 non d ame     -11.983   6.640  70.118  0.00  0.00     0.036 H 
BRANCH  72  75
ATOM     75  C25 non d ame     -10.511   6.906  71.714  0.00  0.00    -0.001 C 
ATOM     76  C26 non d ame     -10.439   5.268  71.586  0.00  0.00    -0.035 C 
ATOM     77  C27 non d ame     -10.615   4.726  72.816  0.00  0.00     0.085 C 
ATOM     78  H38 non d ame     -11.294   4.899  71.021  0.00  0.00     0.036 H 
ATOM     79  H39 non d ame      -9.431   4.958  71.314  0.00  0.00     0.036 H 
ATOM     80  N5  non d ame     -11.127   5.828  73.714  0.00  0.00    -0.049 N 
ATOM     81  H40 non d ame     -11.397   3.976  72.694  0.00  0.00     0.075 H 
ATOM     82  H41 non d ame      -9.622   4.430  73.148  0.00  0.00     0.075 H 
ATOM     83  C28 non d ame     -10.859   7.208  72.921  0.00  0.00     0.193 C 
ATOM     84  H42 non d ame     -12.123   5.691  73.795  0.00  0.00     0.280 HD
ATOM     85  H43 non d ame     -10.546   5.815  74.540  0.00  0.00     0.280 HD
ATOM     86  H44 non d ame     -10.035   7.861  73.207  0.00  0.00     0.129 H 
ATOM     87  H37 non d ame      -9.564   7.446  71.706  0.00  0.00     0.046 H 
BRANCH  83  88
ATOM     88  O6  non d ame     -12.027   8.031  72.954  0.00  0.00    -0.369 OA
ATOM     89  H45 non d ame     -12.394   8.100  72.070  0.00  0.00     0.212 HD
ENDBRANCH  83  88
ENDBRANCH  72  75
ENDBRANCH  47  72
ENDBRANCH  45  47
ENDBRANCH   1  43
BRANCH   1  90
ATOM     90  C16 non d ame      -6.886   6.854  68.773  0.00  0.00    -0.035 C 
ATOM     91  H21 non d ame      -6.062   7.350  68.258  0.00  0.00     0.037 H 
ATOM     92  H22 non d ame      -7.476   7.400  69.509  0.00  0.00     0.037 H 
BRANCH  90  93
ATOM     93  C17 non d ame      -6.266   5.633  69.523  0.00  0.00    -0.059 C 
ATOM     94  H23 non d ame      -5.191   5.799  69.592  0.00  0.00     0.038 H 
BRANCH  93  95
ATOM     95  C18 non d ame      -6.819   5.491  70.977  0.00  0.00    -0.073 C 
ATOM     96  H24 non d ame      -7.100   4.453  71.159  0.00  0.00     0.028 H 
ATOM     97  H25 non d ame      -6.049   5.789  71.689  0.00  0.00     0.028 H 
ATOM     98  H26 non d ame      -7.693   6.132  71.097  0.00  0.00     0.028 H 
ENDBRANCH  93  95
BRANCH  93  99
ATOM     99  C19 non d ame      -6.476   4.339  68.732  0.00  0.00    -0.073 C 
ATOM    100  H27 non d ame      -7.201   3.711  69.249  0.00  0.00     0.028 H 
ATOM    101  H28 non d ame      -6.847   4.580  67.736  0.00  0.00     0.028 H 
ATOM    102  H29 non d ame      -5.528   3.807  68.646  0.00  0.00     0.028 H 
ENDBRANCH  93  99
ENDBRANCH  90  93
ENDBRANCH   1  90
TORSDOF 26
ENDMDL
MODEL 20
REMARK VINA RESULT:      -6.0      3.645      9.939
REMARK  26 active torsions:
REMARK  status: ('A' for Active; 'I' for Inactive)
REMARK    1  A    between atoms: C2_2  and  C3_3 
REMARK    2  A    between atoms: C4_6  and  C5_7 
REMARK       I    between atoms: C5_7  and  N2_9 
REMARK    3  A    between atoms: N2_9  and  C6_10 
REMARK    4  A    between atoms: C6_10  and  C7_11 
REMARK    5  A    between atoms: C6_10  and  C8_13 
REMARK       I    between atoms: C7_11  and  N3_14 
REMARK    6  A    between atoms: N3_14  and  C9_15 
REMARK    7  A    between atoms: C9_15  and  C10_16 
REMARK    8  A    between atoms: C9_15  and  C11_18 
REMARK       I    between atoms: C10_16  and  N4_21 
REMARK    9  A    between atoms: C11_18  and  C12_19 
REMARK   10  A    between atoms: C11_18  and  C13_20 
REMARK   11  A    between atoms: N4_21  and  C14_22 
REMARK   12  A    between atoms: C14_22  and  C15_23 
REMARK   13  A    between atoms: C14_22  and  C16_25 
REMARK       I    between atoms: C15_23  and  N6_40 
REMARK   14  A    between atoms: C16_25  and  C17_26 
REMARK   15  A    between atoms: C17_26  and  C18_27 
REMARK   16  A    between atoms: C17_26  and  C19_28 
REMARK   17  A    between atoms: C20_29  and  C21_30 
REMARK   18  A    between atoms: C20_29  and  C24_33 
REMARK   19  A    between atoms: C20_29  and  N6_40 
REMARK   20  A    between atoms: C21_30  and  C22_31 
REMARK   21  A    between atoms: C22_31  and  C23_32 
REMARK   22  A    between atoms: C23_32  and  O8_43 
REMARK   23  A    between atoms: C24_33  and  C25_34 
REMARK   24  A    between atoms: C28_38  and  O6_39 
REMARK   25  A    between atoms: C29_42  and  O8_43 
REMARK   26  A    between atoms: C29_42  and  C35_49 
ROOT
ATOM      1  C14 non d ame      -7.432   8.289  64.572  0.00  0.00     0.089 C 
ATOM      2  H20 non d ame      -7.376   8.464  63.496  0.00  0.00     0.087 H 
ENDROOT
BRANCH   1   3
ATOM      3  N4  non d ame      -8.458   9.173  65.105  0.00  0.00    -0.346 N 
ATOM      4  C10 non d ame      -9.422   9.870  64.176  0.00  0.00     0.241 C 
ATOM      5  O4  non d ame      -9.350   9.705  63.003  0.00  0.00    -0.271 OA
ATOM      6  H19 non d ame      -8.501   9.303  66.106  0.00  0.00     0.163 HD
BRANCH   4   7
ATOM      7  C9  non d ame     -10.481  10.777  64.746  0.00  0.00     0.092 C 
ATOM      8  H11 non d ame     -11.364  10.188  64.993  0.00  0.00     0.088 H 
BRANCH   7   9
ATOM      9  N3  non d ame      -9.995  11.372  65.995  0.00  0.00    -0.346 N 
ATOM     10  C7  non d ame     -10.877  11.486  67.129  0.00  0.00     0.240 C 
ATOM     11  O3  non d ame     -11.981  11.106  67.056  0.00  0.00    -0.271 OA
ATOM     12  H10 non d ame      -9.044  11.706  66.073  0.00  0.00     0.163 HD
BRANCH  10  13
ATOM     13  C6  non d ame     -10.354  12.123  68.455  0.00  0.00     0.086 C 
ATOM     14  H6  non d ame     -11.092  12.093  69.257  0.00  0.00     0.086 H 
BRANCH  13  15
ATOM     15  N2  non d ame      -9.203  11.366  68.920  0.00  0.00    -0.343 N 
ATOM     16  C5  non d ame      -9.410  10.110  69.644  0.00  0.00     0.273 C 
ATOM     17  O2  non d ame     -10.506   9.719  69.850  0.00  0.00    -0.266 OA
ATOM     18  H5  non d ame      -8.270  11.710  68.742  0.00  0.00     0.163 HD
BRANCH  16  19
ATOM     19  C4  non d ame      -8.202   9.300  70.140  0.00  0.00     0.154 A 
ATOM     20  C1  non d ame      -7.843   7.966  69.765  0.00  0.00    -0.017 A 
ATOM     21  C2  non d ame      -6.665   7.690  70.493  0.00  0.00     0.077 A 
ATOM     22  H1  non d ame      -8.357   7.302  69.070  0.00  0.00     0.091 H 
ATOM     23  O1  non d ame      -6.388   8.747  71.199  0.00  0.00    -0.218 OA
ATOM     24  N1  non d ame      -7.271   9.700  71.010  0.00  0.00    -0.123 NA
BRANCH  21  25
ATOM     25  C3  non d ame      -5.866   6.393  70.457  0.00  0.00    -0.029 C 
ATOM     26  H2  non d ame      -5.882   5.985  69.446  0.00  0.00     0.036 H 
ATOM     27  H3  non d ame      -4.836   6.592  70.752  0.00  0.00     0.036 H 
ATOM     28  H4  non d ame      -6.309   5.673  71.146  0.00  0.00     0.036 H 
ENDBRANCH  21  25
ENDBRANCH  16  19
ENDBRANCH  13  15
BRANCH  13  29
ATOM     29  C8  non d ame      -9.963  13.557  68.207  0.00  0.00    -0.049 C 
ATOM     30  H7  non d ame      -9.101  13.811  68.825  0.00  0.00     0.030 H 
ATOM     31  H8  non d ame      -9.707  13.689  67.156  0.00  0.00     0.030 H 
ATOM     32  H9  non d ame     -10.797  14.211  68.463  0.00  0.00     0.030 H 
ENDBRANCH  13  29
ENDBRANCH  10  13
ENDBRANCH   7   9
BRANCH   7  33
ATOM     33  C11 non d ame     -10.798  11.908  63.724  0.00  0.00    -0.033 C 
ATOM     34  H12 non d ame     -10.152  11.761  62.860  0.00  0.00     0.042 H 
BRANCH  33  35
ATOM     35  C12 non d ame     -12.275  11.826  63.226  0.00  0.00    -0.071 C 
ATOM     36  H13 non d ame     -12.767  10.970  63.687  0.00  0.00     0.028 H 
ATOM     37  H14 non d ame     -12.802  12.739  63.501  0.00  0.00     0.028 H 
ATOM     38  H15 non d ame     -12.286  11.711  62.143  0.00  0.00     0.028 H 
ENDBRANCH  33  35
BRANCH  33  39
ATOM     39  C13 non d ame     -10.483  13.313  64.330  0.00  0.00    -0.071 C 
ATOM     40  H16 non d ame     -10.770  13.329  65.381  0.00  0.00     0.028 H 
ATOM     41  H17 non d ame      -9.414  13.515  64.243  0.00  0.00     0.028 H 
ATOM     42  H18 non d ame     -11.041  14.076  63.789  0.00  0.00     0.028 H 
ENDBRANCH  33  39
ENDBRANCH   7  33
ENDBRANCH   4   7
ENDBRANCH   1   3
BRANCH   1  43
ATOM     43  C15 non d ame      -7.820   6.822  64.910  0.00  0.00     0.240 C 
ATOM     44  O5  non d ame      -8.237   6.108  64.056  0.00  0.00    -0.271 OA
ATOM     45  N6  non d ame      -7.663   6.302  66.299  0.00  0.00    -0.355 N 
ATOM     46  H46 non d ame      -7.306   6.898  67.031  0.00  0.00     0.162 HD
BRANCH  45  47
ATOM     47  C20 non d ame      -8.036   4.904  66.604  0.00  0.00     0.013 C 
ATOM     48  H30 non d ame      -8.746   4.573  65.847  0.00  0.00     0.072 H 
BRANCH  47  49
ATOM     49  C21 non d ame      -8.675   4.844  67.973  0.00  0.00    -0.038 C 
ATOM     50  H31 non d ame      -8.538   3.819  68.317  0.00  0.00     0.036 H 
ATOM     51  H32 non d ame      -8.242   5.671  68.536  0.00  0.00     0.036 H 
BRANCH  49  52
ATOM     52  C22 non d ame     -10.198   5.092  67.934  0.00  0.00     0.018 C 
ATOM     53  H33 non d ame     -10.358   5.834  67.151  0.00  0.00     0.048 H 
ATOM     54  H34 non d ame     -10.656   4.106  67.851  0.00  0.00     0.048 H 
BRANCH  52  55
ATOM     55  C23 non d ame     -10.765   5.718  69.239  0.00  0.00     0.259 C 
ATOM     56  O7  non d ame     -11.588   6.574  69.188  0.00  0.00    -0.265 OA
BRANCH  55  57
ATOM     57  O8  non d ame     -10.278   5.268  70.496  0.00  0.00    -0.317 OA
BRANCH  57  58
ATOM     58  C29 non d ame     -10.825   5.969  71.617  0.00  0.00     0.052 C 
ATOM     59  H47 non d ame     -11.275   6.873  71.208  0.00  0.00     0.082 H 
ATOM     60  H48 non d ame     -11.443   5.243  72.145  0.00  0.00     0.082 H 
BRANCH  58  61
ATOM     61  C35 non d ame      -9.651   6.380  72.545  0.00  0.00    -0.034 A 
ATOM     62  C30 non d ame      -8.624   5.480  72.810  0.00  0.00    -0.075 A 
ATOM     63  C31 non d ame      -7.569   5.850  73.643  0.00  0.00    -0.082 A 
ATOM     64  H49 non d ame      -8.645   4.485  72.364  0.00  0.00     0.084 H 
ATOM     65  C32 non d ame      -7.546   7.124  74.216  0.00  0.00    -0.083 A 
ATOM     66  H50 non d ame      -6.764   5.143  73.846  0.00  0.00     0.083 H 
ATOM     67  C33 non d ame      -8.575   8.018  73.952  0.00  0.00    -0.082 A 
ATOM     68  H51 non d ame      -6.724   7.422  74.868  0.00  0.00     0.083 H 
ATOM     69  C34 non d ame      -9.630   7.653  73.117  0.00  0.00    -0.075 A 
ATOM     70  H52 non d ame      -8.554   9.011  74.401  0.00  0.00     0.083 H 
ATOM     71  H53 non d ame     -10.434   8.362  72.913  0.00  0.00     0.084 H 
ENDBRANCH  58  61
ENDBRANCH  57  58
ENDBRANCH  55  57
ENDBRANCH  52  55
ENDBRANCH  49  52
ENDBRANCH  47  49
BRANCH  47  72
ATOM     72  C24 non d ame      -6.789   4.022  66.583  0.00  0.00    -0.039 C 
ATOM     73  H35 non d ame      -6.828   3.443  67.506  0.00  0.00     0.036 H 
ATOM     74  H36 non d ame      -6.810   3.512  65.620  0.00  0.00     0.036 H 
BRANCH  72  75
ATOM     75  C25 non d ame      -5.445   4.893  66.628  0.00  0.00    -0.001 C 
ATOM     76  C26 non d ame      -4.647   4.764  65.196  0.00  0.00    -0.035 C 
ATOM     77  C27 non d ame      -3.359   4.425  65.444  0.00  0.00     0.085 C 
ATOM     78  H38 non d ame      -5.030   3.916  64.630  0.00  0.00     0.036 H 
ATOM     79  H39 non d ame      -4.566   5.743  64.724  0.00  0.00     0.036 H 
ATOM     80  N5  non d ame      -3.287   3.991  66.888  0.00  0.00    -0.049 N 
ATOM     81  H40 non d ame      -3.156   3.566  64.804  0.00  0.00     0.075 H 
ATOM     82  H41 non d ame      -2.787   5.344  65.321  0.00  0.00     0.075 H 
ATOM     83  C28 non d ame      -4.660   4.494  67.573  0.00  0.00     0.193 C 
ATOM     84  H42 non d ame      -3.281   2.981  66.883  0.00  0.00     0.280 HD
ATOM     85  H43 non d ame      -2.518   4.498  67.301  0.00  0.00     0.280 HD
ATOM     86  H44 non d ame      -4.668   5.369  68.221  0.00  0.00     0.129 H 
ATOM     87  H37 non d ame      -5.618   5.899  67.011  0.00  0.00     0.046 H 
BRANCH  83  88
ATOM     88  O6  non d ame      -5.240   3.441  68.346  0.00  0.00    -0.369 OA
ATOM     89  H45 non d ame      -4.542   2.895  68.716  0.00  0.00     0.212 HD
ENDBRANCH  83  88
ENDBRANCH  72  75
ENDBRANCH  47  72
ENDBRANCH  45  47
ENDBRANCH   1  43
BRANCH   1  90
ATOM     90  C16 non d ame      -6.100   8.629  65.219  0.00  0.00    -0.035 C 
ATOM     91  H21 non d ame      -6.268   9.566  65.751  0.00  0.00     0.037 H 
ATOM     92  H22 non d ame      -5.811   7.734  65.770  0.00  0.00     0.037 H 
BRANCH  90  93
ATOM     93  C17 non d ame      -4.956   8.903  64.192  0.00  0.00    -0.059 C 
ATOM     94  H23 non d ame      -4.887   9.982  64.056  0.00  0.00     0.038 H 
BRANCH  93  95
ATOM     95  C18 non d ame      -3.569   8.399  64.705  0.00  0.00    -0.073 C 
ATOM     96  H24 non d ame      -3.143   9.137  65.385  0.00  0.00     0.028 H 
ATOM     97  H25 non d ame      -3.699   7.453  65.231  0.00  0.00     0.028 H 
ATOM     98  H26 non d ame      -2.899   8.254  63.858  0.00  0.00     0.028 H 
ENDBRANCH  93  95
BRANCH  93  99
ATOM     99  C19 non d ame      -5.286   8.293  62.827  0.00  0.00    -0.073 C 
ATOM    100  H27 non d ame      -6.027   8.914  62.322  0.00  0.00     0.028 H 
ATOM    101  H28 non d ame      -4.380   8.243  62.224  0.00  0.00     0.028 H 
ATOM    102  H29 non d ame      -5.686   7.289  62.965  0.00  0.00     0.028 H 
ENDBRANCH  93  99
ENDBRANCH  90  93
ENDBRANCH   1  90
TORSDOF 26
ENDMDL
