MODEL 1
REMARK VINA RESULT:      -7.2      0.000      0.000
REMARK  26 active torsions:
REMARK  status: ('A' for Active; 'I' for Inactive)
REMARK    1  A    between atoms: C2_2  and  C3_3 
REMARK    2  A    between atoms: C4_6  and  C5_7 
REMARK       I    between atoms: C5_7  and  N2_9 
REMARK    3  A    between atoms: N2_9  and  C6_10 
REMARK    4  A    between atoms: C6_10  and  C7_11 
REMARK    5  A    between atoms: C6_10  and  C8_13 
REMARK       I    between atoms: C7_11  and  N3_14 
REMARK    6  A    between atoms: N3_14  and  C9_15 
REMARK    7  A    between atoms: C9_15  and  C10_16 
REMARK    8  A    between atoms: C9_15  and  C11_18 
REMARK       I    between atoms: C10_16  and  N4_21 
REMARK    9  A    between atoms: C11_18  and  C12_19 
REMARK   10  A    between atoms: C11_18  and  C13_20 
REMARK   11  A    between atoms: N4_21  and  C14_22 
REMARK   12  A    between atoms: C14_22  and  C15_23 
REMARK   13  A    between atoms: C14_22  and  C16_25 
REMARK       I    between atoms: C15_23  and  N6_40 
REMARK   14  A    between atoms: C16_25  and  C17_26 
REMARK   15  A    between atoms: C17_26  and  C18_27 
REMARK   16  A    between atoms: C17_26  and  C19_28 
REMARK   17  A    between atoms: C20_29  and  C21_30 
REMARK   18  A    between atoms: C20_29  and  C24_33 
REMARK   19  A    between atoms: C20_29  and  N6_40 
REMARK   20  A    between atoms: C21_30  and  C22_31 
REMARK   21  A    between atoms: C22_31  and  C23_32 
REMARK   22  A    between atoms: C23_32  and  O8_43 
REMARK   23  A    between atoms: C24_33  and  C25_34 
REMARK   24  A    between atoms: C28_38  and  O6_39 
REMARK   25  A    between atoms: C29_42  and  O8_43 
REMARK   26  A    between atoms: C29_42  and  C35_49 
ROOT
ATOM      1  C14 non d ame      -8.318   6.981  66.163  0.00  0.00     0.089 C 
ATOM      2  H20 non d ame      -8.772   6.395  65.363  0.00  0.00     0.087 H 
ENDROOT
BRANCH   1   3
ATOM      3  N4  non d ame      -8.017   8.299  65.624  0.00  0.00    -0.346 N 
ATOM      4  C10 non d ame      -7.929   8.510  64.133  0.00  0.00     0.241 C 
ATOM      5  O4  non d ame      -8.101   7.602  63.387  0.00  0.00    -0.271 OA
ATOM      6  H19 non d ame      -7.871   9.057  66.275  0.00  0.00     0.163 HD
BRANCH   4   7
ATOM      7  C9  non d ame      -7.622   9.881  63.591  0.00  0.00     0.092 C 
ATOM      8  H11 non d ame      -7.855   9.908  62.527  0.00  0.00     0.088 H 
BRANCH   7   9
ATOM      9  N3  non d ame      -8.483  10.870  64.248  0.00  0.00    -0.346 N 
ATOM     10  C7  non d ame      -9.771  11.190  63.684  0.00  0.00     0.240 C 
ATOM     11  O3  non d ame     -10.131  10.664  62.703  0.00  0.00    -0.271 OA
ATOM     12  H10 non d ame      -8.186  11.334  65.095  0.00  0.00     0.163 HD
BRANCH  10  13
ATOM     13  C6  non d ame     -10.682  12.246  64.386  0.00  0.00     0.086 C 
ATOM     14  H6  non d ame     -11.009  11.929  65.376  0.00  0.00     0.086 H 
BRANCH  13  15
ATOM     15  N2  non d ame      -9.925  13.473  64.571  0.00  0.00    -0.343 N 
ATOM     16  C5  non d ame     -10.244  14.356  65.695  0.00  0.00     0.273 C 
ATOM     17  O2  non d ame     -11.114  14.071  66.442  0.00  0.00    -0.266 OA
ATOM     18  H5  non d ame      -9.185  13.710  63.925  0.00  0.00     0.163 HD
BRANCH  16  19
ATOM     19  C4  non d ame      -9.451  15.655  65.903  0.00  0.00     0.154 A 
ATOM     20  C1  non d ame      -8.149  15.791  66.482  0.00  0.00    -0.017 A 
ATOM     21  C2  non d ame      -7.876  17.176  66.441  0.00  0.00     0.077 A 
ATOM     22  H1  non d ame      -7.502  15.005  66.870  0.00  0.00     0.091 H 
ATOM     23  O1  non d ame      -8.905  17.758  65.898  0.00  0.00    -0.218 OA
ATOM     24  N1  non d ame      -9.837  16.892  65.576  0.00  0.00    -0.123 NA
BRANCH  21  25
ATOM     25  C3  non d ame      -6.609  17.860  66.938  0.00  0.00    -0.029 C 
ATOM     26  H2  non d ame      -5.780  17.152  66.913  0.00  0.00     0.036 H 
ATOM     27  H3  non d ame      -6.380  18.711  66.297  0.00  0.00     0.036 H 
ATOM     28  H4  non d ame      -6.760  18.206  67.961  0.00  0.00     0.036 H 
ENDBRANCH  21  25
ENDBRANCH  16  19
ENDBRANCH  13  15
BRANCH  13  29
ATOM     29  C8  non d ame     -11.896  12.512  63.534  0.00  0.00    -0.049 C 
ATOM     30  H7  non d ame     -12.773  12.060  63.999  0.00  0.00     0.030 H 
ATOM     31  H8  non d ame     -12.048  13.587  63.441  0.00  0.00     0.030 H 
ATOM     32  H9  non d ame     -11.747  12.079  62.544  0.00  0.00     0.030 H 
ENDBRANCH  13  29
ENDBRANCH  10  13
ENDBRANCH   7   9
BRANCH   7  33
ATOM     33  C11 non d ame      -6.131  10.228  63.873  0.00  0.00    -0.033 C 
ATOM     34  H12 non d ame      -5.880  11.106  63.279  0.00  0.00     0.042 H 
BRANCH  33  35
ATOM     35  C12 non d ame      -5.906  10.594  65.373  0.00  0.00    -0.071 C 
ATOM     36  H13 non d ame      -6.836  10.458  65.924  0.00  0.00     0.028 H 
ATOM     37  H14 non d ame      -5.136   9.948  65.793  0.00  0.00     0.028 H 
ATOM     38  H15 non d ame      -5.589  11.634  65.448  0.00  0.00     0.028 H 
ENDBRANCH  33  35
BRANCH  33  39
ATOM     39  C13 non d ame      -5.192   9.060  63.429  0.00  0.00    -0.071 C 
ATOM     40  H16 non d ame      -5.574   8.118  63.820  0.00  0.00     0.028 H 
ATOM     41  H17 non d ame      -5.158   9.015  62.340  0.00  0.00     0.028 H 
ATOM     42  H18 non d ame      -4.188   9.234  63.816  0.00  0.00     0.028 H 
ENDBRANCH  33  39
ENDBRANCH   7  33
ENDBRANCH   4   7
ENDBRANCH   1   3
BRANCH   1  43
ATOM     43  C15 non d ame      -9.269   7.150  67.381  0.00  0.00     0.240 C 
ATOM     44  O5  non d ame     -10.306   6.571  67.407  0.00  0.00    -0.271 OA
ATOM     45  N6  non d ame      -8.883   8.030  68.522  0.00  0.00    -0.355 N 
ATOM     46  H46 non d ame      -8.003   8.524  68.513  0.00  0.00     0.162 HD
BRANCH  45  47
ATOM     47  C20 non d ame      -9.798   8.181  69.673  0.00  0.00     0.013 C 
ATOM     48  H30 non d ame     -10.791   7.860  69.357  0.00  0.00     0.072 H 
BRANCH  47  49
ATOM     49  C21 non d ame      -9.835   9.631  70.097  0.00  0.00    -0.038 C 
ATOM     50  H31 non d ame     -10.795   9.769  70.594  0.00  0.00     0.036 H 
ATOM     51  H32 non d ame      -8.908   9.802  70.646  0.00  0.00     0.036 H 
BRANCH  49  52
ATOM     52  C22 non d ame      -9.819  10.606  68.899  0.00  0.00     0.018 C 
ATOM     53  H33 non d ame      -9.078  11.367  69.147  0.00  0.00     0.048 H 
ATOM     54  H34 non d ame      -9.686   9.984  68.015  0.00  0.00     0.048 H 
BRANCH  52  55
ATOM     55  C23 non d ame     -11.159  11.366  68.692  0.00  0.00     0.259 C 
ATOM     56  O7  non d ame     -11.970  10.959  67.924  0.00  0.00    -0.265 OA
BRANCH  55  57
ATOM     57  O8  non d ame     -11.402  12.562  69.422  0.00  0.00    -0.317 OA
BRANCH  57  58
ATOM     58  C29 non d ame     -12.471  12.460  70.368  0.00  0.00     0.052 C 
ATOM     59  H47 non d ame     -13.386  12.437  69.777  0.00  0.00     0.082 H 
ATOM     60  H48 non d ame     -12.215  11.617  71.010  0.00  0.00     0.082 H 
BRANCH  58  61
ATOM     61  C35 non d ame     -12.472  13.751  71.229  0.00  0.00    -0.034 A 
ATOM     62  C30 non d ame     -13.176  13.788  72.428  0.00  0.00    -0.075 A 
ATOM     63  C31 non d ame     -13.177  14.948  73.202  0.00  0.00    -0.082 A 
ATOM     64  H49 non d ame     -13.726  12.908  72.763  0.00  0.00     0.084 H 
ATOM     65  C32 non d ame     -12.474  16.075  72.769  0.00  0.00    -0.083 A 
ATOM     66  H50 non d ame     -13.727  14.973  74.143  0.00  0.00     0.083 H 
ATOM     67  C33 non d ame     -11.776  16.035  71.570  0.00  0.00    -0.082 A 
ATOM     68  H51 non d ame     -12.469  16.986  73.368  0.00  0.00     0.083 H 
ATOM     69  C34 non d ame     -11.770  14.877  70.795  0.00  0.00    -0.075 A 
ATOM     70  H52 non d ame     -11.229  16.917  71.235  0.00  0.00     0.083 H 
ATOM     71  H53 non d ame     -11.218  14.853  69.855  0.00  0.00     0.084 H 
ENDBRANCH  58  61
ENDBRANCH  57  58
ENDBRANCH  55  57
ENDBRANCH  52  55
ENDBRANCH  49  52
ENDBRANCH  47  49
BRANCH  47  72
ATOM     72  C24 non d ame      -9.309   7.321  70.837  0.00  0.00    -0.039 C 
ATOM     73  H35 non d ame      -8.656   6.572  70.389  0.00  0.00     0.036 H 
ATOM     74  H36 non d ame      -8.909   8.023  71.569  0.00  0.00     0.036 H 
BRANCH  72  75
ATOM     75  C25 non d ame     -10.513   6.537  71.544  0.00  0.00    -0.001 C 
ATOM     76  C26 non d ame     -11.892   6.721  70.666  0.00  0.00    -0.035 C 
ATOM     77  C27 non d ame     -12.881   7.139  71.491  0.00  0.00     0.085 C 
ATOM     78  H38 non d ame     -11.780   7.545  69.963  0.00  0.00     0.036 H 
ATOM     79  H39 non d ame     -12.245   5.751  70.317  0.00  0.00     0.036 H 
ATOM     80  N5  non d ame     -12.226   7.572  72.781  0.00  0.00    -0.049 N 
ATOM     81  H40 non d ame     -13.317   8.012  71.004  0.00  0.00     0.075 H 
ATOM     82  H41 non d ame     -13.493   6.259  71.682  0.00  0.00     0.075 H 
ATOM     83  C28 non d ame     -10.725   6.980  72.738  0.00  0.00     0.193 C 
ATOM     84  H42 non d ame     -12.177   8.579  72.753  0.00  0.00     0.280 HD
ATOM     85  H43 non d ame     -12.731   7.112  73.526  0.00  0.00     0.280 HD
ATOM     86  H44 non d ame     -10.457   6.103  73.326  0.00  0.00     0.129 H 
ATOM     87  H37 non d ame     -10.236   5.520  71.824  0.00  0.00     0.046 H 
BRANCH  83  88
ATOM     88  O6  non d ame      -9.786   7.991  73.110  0.00  0.00    -0.369 OA
ATOM     89  H45 non d ame     -10.242   8.830  73.212  0.00  0.00     0.212 HD
ENDBRANCH  83  88
ENDBRANCH  72  75
ENDBRANCH  47  72
ENDBRANCH  45  47
ENDBRANCH   1  43
BRANCH   1  90
ATOM     90  C16 non d ame      -7.024   6.322  66.612  0.00  0.00    -0.035 C 
ATOM     91  H21 non d ame      -6.255   7.087  66.496  0.00  0.00     0.037 H 
ATOM     92  H22 non d ame      -7.237   5.909  67.598  0.00  0.00     0.037 H 
BRANCH  90  93
ATOM     93  C17 non d ame      -6.588   5.120  65.715  0.00  0.00    -0.059 C 
ATOM     94  H23 non d ame      -7.469   4.773  65.176  0.00  0.00     0.038 H 
BRANCH  93  95
ATOM     95  C18 non d ame      -5.514   5.532  64.658  0.00  0.00    -0.073 C 
ATOM     96  H24 non d ame      -5.391   4.728  63.933  0.00  0.00     0.028 H 
ATOM     97  H25 non d ame      -5.839   6.438  64.145  0.00  0.00     0.028 H 
ATOM     98  H26 non d ame      -4.564   5.719  65.159  0.00  0.00     0.028 H 
ENDBRANCH  93  95
BRANCH  93  99
ATOM     99  C19 non d ame      -6.090   3.951  66.570  0.00  0.00    -0.073 C 
ATOM    100  H27 non d ame      -5.861   3.102  65.926  0.00  0.00     0.028 H 
ATOM    101  H28 non d ame      -5.191   4.254  67.108  0.00  0.00     0.028 H 
ATOM    102  H29 non d ame      -6.862   3.669  67.285  0.00  0.00     0.028 H 
ENDBRANCH  93  99
ENDBRANCH  90  93
ENDBRANCH   1  90
TORSDOF 26
ENDMDL
MODEL 2
REMARK VINA RESULT:      -6.9      1.641      2.178
REMARK  26 active torsions:
REMARK  status: ('A' for Active; 'I' for Inactive)
REMARK    1  A    between atoms: C2_2  and  C3_3 
REMARK    2  A    between atoms: C4_6  and  C5_7 
REMARK       I    between atoms: C5_7  and  N2_9 
REMARK    3  A    between atoms: N2_9  and  C6_10 
REMARK    4  A    between atoms: C6_10  and  C7_11 
REMARK    5  A    between atoms: C6_10  and  C8_13 
REMARK       I    between atoms: C7_11  and  N3_14 
REMARK    6  A    between atoms: N3_14  and  C9_15 
REMARK    7  A    between atoms: C9_15  and  C10_16 
REMARK    8  A    between atoms: C9_15  and  C11_18 
REMARK       I    between atoms: C10_16  and  N4_21 
REMARK    9  A    between atoms: C11_18  and  C12_19 
REMARK   10  A    between atoms: C11_18  and  C13_20 
REMARK   11  A    between atoms: N4_21  and  C14_22 
REMARK   12  A    between atoms: C14_22  and  C15_23 
REMARK   13  A    between atoms: C14_22  and  C16_25 
REMARK       I    between atoms: C15_23  and  N6_40 
REMARK   14  A    between atoms: C16_25  and  C17_26 
REMARK   15  A    between atoms: C17_26  and  C18_27 
REMARK   16  A    between atoms: C17_26  and  C19_28 
REMARK   17  A    between atoms: C20_29  and  C21_30 
REMARK   18  A    between atoms: C20_29  and  C24_33 
REMARK   19  A    between atoms: C20_29  and  N6_40 
REMARK   20  A    between atoms: C21_30  and  C22_31 
REMARK   21  A    between atoms: C22_31  and  C23_32 
REMARK   22  A    between atoms: C23_32  and  O8_43 
REMARK   23  A    between atoms: C24_33  and  C25_34 
REMARK   24  A    between atoms: C28_38  and  O6_39 
REMARK   25  A    between atoms: C29_42  and  O8_43 
REMARK   26  A    between atoms: C29_42  and  C35_49 
ROOT
ATOM      1  C14 non d ame      -9.200   6.720  67.700  0.00  0.00     0.089 C 
ATOM      2  H20 non d ame      -9.409   6.100  66.827  0.00  0.00     0.087 H 
ENDROOT
BRANCH   1   3
ATOM      3  N4  non d ame      -8.817   8.039  67.219  0.00  0.00    -0.346 N 
ATOM      4  C10 non d ame      -8.497   8.254  65.760  0.00  0.00     0.241 C 
ATOM      5  O4  non d ame      -8.551   7.349  64.994  0.00  0.00    -0.271 OA
ATOM      6  H19 non d ame      -8.774   8.795  67.887  0.00  0.00     0.163 HD
BRANCH   4   7
ATOM      7  C9  non d ame      -8.108   9.627  65.278  0.00  0.00     0.092 C 
ATOM      8  H11 non d ame      -7.900   9.586  64.208  0.00  0.00     0.088 H 
BRANCH   7   9
ATOM      9  N3  non d ame      -9.233  10.548  65.465  0.00  0.00    -0.346 N 
ATOM     10  C7  non d ame     -10.069  10.902  64.345  0.00  0.00     0.240 C 
ATOM     11  O3  non d ame      -9.850  10.457  63.285  0.00  0.00    -0.271 OA
ATOM     12  H10 non d ame      -9.434  10.941  66.374  0.00  0.00     0.163 HD
BRANCH  10  13
ATOM     13  C6  non d ame     -11.263  11.886  64.550  0.00  0.00     0.086 C 
ATOM     14  H6  non d ame     -11.884  11.622  65.406  0.00  0.00     0.086 H 
BRANCH  13  15
ATOM     15  N2  non d ame     -10.738  13.216  64.812  0.00  0.00    -0.343 N 
ATOM     16  C5  non d ame     -11.556  14.183  65.548  0.00  0.00     0.273 C 
ATOM     17  O2  non d ame     -12.635  13.881  65.923  0.00  0.00    -0.266 OA
ATOM     18  H5  non d ame      -9.816  13.466  64.485  0.00  0.00     0.163 HD
BRANCH  16  19
ATOM     19  C4  non d ame     -11.013  15.592  65.832  0.00  0.00     0.154 A 
ATOM     20  C1  non d ame     -10.638  16.135  67.102  0.00  0.00    -0.017 A 
ATOM     21  C2  non d ame     -10.208  17.451  66.822  0.00  0.00     0.077 A 
ATOM     22  H1  non d ame     -10.672  15.648  68.077  0.00  0.00     0.091 H 
ATOM     23  O1  non d ame     -10.324  17.631  65.539  0.00  0.00    -0.218 OA
ATOM     24  N1  non d ame     -10.792  16.561  64.939  0.00  0.00    -0.123 NA
BRANCH  21  25
ATOM     25  C3  non d ame      -9.700  18.468  67.835  0.00  0.00    -0.029 C 
ATOM     26  H2  non d ame      -9.346  19.356  67.313  0.00  0.00     0.036 H 
ATOM     27  H3  non d ame     -10.509  18.742  68.511  0.00  0.00     0.036 H 
ATOM     28  H4  non d ame      -8.880  18.032  68.408  0.00  0.00     0.036 H 
ENDBRANCH  21  25
ENDBRANCH  16  19
ENDBRANCH  13  15
BRANCH  13  29
ATOM     29  C8  non d ame     -12.122  11.904  63.312  0.00  0.00    -0.049 C 
ATOM     30  H7  non d ame     -13.174  11.924  63.600  0.00  0.00     0.030 H 
ATOM     31  H8  non d ame     -11.890  12.788  62.720  0.00  0.00     0.030 H 
ATOM     32  H9  non d ame     -11.925  11.009  62.721  0.00  0.00     0.030 H 
ENDBRANCH  13  29
ENDBRANCH  10  13
ENDBRANCH   7   9
BRANCH   7  33
ATOM     33  C11 non d ame      -6.883  10.135  66.093  0.00  0.00    -0.033 C 
ATOM     34  H12 non d ame      -6.619   9.358  66.809  0.00  0.00     0.042 H 
BRANCH  33  35
ATOM     35  C12 non d ame      -5.644  10.366  65.172  0.00  0.00    -0.071 C 
ATOM     36  H13 non d ame      -4.916   9.572  65.337  0.00  0.00     0.028 H 
ATOM     37  H14 non d ame      -5.960  10.360  64.130  0.00  0.00     0.028 H 
ATOM     38  H15 non d ame      -5.191  11.328  65.410  0.00  0.00     0.028 H 
ENDBRANCH  33  35
BRANCH  33  39
ATOM     39  C13 non d ame      -7.242  11.428  66.893  0.00  0.00    -0.071 C 
ATOM     40  H16 non d ame      -6.426  12.145  66.811  0.00  0.00     0.028 H 
ATOM     41  H17 non d ame      -8.153  11.867  66.485  0.00  0.00     0.028 H 
ATOM     42  H18 non d ame      -7.399  11.175  67.941  0.00  0.00     0.028 H 
ENDBRANCH  33  39
ENDBRANCH   7  33
ENDBRANCH   4   7
ENDBRANCH   1   3
BRANCH   1  43
ATOM     43  C15 non d ame     -10.441   6.872  68.625  0.00  0.00     0.240 C 
ATOM     44  O5  non d ame     -11.432   6.261  68.389  0.00  0.00    -0.271 OA
ATOM     45  N6  non d ame     -10.390   7.773  69.812  0.00  0.00    -0.355 N 
ATOM     46  H46 non d ame      -9.551   8.293  70.024  0.00  0.00     0.162 HD
BRANCH  45  47
ATOM     47  C20 non d ame     -11.578   7.906  70.682  0.00  0.00     0.013 C 
ATOM     48  H30 non d ame     -12.458   7.663  70.088  0.00  0.00     0.072 H 
BRANCH  47  49
ATOM     49  C21 non d ame     -11.672   9.329  71.185  0.00  0.00    -0.038 C 
ATOM     50  H31 non d ame     -12.306   9.286  72.071  0.00  0.00     0.036 H 
ATOM     51  H32 non d ame     -10.644   9.682  71.267  0.00  0.00     0.036 H 
BRANCH  49  52
ATOM     52  C22 non d ame     -12.379  10.272  70.187  0.00  0.00     0.018 C 
ATOM     53  H33 non d ame     -13.024   9.633  69.583  0.00  0.00     0.048 H 
ATOM     54  H34 non d ame     -12.814  11.068  70.790  0.00  0.00     0.048 H 
BRANCH  52  55
ATOM     55  C23 non d ame     -11.412  10.968  69.189  0.00  0.00     0.259 C 
ATOM     56  O7  non d ame     -11.038  10.399  68.215  0.00  0.00    -0.265 OA
BRANCH  55  57
ATOM     57  O8  non d ame     -10.965  12.290  69.461  0.00  0.00    -0.317 OA
BRANCH  57  58
ATOM     58  C29 non d ame     -11.934  13.303  69.173  0.00  0.00     0.052 C 
ATOM     59  H47 non d ame     -11.460  13.968  68.453  0.00  0.00     0.082 H 
ATOM     60  H48 non d ame     -12.846  12.769  68.905  0.00  0.00     0.082 H 
BRANCH  58  61
ATOM     61  C35 non d ame     -12.198  14.098  70.480  0.00  0.00    -0.034 A 
ATOM     62  C30 non d ame     -12.974  13.540  71.491  0.00  0.00    -0.075 A 
ATOM     63  C31 non d ame     -13.210  14.255  72.664  0.00  0.00    -0.082 A 
ATOM     64  H49 non d ame     -13.397  12.543  71.364  0.00  0.00     0.084 H 
ATOM     65  C32 non d ame     -12.670  15.534  72.823  0.00  0.00    -0.083 A 
ATOM     66  H50 non d ame     -13.817  13.814  73.456  0.00  0.00     0.083 H 
ATOM     67  C33 non d ame     -11.899  16.088  71.810  0.00  0.00    -0.082 A 
ATOM     68  H51 non d ame     -12.849  16.099  73.738  0.00  0.00     0.083 H 
ATOM     69  C34 non d ame     -11.658  15.376  70.637  0.00  0.00    -0.075 A 
ATOM     70  H52 non d ame     -11.480  17.087  71.937  0.00  0.00     0.083 H 
ATOM     71  H53 non d ame     -11.050  15.817  69.846  0.00  0.00     0.084 H 
ENDBRANCH  58  61
ENDBRANCH  57  58
ENDBRANCH  55  57
ENDBRANCH  52  55
ENDBRANCH  49  52
ENDBRANCH  47  49
BRANCH  47  72
ATOM     72  C24 non d ame     -11.458   6.952  71.868  0.00  0.00    -0.039 C 
ATOM     73  H35 non d ame     -11.810   7.517  72.732  0.00  0.00     0.036 H 
ATOM     74  H36 non d ame     -11.978   6.044  71.564  0.00  0.00     0.036 H 
BRANCH  72  75
ATOM     75  C25 non d ame      -9.934   6.551  72.156  0.00  0.00    -0.001 C 
ATOM     76  C26 non d ame      -9.693   4.967  71.784  0.00  0.00    -0.035 C 
ATOM     77  C27 non d ame      -9.103   4.357  72.840  0.00  0.00     0.085 C 
ATOM     78  H38 non d ame     -10.649   4.454  71.695  0.00  0.00     0.036 H 
ATOM     79  H39 non d ame      -8.950   4.878  70.992  0.00  0.00     0.036 H 
ATOM     80  N5  non d ame      -9.219   5.298  74.015  0.00  0.00    -0.049 N 
ATOM     81  H40 non d ame      -9.705   3.468  73.036  0.00  0.00     0.075 H 
ATOM     82  H41 non d ame      -8.053   4.255  72.569  0.00  0.00     0.075 H 
ATOM     83  C28 non d ame      -9.627   6.732  73.397  0.00  0.00     0.193 C 
ATOM     84  H42 non d ame      -9.985   4.960  74.578  0.00  0.00     0.280 HD
ATOM     85  H43 non d ame      -8.294   5.373  74.414  0.00  0.00     0.280 HD
ATOM     86  H44 non d ame      -8.888   7.528  73.305  0.00  0.00     0.129 H 
ATOM     87  H37 non d ame      -9.231   7.271  71.736  0.00  0.00     0.046 H 
BRANCH  83  88
ATOM     88  O6  non d ame     -10.708   7.300  74.140  0.00  0.00    -0.369 OA
ATOM     89  H45 non d ame     -10.361   7.922  74.784  0.00  0.00     0.212 HD
ENDBRANCH  83  88
ENDBRANCH  72  75
ENDBRANCH  47  72
ENDBRANCH  45  47
ENDBRANCH   1  43
BRANCH   1  90
ATOM     90  C16 non d ame      -8.044   6.125  68.488  0.00  0.00    -0.035 C 
ATOM     91  H21 non d ame      -8.418   6.011  69.507  0.00  0.00     0.037 H 
ATOM     92  H22 non d ame      -7.729   5.249  67.923  0.00  0.00     0.037 H 
BRANCH  90  93
ATOM     93  C17 non d ame      -6.799   7.064  68.579  0.00  0.00    -0.059 C 
ATOM     94  H23 non d ame      -7.092   8.041  68.196  0.00  0.00     0.038 H 
BRANCH  93  95
ATOM     95  C18 non d ame      -6.311   7.256  70.051  0.00  0.00    -0.073 C 
ATOM     96  H24 non d ame      -5.224   7.185  70.085  0.00  0.00     0.028 H 
ATOM     97  H25 non d ame      -6.623   8.237  70.411  0.00  0.00     0.028 H 
ATOM     98  H26 non d ame      -6.747   6.481  70.682  0.00  0.00     0.028 H 
ENDBRANCH  93  95
BRANCH  93  99
ATOM     99  C19 non d ame      -5.661   6.551  67.691  0.00  0.00    -0.073 C 
ATOM    100  H27 non d ame      -5.827   6.879  66.664  0.00  0.00     0.028 H 
ATOM    101  H28 non d ame      -4.713   6.949  68.052  0.00  0.00     0.028 H 
ATOM    102  H29 non d ame      -5.635   5.462  67.727  0.00  0.00     0.028 H 
ENDBRANCH  93  99
ENDBRANCH  90  93
ENDBRANCH   1  90
TORSDOF 26
ENDMDL
MODEL 3
REMARK VINA RESULT:      -6.8      2.919      7.684
REMARK  26 active torsions:
REMARK  status: ('A' for Active; 'I' for Inactive)
REMARK    1  A    between atoms: C2_2  and  C3_3 
REMARK    2  A    between atoms: C4_6  and  C5_7 
REMARK       I    between atoms: C5_7  and  N2_9 
REMARK    3  A    between atoms: N2_9  and  C6_10 
REMARK    4  A    between atoms: C6_10  and  C7_11 
REMARK    5  A    between atoms: C6_10  and  C8_13 
REMARK       I    between atoms: C7_11  and  N3_14 
REMARK    6  A    between atoms: N3_14  and  C9_15 
REMARK    7  A    between atoms: C9_15  and  C10_16 
REMARK    8  A    between atoms: C9_15  and  C11_18 
REMARK       I    between atoms: C10_16  and  N4_21 
REMARK    9  A    between atoms: C11_18  and  C12_19 
REMARK   10  A    between atoms: C11_18  and  C13_20 
REMARK   11  A    between atoms: N4_21  and  C14_22 
REMARK   12  A    between atoms: C14_22  and  C15_23 
REMARK   13  A    between atoms: C14_22  and  C16_25 
REMARK       I    between atoms: C15_23  and  N6_40 
REMARK   14  A    between atoms: C16_25  and  C17_26 
REMARK   15  A    between atoms: C17_26  and  C18_27 
REMARK   16  A    between atoms: C17_26  and  C19_28 
REMARK   17  A    between atoms: C20_29  and  C21_30 
REMARK   18  A    between atoms: C20_29  and  C24_33 
REMARK   19  A    between atoms: C20_29  and  N6_40 
REMARK   20  A    between atoms: C21_30  and  C22_31 
REMARK   21  A    between atoms: C22_31  and  C23_32 
REMARK   22  A    between atoms: C23_32  and  O8_43 
REMARK   23  A    between atoms: C24_33  and  C25_34 
REMARK   24  A    between atoms: C28_38  and  O6_39 
REMARK   25  A    between atoms: C29_42  and  O8_43 
REMARK   26  A    between atoms: C29_42  and  C35_49 
ROOT
ATOM      1  C14 non d ame     -10.204   7.859  69.901  0.00  0.00     0.089 C 
ATOM      2  H20 non d ame     -11.246   7.646  69.661  0.00  0.00     0.087 H 
ENDROOT
BRANCH   1   3
ATOM      3  N4  non d ame      -9.541   6.585  70.139  0.00  0.00    -0.346 N 
ATOM      4  C10 non d ame      -9.992   5.343  69.411  0.00  0.00     0.241 C 
ATOM      5  O4  non d ame     -10.893   5.394  68.639  0.00  0.00    -0.271 OA
ATOM      6  H19 non d ame      -8.779   6.562  70.801  0.00  0.00     0.163 HD
BRANCH   4   7
ATOM      7  C9  non d ame      -9.292   4.035  69.666  0.00  0.00     0.092 C 
ATOM      8  H11 non d ame      -9.765   3.253  69.072  0.00  0.00     0.088 H 
BRANCH   7   9
ATOM      9  N3  non d ame      -7.898   4.131  69.221  0.00  0.00    -0.346 N 
ATOM     10  C7  non d ame      -7.561   3.868  67.845  0.00  0.00     0.240 C 
ATOM     11  O3  non d ame      -8.398   3.577  67.080  0.00  0.00    -0.271 OA
ATOM     12  H10 non d ame      -7.164   4.381  69.870  0.00  0.00     0.163 HD
BRANCH  10  13
ATOM     13  C6  non d ame      -6.075   3.970  67.378  0.00  0.00     0.086 C 
ATOM     14  H6  non d ame      -5.734   3.076  66.856  0.00  0.00     0.086 H 
BRANCH  13  15
ATOM     15  N2  non d ame      -5.950   5.073  66.439  0.00  0.00    -0.343 N 
ATOM     16  C5  non d ame      -5.014   4.963  65.318  0.00  0.00     0.273 C 
ATOM     17  O2  non d ame      -4.365   3.986  65.182  0.00  0.00    -0.266 OA
ATOM     18  H5  non d ame      -6.507   5.906  66.565  0.00  0.00     0.163 HD
BRANCH  16  19
ATOM     19  C4  non d ame      -4.873   6.121  64.317  0.00  0.00     0.154 A 
ATOM     20  C1  non d ame      -4.593   7.493  64.615  0.00  0.00    -0.017 A 
ATOM     21  C2  non d ame      -4.566   8.139  63.360  0.00  0.00     0.077 A 
ATOM     22  H1  non d ame      -4.432   7.948  65.593  0.00  0.00     0.091 H 
ATOM     23  O1  non d ame      -4.803   7.236  62.454  0.00  0.00    -0.218 OA
ATOM     24  N1  non d ame      -4.985   6.050  62.988  0.00  0.00    -0.123 NA
BRANCH  21  25
ATOM     25  C3  non d ame      -4.306   9.619  63.114  0.00  0.00    -0.029 C 
ATOM     26  H2  non d ame      -4.288  10.149  64.067  0.00  0.00     0.036 H 
ATOM     27  H3  non d ame      -3.347   9.742  62.612  0.00  0.00     0.036 H 
ATOM     28  H4  non d ame      -5.099  10.029  62.486  0.00  0.00     0.036 H 
ENDBRANCH  21  25
ENDBRANCH  16  19
ENDBRANCH  13  15
BRANCH  13  29
ATOM     29  C8  non d ame      -5.185   4.205  68.572  0.00  0.00    -0.049 C 
ATOM     30  H7  non d ame      -4.595   5.108  68.413  0.00  0.00     0.030 H 
ATOM     31  H8  non d ame      -5.798   4.324  69.465  0.00  0.00     0.030 H 
ATOM     32  H9  non d ame      -4.517   3.354  68.700  0.00  0.00     0.030 H 
ENDBRANCH  13  29
ENDBRANCH  10  13
ENDBRANCH   7   9
BRANCH   7  33
ATOM     33  C11 non d ame      -9.327   3.716  71.189  0.00  0.00    -0.033 C 
ATOM     34  H12 non d ame     -10.043   4.394  71.651  0.00  0.00     0.042 H 
BRANCH  33  35
ATOM     35  C12 non d ame      -9.822   2.260  71.454  0.00  0.00    -0.071 C 
ATOM     36  H13 non d ame     -10.160   2.173  72.486  0.00  0.00     0.028 H 
ATOM     37  H14 non d ame     -10.647   2.028  70.780  0.00  0.00     0.028 H 
ATOM     38  H15 non d ame      -9.003   1.562  71.280  0.00  0.00     0.028 H 
ENDBRANCH  33  35
BRANCH  33  39
ATOM     39  C13 non d ame      -7.931   3.967  71.845  0.00  0.00    -0.071 C 
ATOM     40  H16 non d ame      -7.365   3.036  71.860  0.00  0.00     0.028 H 
ATOM     41  H17 non d ame      -7.387   4.714  71.267  0.00  0.00     0.028 H 
ATOM     42  H18 non d ame      -8.068   4.326  72.865  0.00  0.00     0.028 H 
ENDBRANCH  33  39
ENDBRANCH   7  33
ENDBRANCH   4   7
ENDBRANCH   1   3
BRANCH   1  43
ATOM     43  C15 non d ame      -9.470   8.588  68.739  0.00  0.00     0.240 C 
ATOM     44  O5  non d ame      -8.328   8.347  68.518  0.00  0.00    -0.271 OA
ATOM     45  N6  non d ame     -10.196   9.581  67.896  0.00  0.00    -0.355 N 
ATOM     46  H46 non d ame     -11.167   9.790  68.072  0.00  0.00     0.162 HD
BRANCH  45  47
ATOM     47  C20 non d ame      -9.484  10.265  66.795  0.00  0.00     0.013 C 
ATOM     48  H30 non d ame      -8.419  10.251  67.023  0.00  0.00     0.072 H 
BRANCH  47  49
ATOM     49  C21 non d ame      -9.971  11.693  66.696  0.00  0.00    -0.038 C 
ATOM     50  H31 non d ame      -9.263  12.286  67.273  0.00  0.00     0.036 H 
ATOM     51  H32 non d ame     -10.103  11.886  65.631  0.00  0.00     0.036 H 
BRANCH  49  52
ATOM     52  C22 non d ame     -11.353  11.902  67.352  0.00  0.00     0.018 C 
ATOM     53  H33 non d ame     -12.047  11.280  66.786  0.00  0.00     0.048 H 
ATOM     54  H34 non d ame     -11.204  11.722  68.417  0.00  0.00     0.048 H 
BRANCH  52  55
ATOM     55  C23 non d ame     -11.889  13.356  67.235  0.00  0.00     0.259 C 
ATOM     56  O7  non d ame     -11.948  13.893  66.176  0.00  0.00    -0.265 OA
BRANCH  55  57
ATOM     57  O8  non d ame     -12.298  14.045  68.410  0.00  0.00    -0.317 OA
BRANCH  57  58
ATOM     58  C29 non d ame     -11.260  14.202  69.382  0.00  0.00     0.052 C 
ATOM     59  H47 non d ame     -10.790  13.223  69.472  0.00  0.00     0.082 H 
ATOM     60  H48 non d ame     -10.674  15.059  69.052  0.00  0.00     0.082 H 
BRANCH  58  61
ATOM     61  C35 non d ame     -11.925  14.555  70.739  0.00  0.00    -0.034 A 
ATOM     62  C30 non d ame     -12.873  13.701  71.294  0.00  0.00    -0.075 A 
ATOM     63  C31 non d ame     -13.471  14.019  72.513  0.00  0.00    -0.082 A 
ATOM     64  H49 non d ame     -13.147  12.783  70.775  0.00  0.00     0.084 H 
ATOM     65  C32 non d ame     -13.119  15.198  73.176  0.00  0.00    -0.083 A 
ATOM     66  H50 non d ame     -14.210  13.346  72.947  0.00  0.00     0.083 H 
ATOM     67  C33 non d ame     -12.176  16.050  72.616  0.00  0.00    -0.082 A 
ATOM     68  H51 non d ame     -13.581  15.454  74.130  0.00  0.00     0.083 H 
ATOM     69  C34 non d ame     -11.575  15.734  71.399  0.00  0.00    -0.075 A 
ATOM     70  H52 non d ame     -11.906  16.970  73.135  0.00  0.00     0.083 H 
ATOM     71  H53 non d ame     -10.833  16.408  70.967  0.00  0.00     0.084 H 
ENDBRANCH  58  61
ENDBRANCH  57  58
ENDBRANCH  55  57
ENDBRANCH  52  55
ENDBRANCH  49  52
ENDBRANCH  47  49
BRANCH  47  72
ATOM     72  C24 non d ame      -9.755   9.541  65.478  0.00  0.00    -0.039 C 
ATOM     73  H35 non d ame     -10.404   8.704  65.735  0.00  0.00     0.036 H 
ATOM     74  H36 non d ame     -10.107  10.311  64.790  0.00  0.00     0.036 H 
BRANCH  72  75
ATOM     75  C25 non d ame      -8.415   8.926  64.852  0.00  0.00    -0.001 C 
ATOM     76  C26 non d ame      -8.379   9.195  63.230  0.00  0.00    -0.035 C 
ATOM     77  C27 non d ame      -8.133   8.022  62.599  0.00  0.00     0.085 C 
ATOM     78  H38 non d ame      -9.371   9.472  62.875  0.00  0.00     0.036 H 
ATOM     79  H39 non d ame      -7.517   9.809  62.972  0.00  0.00     0.036 H 
ATOM     80  N5  non d ame      -8.322   6.924  63.618  0.00  0.00    -0.049 N 
ATOM     81  H40 non d ame      -8.906   7.935  61.835  0.00  0.00     0.075 H 
ATOM     82  H41 non d ame      -7.083   8.062  62.311  0.00  0.00     0.075 H 
ATOM     83  C28 non d ame      -8.342   7.653  65.058  0.00  0.00     0.193 C 
ATOM     84  H42 non d ame      -9.234   6.528  63.445  0.00  0.00     0.280 HD
ATOM     85  H43 non d ame      -7.500   6.340  63.566  0.00  0.00     0.280 HD
ATOM     86  H44 non d ame      -7.474   7.607  65.715  0.00  0.00     0.129 H 
ATOM     87  H37 non d ame      -7.528   9.206  65.421  0.00  0.00     0.046 H 
BRANCH  83  88
ATOM     88  O6  non d ame      -9.438   7.172  65.840  0.00  0.00    -0.369 OA
ATOM     89  H45 non d ame      -9.527   7.710  66.630  0.00  0.00     0.212 HD
ENDBRANCH  83  88
ENDBRANCH  72  75
ENDBRANCH  47  72
ENDBRANCH  45  47
ENDBRANCH   1  43
BRANCH   1  90
ATOM     90  C16 non d ame     -10.128   8.702  71.163  0.00  0.00    -0.035 C 
ATOM     91  H21 non d ame      -9.649   8.064  71.908  0.00  0.00     0.037 H 
ATOM     92  H22 non d ame      -9.652   9.634  70.859  0.00  0.00     0.037 H 
BRANCH  90  93
ATOM     93  C17 non d ame     -11.525   9.087  71.745  0.00  0.00    -0.059 C 
ATOM     94  H23 non d ame     -11.376   9.410  72.775  0.00  0.00     0.038 H 
BRANCH  93  95
ATOM     95  C18 non d ame     -12.182  10.271  70.966  0.00  0.00    -0.073 C 
ATOM     96  H24 non d ame     -12.958   9.884  70.305  0.00  0.00     0.028 H 
ATOM     97  H25 non d ame     -12.624  10.971  71.674  0.00  0.00     0.028 H 
ATOM     98  H26 non d ame     -11.422  10.783  70.374  0.00  0.00     0.028 H 
ENDBRANCH  93  95
BRANCH  93  99
ATOM     99  C19 non d ame     -12.457   7.873  71.780  0.00  0.00    -0.073 C 
ATOM    100  H27 non d ame     -12.150   7.203  72.584  0.00  0.00     0.028 H 
ATOM    101  H28 non d ame     -13.480   8.208  71.955  0.00  0.00     0.028 H 
ATOM    102  H29 non d ame     -12.406   7.347  70.827  0.00  0.00     0.028 H 
ENDBRANCH  93  99
ENDBRANCH  90  93
ENDBRANCH   1  90
TORSDOF 26
ENDMDL
MODEL 4
REMARK VINA RESULT:      -6.8      2.347      8.041
REMARK  26 active torsions:
REMARK  status: ('A' for Active; 'I' for Inactive)
REMARK    1  A    between atoms: C2_2  and  C3_3 
REMARK    2  A    between atoms: C4_6  and  C5_7 
REMARK       I    between atoms: C5_7  and  N2_9 
REMARK    3  A    between atoms: N2_9  and  C6_10 
REMARK    4  A    between atoms: C6_10  and  C7_11 
REMARK    5  A    between atoms: C6_10  and  C8_13 
REMARK       I    between atoms: C7_11  and  N3_14 
REMARK    6  A    between atoms: N3_14  and  C9_15 
REMARK    7  A    between atoms: C9_15  and  C10_16 
REMARK    8  A    between atoms: C9_15  and  C11_18 
REMARK       I    between atoms: C10_16  and  N4_21 
REMARK    9  A    between atoms: C11_18  and  C12_19 
REMARK   10  A    between atoms: C11_18  and  C13_20 
REMARK   11  A    between atoms: N4_21  and  C14_22 
REMARK   12  A    between atoms: C14_22  and  C15_23 
REMARK   13  A    between atoms: C14_22  and  C16_25 
REMARK       I    between atoms: C15_23  and  N6_40 
REMARK   14  A    between atoms: C16_25  and  C17_26 
REMARK   15  A    between atoms: C17_26  and  C18_27 
REMARK   16  A    between atoms: C17_26  and  C19_28 
REMARK   17  A    between atoms: C20_29  and  C21_30 
REMARK   18  A    between atoms: C20_29  and  C24_33 
REMARK   19  A    between atoms: C20_29  and  N6_40 
REMARK   20  A    between atoms: C21_30  and  C22_31 
REMARK   21  A    between atoms: C22_31  and  C23_32 
REMARK   22  A    between atoms: C23_32  and  O8_43 
REMARK   23  A    between atoms: C24_33  and  C25_34 
REMARK   24  A    between atoms: C28_38  and  O6_39 
REMARK   25  A    between atoms: C29_42  and  O8_43 
REMARK   26  A    between atoms: C29_42  and  C35_49 
ROOT
ATOM      1  C14 non d ame     -10.163  13.036  66.206  0.00  0.00     0.089 C 
ATOM      2  H20 non d ame      -9.083  13.115  66.336  0.00  0.00     0.087 H 
ENDROOT
BRANCH   1   3
ATOM      3  N4  non d ame     -10.575  11.746  66.740  0.00  0.00    -0.346 N 
ATOM      4  C10 non d ame      -9.938  11.203  67.996  0.00  0.00     0.241 C 
ATOM      5  O4  non d ame      -9.095  11.822  68.557  0.00  0.00    -0.271 OA
ATOM      6  H19 non d ame     -11.292  11.234  66.246  0.00  0.00     0.163 HD
BRANCH   4   7
ATOM      7  C9  non d ame     -10.380   9.869  68.537  0.00  0.00     0.092 C 
ATOM      8  H11 non d ame     -11.342   9.604  68.100  0.00  0.00     0.088 H 
BRANCH   7   9
ATOM      9  N3  non d ame      -9.421   8.835  68.131  0.00  0.00    -0.346 N 
ATOM     10  C7  non d ame      -9.873   7.687  67.387  0.00  0.00     0.240 C 
ATOM     11  O3  non d ame     -11.004   7.576  67.106  0.00  0.00    -0.271 OA
ATOM     12  H10 non d ame      -8.442   8.917  68.367  0.00  0.00     0.163 HD
BRANCH  10  13
ATOM     13  C6  non d ame      -8.849   6.589  66.961  0.00  0.00     0.086 C 
ATOM     14  H6  non d ame      -9.297   5.812  66.340  0.00  0.00     0.086 H 
BRANCH  13  15
ATOM     15  N2  non d ame      -7.802   7.205  66.163  0.00  0.00    -0.343 N 
ATOM     16  C5  non d ame      -7.298   6.514  64.974  0.00  0.00     0.273 C 
ATOM     17  O2  non d ame      -7.739   5.461  64.670  0.00  0.00    -0.266 OA
ATOM     18  H5  non d ame      -7.428   8.105  66.432  0.00  0.00     0.163 HD
BRANCH  16  19
ATOM     19  C4  non d ame      -6.192   7.155  64.122  0.00  0.00     0.154 A 
ATOM     20  C1  non d ame      -5.690   8.492  64.220  0.00  0.00    -0.017 A 
ATOM     21  C2  non d ame      -4.692   8.579  63.224  0.00  0.00     0.077 A 
ATOM     22  H1  non d ame      -6.001   9.278  64.908  0.00  0.00     0.091 H 
ATOM     23  O1  non d ame      -4.634   7.423  62.631  0.00  0.00    -0.218 OA
ATOM     24  N1  non d ame      -5.500   6.575  63.138  0.00  0.00    -0.123 NA
BRANCH  21  25
ATOM     25  C3  non d ame      -3.840   9.801  62.906  0.00  0.00    -0.029 C 
ATOM     26  H2  non d ame      -4.482  10.611  62.560  0.00  0.00     0.036 H 
ATOM     27  H3  non d ame      -3.308  10.117  63.803  0.00  0.00     0.036 H 
ATOM     28  H4  non d ame      -3.120   9.549  62.126  0.00  0.00     0.036 H 
ENDBRANCH  21  25
ENDBRANCH  16  19
ENDBRANCH  13  15
BRANCH  13  29
ATOM     29  C8  non d ame      -8.254   5.949  68.188  0.00  0.00    -0.049 C 
ATOM     30  H7  non d ame      -8.006   6.722  68.917  0.00  0.00     0.030 H 
ATOM     31  H8  non d ame      -8.973   5.256  68.624  0.00  0.00     0.030 H 
ATOM     32  H9  non d ame      -7.348   5.407  67.913  0.00  0.00     0.030 H 
ENDBRANCH  13  29
ENDBRANCH  10  13
ENDBRANCH   7   9
BRANCH   7  33
ATOM     33  C11 non d ame     -10.441   9.935  70.091  0.00  0.00    -0.033 C 
ATOM     34  H12 non d ame     -10.221  10.960  70.386  0.00  0.00     0.042 H 
BRANCH  33  35
ATOM     35  C12 non d ame     -11.869   9.590  70.619  0.00  0.00    -0.071 C 
ATOM     36  H13 non d ame     -12.096  10.212  71.485  0.00  0.00     0.028 H 
ATOM     37  H14 non d ame     -12.601   9.778  69.834  0.00  0.00     0.028 H 
ATOM     38  H15 non d ame     -11.904   8.540  70.907  0.00  0.00     0.028 H 
ENDBRANCH  33  35
BRANCH  33  39
ATOM     39  C13 non d ame      -9.361   9.005  70.733  0.00  0.00    -0.071 C 
ATOM     40  H16 non d ame      -8.379   9.259  70.335  0.00  0.00     0.028 H 
ATOM     41  H17 non d ame      -9.361   9.141  71.815  0.00  0.00     0.028 H 
ATOM     42  H18 non d ame      -9.590   7.966  70.498  0.00  0.00     0.028 H 
ENDBRANCH  33  39
ENDBRANCH   7  33
ENDBRANCH   4   7
ENDBRANCH   1   3
BRANCH   1  43
ATOM     43  C15 non d ame     -10.930  14.154  66.969  0.00  0.00     0.240 C 
ATOM     44  O5  non d ame     -12.052  14.409  66.672  0.00  0.00    -0.271 OA
ATOM     45  N6  non d ame     -10.268  14.900  68.077  0.00  0.00    -0.355 N 
ATOM     46  H46 non d ame      -9.317  14.689  68.340  0.00  0.00     0.162 HD
BRANCH  45  47
ATOM     47  C20 non d ame     -11.011  15.960  68.792  0.00  0.00     0.013 C 
ATOM     48  H30 non d ame     -12.024  15.990  68.390  0.00  0.00     0.072 H 
BRANCH  47  49
ATOM     49  C21 non d ame     -10.327  17.289  68.569  0.00  0.00    -0.038 C 
ATOM     50  H31 non d ame     -10.830  17.994  69.230  0.00  0.00     0.036 H 
ATOM     51  H32 non d ame      -9.260  17.096  68.689  0.00  0.00     0.036 H 
BRANCH  49  52
ATOM     52  C22 non d ame     -10.515  17.826  67.133  0.00  0.00     0.018 C 
ATOM     53  H33 non d ame      -9.814  17.265  66.514  0.00  0.00     0.048 H 
ATOM     54  H34 non d ame     -11.584  17.767  66.934  0.00  0.00     0.048 H 
BRANCH  52  55
ATOM     55  C23 non d ame     -10.129  19.322  66.968  0.00  0.00     0.259 C 
ATOM     56  O7  non d ame     -10.599  19.973  66.091  0.00  0.00    -0.265 OA
BRANCH  55  57
ATOM     57  O8  non d ame      -9.195  19.904  67.868  0.00  0.00    -0.317 OA
BRANCH  57  58
ATOM     58  C29 non d ame      -7.900  20.126  67.301  0.00  0.00     0.052 C 
ATOM     59  H47 non d ame      -8.057  20.189  66.225  0.00  0.00     0.082 H 
ATOM     60  H48 non d ame      -7.483  20.975  67.841  0.00  0.00     0.082 H 
BRANCH  58  61
ATOM     61  C35 non d ame      -7.027  18.878  67.599  0.00  0.00    -0.034 A 
ATOM     62  C30 non d ame      -6.394  18.205  66.559  0.00  0.00    -0.075 A 
ATOM     63  C31 non d ame      -5.610  17.084  66.827  0.00  0.00    -0.082 A 
ATOM     64  H49 non d ame      -6.511  18.557  65.534  0.00  0.00     0.084 H 
ATOM     65  C32 non d ame      -5.463  16.634  68.142  0.00  0.00    -0.083 A 
ATOM     66  H50 non d ame      -5.112  16.562  66.010  0.00  0.00     0.083 H 
ATOM     67  C33 non d ame      -6.100  17.306  69.177  0.00  0.00    -0.082 A 
ATOM     68  H51 non d ame      -4.851  15.759  68.360  0.00  0.00     0.083 H 
ATOM     69  C34 non d ame      -6.883  18.428  68.913  0.00  0.00    -0.075 A 
ATOM     70  H52 non d ame      -5.985  16.951  70.201  0.00  0.00     0.083 H 
ATOM     71  H53 non d ame      -7.379  18.952  69.731  0.00  0.00     0.084 H 
ENDBRANCH  58  61
ENDBRANCH  57  58
ENDBRANCH  55  57
ENDBRANCH  52  55
ENDBRANCH  49  52
ENDBRANCH  47  49
BRANCH  47  72
ATOM     72  C24 non d ame     -11.043  15.647  70.287  0.00  0.00    -0.039 C 
ATOM     73  H35 non d ame     -10.465  14.730  70.404  0.00  0.00     0.036 H 
ATOM     74  H36 non d ame     -10.717  16.562  70.782  0.00  0.00     0.036 H 
BRANCH  72  75
ATOM     75  C25 non d ame     -12.530  15.337  70.797  0.00  0.00    -0.001 C 
ATOM     76  C26 non d ame     -12.752  15.977  72.296  0.00  0.00    -0.035 C 
ATOM     77  C27 non d ame     -13.244  15.014  73.112  0.00  0.00     0.085 C 
ATOM     78  H38 non d ame     -11.790  16.222  72.744  0.00  0.00     0.036 H 
ATOM     79  H39 non d ame     -13.547  16.721  72.271  0.00  0.00     0.036 H 
ATOM     80  N5  non d ame     -13.070  13.696  72.395  0.00  0.00    -0.049 N 
ATOM     81  H40 non d ame     -12.605  15.025  73.995  0.00  0.00     0.075 H 
ATOM     82  H41 non d ame     -14.308  15.229  73.206  0.00  0.00     0.075 H 
ATOM     83  C28 non d ame     -12.750  14.066  70.857  0.00  0.00     0.193 C 
ATOM     84  H42 non d ame     -12.255  13.257  72.797  0.00  0.00     0.280 HD
ATOM     85  H43 non d ame     -13.966  13.230  72.432  0.00  0.00     0.280 HD
ATOM     86  H44 non d ame     -13.516  13.961  70.089  0.00  0.00     0.129 H 
ATOM     87  H37 non d ame     -13.281  15.570  70.042  0.00  0.00     0.046 H 
BRANCH  83  88
ATOM     88  O6  non d ame     -11.634  13.305  70.388  0.00  0.00    -0.369 OA
ATOM     89  H45 non d ame     -11.261  13.729  69.612  0.00  0.00     0.212 HD
ENDBRANCH  83  88
ENDBRANCH  72  75
ENDBRANCH  47  72
ENDBRANCH  45  47
ENDBRANCH   1  43
BRANCH   1  90
ATOM     90  C16 non d ame     -10.510  13.094  64.728  0.00  0.00    -0.035 C 
ATOM     91  H21 non d ame     -11.332  13.809  64.652  0.00  0.00     0.037 H 
ATOM     92  H22 non d ame      -9.568  13.293  64.218  0.00  0.00     0.037 H 
BRANCH  90  93
ATOM     93  C17 non d ame     -11.046  11.744  64.156  0.00  0.00    -0.059 C 
ATOM     94  H23 non d ame     -11.229  11.077  64.998  0.00  0.00     0.038 H 
BRANCH  93  95
ATOM     95  C18 non d ame     -12.395  11.922  63.388  0.00  0.00    -0.073 C 
ATOM     96  H24 non d ame     -12.198  12.338  62.400  0.00  0.00     0.028 H 
ATOM     97  H25 non d ame     -12.885  10.954  63.284  0.00  0.00     0.028 H 
ATOM     98  H26 non d ame     -13.043  12.599  63.945  0.00  0.00     0.028 H 
ENDBRANCH  93  95
BRANCH  93  99
ATOM     99  C19 non d ame      -9.998  11.072  63.265  0.00  0.00    -0.073 C 
ATOM    100  H27 non d ame     -10.425  10.175  62.814  0.00  0.00     0.028 H 
ATOM    101  H28 non d ame      -9.692  11.764  62.480  0.00  0.00     0.028 H 
ATOM    102  H29 non d ame      -9.131  10.799  63.866  0.00  0.00     0.028 H 
ENDBRANCH  93  99
ENDBRANCH  90  93
ENDBRANCH   1  90
TORSDOF 26
ENDMDL
MODEL 5
REMARK VINA RESULT:      -6.8      2.926      7.923
REMARK  26 active torsions:
REMARK  status: ('A' for Active; 'I' for Inactive)
REMARK    1  A    between atoms: C2_2  and  C3_3 
REMARK    2  A    between atoms: C4_6  and  C5_7 
REMARK       I    between atoms: C5_7  and  N2_9 
REMARK    3  A    between atoms: N2_9  and  C6_10 
REMARK    4  A    between atoms: C6_10  and  C7_11 
REMARK    5  A    between atoms: C6_10  and  C8_13 
REMARK       I    between atoms: C7_11  and  N3_14 
REMARK    6  A    between atoms: N3_14  and  C9_15 
REMARK    7  A    between atoms: C9_15  and  C10_16 
REMARK    8  A    between atoms: C9_15  and  C11_18 
REMARK       I    between atoms: C10_16  and  N4_21 
REMARK    9  A    between atoms: C11_18  and  C12_19 
REMARK   10  A    between atoms: C11_18  and  C13_20 
REMARK   11  A    between atoms: N4_21  and  C14_22 
REMARK   12  A    between atoms: C14_22  and  C15_23 
REMARK   13  A    between atoms: C14_22  and  C16_25 
REMARK       I    between atoms: C15_23  and  N6_40 
REMARK   14  A    between atoms: C16_25  and  C17_26 
REMARK   15  A    between atoms: C17_26  and  C18_27 
REMARK   16  A    between atoms: C17_26  and  C19_28 
REMARK   17  A    between atoms: C20_29  and  C21_30 
REMARK   18  A    between atoms: C20_29  and  C24_33 
REMARK   19  A    between atoms: C20_29  and  N6_40 
REMARK   20  A    between atoms: C21_30  and  C22_31 
REMARK   21  A    between atoms: C22_31  and  C23_32 
REMARK   22  A    between atoms: C23_32  and  O8_43 
REMARK   23  A    between atoms: C24_33  and  C25_34 
REMARK   24  A    between atoms: C28_38  and  O6_39 
REMARK   25  A    between atoms: C29_42  and  O8_43 
REMARK   26  A    between atoms: C29_42  and  C35_49 
ROOT
ATOM      1  C14 non d ame      -5.471  13.895  67.897  0.00  0.00     0.089 C 
ATOM      2  H20 non d ame      -4.820  14.042  67.034  0.00  0.00     0.087 H 
ENDROOT
BRANCH   1   3
ATOM      3  N4  non d ame      -6.072  15.181  68.216  0.00  0.00    -0.346 N 
ATOM      4  C10 non d ame      -5.655  16.424  67.469  0.00  0.00     0.241 C 
ATOM      5  O4  non d ame      -4.832  16.363  66.616  0.00  0.00    -0.271 OA
ATOM      6  H19 non d ame      -6.769  15.213  68.947  0.00  0.00     0.163 HD
BRANCH   4   7
ATOM      7  C9  non d ame      -6.291  17.746  67.809  0.00  0.00     0.092 C 
ATOM      8  H11 non d ame      -5.998  18.487  67.065  0.00  0.00     0.088 H 
BRANCH   7   9
ATOM      9  N3  non d ame      -7.750  17.619  67.740  0.00  0.00    -0.346 N 
ATOM     10  C7  non d ame      -8.461  18.087  66.577  0.00  0.00     0.240 C 
ATOM     11  O3  non d ame      -7.876  18.570  65.686  0.00  0.00    -0.271 OA
ATOM     12  H10 non d ame      -8.270  17.205  68.502  0.00  0.00     0.163 HD
BRANCH  10  13
ATOM     13  C6  non d ame     -10.014  17.952  66.512  0.00  0.00     0.086 C 
ATOM     14  H6  non d ame     -10.342  17.178  65.818  0.00  0.00     0.086 H 
BRANCH  13  15
ATOM     15  N2  non d ame     -10.509  17.569  67.824  0.00  0.00    -0.343 N 
ATOM     16  C5  non d ame     -11.073  16.232  68.022  0.00  0.00     0.273 C 
ATOM     17  O2  non d ame     -11.127  15.473  67.118  0.00  0.00    -0.266 OA
ATOM     18  H5  non d ame     -10.462  18.226  68.590  0.00  0.00     0.163 HD
BRANCH  16  19
ATOM     19  C4  non d ame     -11.599  15.815  69.404  0.00  0.00     0.154 A 
ATOM     20  C1  non d ame     -12.265  14.594  69.744  0.00  0.00    -0.017 A 
ATOM     21  C2  non d ame     -12.538  14.702  71.125  0.00  0.00     0.077 A 
ATOM     22  H1  non d ame     -12.511  13.759  69.088  0.00  0.00     0.091 H 
ATOM     23  O1  non d ame     -12.077  15.851  71.523  0.00  0.00    -0.218 OA
ATOM     24  N1  non d ame     -11.524  16.519  70.536  0.00  0.00    -0.123 NA
BRANCH  21  25
ATOM     25  C3  non d ame     -13.240  13.662  71.989  0.00  0.00    -0.029 C 
ATOM     26  H2  non d ame     -13.340  12.732  71.429  0.00  0.00     0.036 H 
ATOM     27  H3  non d ame     -12.654  13.483  72.890  0.00  0.00     0.036 H 
ATOM     28  H4  non d ame     -14.230  14.028  72.266  0.00  0.00     0.036 H 
ENDBRANCH  21  25
ENDBRANCH  16  19
ENDBRANCH  13  15
BRANCH  13  29
ATOM     29  C8  non d ame     -10.620  19.268  66.095  0.00  0.00    -0.049 C 
ATOM     30  H7  non d ame     -11.682  19.273  66.341  0.00  0.00     0.030 H 
ATOM     31  H8  non d ame     -10.121  20.081  66.621  0.00  0.00     0.030 H 
ATOM     32  H9  non d ame     -10.496  19.400  65.020  0.00  0.00     0.030 H 
ENDBRANCH  13  29
ENDBRANCH  10  13
ENDBRANCH   7   9
BRANCH   7  33
ATOM     33  C11 non d ame      -5.876  18.166  69.249  0.00  0.00    -0.033 C 
ATOM     34  H12 non d ame      -6.282  17.426  69.937  0.00  0.00     0.042 H 
BRANCH  33  35
ATOM     35  C12 non d ame      -4.324  18.162  69.418  0.00  0.00    -0.071 C 
ATOM     36  H13 non d ame      -3.916  17.240  69.004  0.00  0.00     0.028 H 
ATOM     37  H14 non d ame      -3.900  19.016  68.891  0.00  0.00     0.028 H 
ATOM     38  H15 non d ame      -4.075  18.227  70.476  0.00  0.00     0.028 H 
ENDBRANCH  33  35
BRANCH  33  39
ATOM     39  C13 non d ame      -6.482  19.557  69.622  0.00  0.00    -0.071 C 
ATOM     40  H16 non d ame      -6.421  20.222  68.762  0.00  0.00     0.028 H 
ATOM     41  H17 non d ame      -7.526  19.433  69.913  0.00  0.00     0.028 H 
ATOM     42  H18 non d ame      -5.923  19.986  70.454  0.00  0.00     0.028 H 
ENDBRANCH  33  39
ENDBRANCH   7  33
ENDBRANCH   4   7
ENDBRANCH   1   3
BRANCH   1  43
ATOM     43  C15 non d ame      -6.609  12.876  67.609  0.00  0.00     0.240 C 
ATOM     44  O5  non d ame      -6.428  11.717  67.799  0.00  0.00    -0.271 OA
ATOM     45  N6  non d ame      -7.931  13.346  67.102  0.00  0.00    -0.355 N 
ATOM     46  H46 non d ame      -8.097  14.328  66.940  0.00  0.00     0.162 HD
BRANCH  45  47
ATOM     47  C20 non d ame      -9.003  12.364  66.833  0.00  0.00     0.013 C 
ATOM     48  H30 non d ame      -8.535  11.399  66.639  0.00  0.00     0.072 H 
BRANCH  47  49
ATOM     49  C21 non d ame      -9.795  12.806  65.624  0.00  0.00    -0.038 C 
ATOM     50  H31 non d ame     -10.238  13.764  65.896  0.00  0.00     0.036 H 
ATOM     51  H32 non d ame      -9.105  12.745  64.781  0.00  0.00     0.036 H 
BRANCH  49  52
ATOM     52  C22 non d ame     -10.969  11.858  65.297  0.00  0.00     0.018 C 
ATOM     53  H33 non d ame     -10.759  10.932  65.833  0.00  0.00     0.048 H 
ATOM     54  H34 non d ame     -11.874  12.422  65.518  0.00  0.00     0.048 H 
BRANCH  52  55
ATOM     55  C23 non d ame     -11.062  11.470  63.795  0.00  0.00     0.259 C 
ATOM     56  O7  non d ame     -12.053  11.688  63.176  0.00  0.00    -0.265 OA
BRANCH  55  57
ATOM     57  O8  non d ame      -9.952  10.838  63.168  0.00  0.00    -0.317 OA
BRANCH  57  58
ATOM     58  C29 non d ame      -9.459   9.696  63.875  0.00  0.00     0.052 C 
ATOM     59  H47 non d ame      -9.667   9.887  64.926  0.00  0.00     0.082 H 
ATOM     60  H48 non d ame      -9.900   8.831  63.380  0.00  0.00     0.082 H 
BRANCH  58  61
ATOM     61  C35 non d ame      -7.920   9.640  63.680  0.00  0.00    -0.034 A 
ATOM     62  C30 non d ame      -7.075  10.183  64.642  0.00  0.00    -0.075 A 
ATOM     63  C31 non d ame      -5.693  10.132  64.467  0.00  0.00    -0.082 A 
ATOM     64  H49 non d ame      -7.496  10.647  65.535  0.00  0.00     0.084 H 
ATOM     65  C32 non d ame      -5.157   9.539  63.321  0.00  0.00    -0.083 A 
ATOM     66  H50 non d ame      -5.034  10.556  65.225  0.00  0.00     0.083 H 
ATOM     67  C33 non d ame      -6.004   9.002  62.360  0.00  0.00    -0.082 A 
ATOM     68  H51 non d ame      -4.077   9.495  63.176  0.00  0.00     0.083 H 
ATOM     69  C34 non d ame      -7.386   9.048  62.534  0.00  0.00    -0.075 A 
ATOM     70  H52 non d ame      -5.581   8.542  61.467  0.00  0.00     0.083 H 
ATOM     71  H53 non d ame      -8.044   8.623  61.775  0.00  0.00     0.084 H 
ENDBRANCH  58  61
ENDBRANCH  57  58
ENDBRANCH  55  57
ENDBRANCH  52  55
ENDBRANCH  49  52
ENDBRANCH  47  49
BRANCH  47  72
ATOM     72  C24 non d ame      -9.931  12.270  68.043  0.00  0.00    -0.039 C 
ATOM     73  H35 non d ame      -9.518  12.960  68.779  0.00  0.00     0.036 H 
ATOM     74  H36 non d ame     -10.936  12.429  67.652  0.00  0.00     0.036 H 
BRANCH  72  75
ATOM     75  C25 non d ame      -9.904  10.808  68.699  0.00  0.00    -0.001 C 
ATOM     76  C26 non d ame      -9.049   9.781  67.741  0.00  0.00    -0.035 C 
ATOM     77  C27 non d ame      -9.797   8.675  67.512  0.00  0.00     0.085 C 
ATOM     78  H38 non d ame      -8.922  10.213  66.749  0.00  0.00     0.036 H 
ATOM     79  H39 non d ame      -8.185   9.397  68.283  0.00  0.00     0.036 H 
ATOM     80  N5  non d ame     -11.205   8.995  67.953  0.00  0.00    -0.049 N 
ATOM     81  H40 non d ame      -9.786   8.534  66.431  0.00  0.00     0.075 H 
ATOM     82  H41 non d ame      -9.387   7.906  68.166  0.00  0.00     0.075 H 
ATOM     83  C28 non d ame     -11.098  10.338  68.843  0.00  0.00     0.193 C 
ATOM     84  H42 non d ame     -11.727   9.205  67.115  0.00  0.00     0.280 HD
ATOM     85  H43 non d ame     -11.497   8.236  68.552  0.00  0.00     0.280 HD
ATOM     86  H44 non d ame     -11.163  10.290  69.929  0.00  0.00     0.129 H 
ATOM     87  H37 non d ame      -9.640  10.836  69.757  0.00  0.00     0.046 H 
BRANCH  83  88
ATOM     88  O6  non d ame     -12.098  11.276  68.442  0.00  0.00    -0.369 OA
ATOM     89  H45 non d ame     -11.897  11.601  67.561  0.00  0.00     0.212 HD
ENDBRANCH  83  88
ENDBRANCH  72  75
ENDBRANCH  47  72
ENDBRANCH  45  47
ENDBRANCH   1  43
BRANCH   1  90
ATOM     90  C16 non d ame      -4.650  13.423  69.085  0.00  0.00    -0.035 C 
ATOM     91  H21 non d ame      -5.091  12.469  69.380  0.00  0.00     0.037 H 
ATOM     92  H22 non d ame      -3.612  13.463  68.754  0.00  0.00     0.037 H 
BRANCH  90  93
ATOM     93  C17 non d ame      -4.753  14.359  70.331  0.00  0.00    -0.059 C 
ATOM     94  H23 non d ame      -5.289  15.257  70.025  0.00  0.00     0.038 H 
BRANCH  93  95
ATOM     95  C18 non d ame      -5.554  13.701  71.499  0.00  0.00    -0.073 C 
ATOM     96  H24 non d ame      -5.021  12.818  71.853  0.00  0.00     0.028 H 
ATOM     97  H25 non d ame      -5.657  14.415  72.316  0.00  0.00     0.028 H 
ATOM     98  H26 non d ame      -6.543  13.410  71.143  0.00  0.00     0.028 H 
ENDBRANCH  93  95
BRANCH  93  99
ATOM     99  C19 non d ame      -3.363  14.798  70.803  0.00  0.00    -0.073 C 
ATOM    100  H27 non d ame      -2.866  15.349  70.004  0.00  0.00     0.028 H 
ATOM    101  H28 non d ame      -3.464  15.438  71.679  0.00  0.00     0.028 H 
ATOM    102  H29 non d ame      -2.773  13.919  71.062  0.00  0.00     0.028 H 
ENDBRANCH  93  99
ENDBRANCH  90  93
ENDBRANCH   1  90
TORSDOF 26
ENDMDL
MODEL 6
REMARK VINA RESULT:      -6.8      2.409      6.599
REMARK  26 active torsions:
REMARK  status: ('A' for Active; 'I' for Inactive)
REMARK    1  A    between atoms: C2_2  and  C3_3 
REMARK    2  A    between atoms: C4_6  and  C5_7 
REMARK       I    between atoms: C5_7  and  N2_9 
REMARK    3  A    between atoms: N2_9  and  C6_10 
REMARK    4  A    between atoms: C6_10  and  C7_11 
REMARK    5  A    between atoms: C6_10  and  C8_13 
REMARK       I    between atoms: C7_11  and  N3_14 
REMARK    6  A    between atoms: N3_14  and  C9_15 
REMARK    7  A    between atoms: C9_15  and  C10_16 
REMARK    8  A    between atoms: C9_15  and  C11_18 
REMARK       I    between atoms: C10_16  and  N4_21 
REMARK    9  A    between atoms: C11_18  and  C12_19 
REMARK   10  A    between atoms: C11_18  and  C13_20 
REMARK   11  A    between atoms: N4_21  and  C14_22 
REMARK   12  A    between atoms: C14_22  and  C15_23 
REMARK   13  A    between atoms: C14_22  and  C16_25 
REMARK       I    between atoms: C15_23  and  N6_40 
REMARK   14  A    between atoms: C16_25  and  C17_26 
REMARK   15  A    between atoms: C17_26  and  C18_27 
REMARK   16  A    between atoms: C17_26  and  C19_28 
REMARK   17  A    between atoms: C20_29  and  C21_30 
REMARK   18  A    between atoms: C20_29  and  C24_33 
REMARK   19  A    between atoms: C20_29  and  N6_40 
REMARK   20  A    between atoms: C21_30  and  C22_31 
REMARK   21  A    between atoms: C22_31  and  C23_32 
REMARK   22  A    between atoms: C23_32  and  O8_43 
REMARK   23  A    between atoms: C24_33  and  C25_34 
REMARK   24  A    between atoms: C28_38  and  O6_39 
REMARK   25  A    between atoms: C29_42  and  O8_43 
REMARK   26  A    between atoms: C29_42  and  C35_49 
ROOT
ATOM      1  C14 non d ame     -10.846   9.379  68.820  0.00  0.00     0.089 C 
ATOM      2  H20 non d ame     -11.811   8.928  68.586  0.00  0.00     0.087 H 
ENDROOT
BRANCH   1   3
ATOM      3  N4  non d ame      -9.844   8.324  68.764  0.00  0.00    -0.346 N 
ATOM      4  C10 non d ame      -9.927   7.251  67.706  0.00  0.00     0.241 C 
ATOM      5  O4  non d ame     -10.811   7.256  66.914  0.00  0.00    -0.271 OA
ATOM      6  H19 non d ame      -9.102   8.336  69.448  0.00  0.00     0.163 HD
BRANCH   4   7
ATOM      7  C9  non d ame      -8.880   6.170  67.659  0.00  0.00     0.092 C 
ATOM      8  H11 non d ame      -9.146   5.445  66.890  0.00  0.00     0.088 H 
BRANCH   7   9
ATOM      9  N3  non d ame      -7.590   6.754  67.275  0.00  0.00    -0.346 N 
ATOM     10  C7  non d ame      -7.193   6.775  65.889  0.00  0.00     0.240 C 
ATOM     11  O3  non d ame      -7.897   6.326  65.069  0.00  0.00    -0.271 OA
ATOM     12  H10 non d ame      -6.972   7.146  67.971  0.00  0.00     0.163 HD
BRANCH  10  13
ATOM     13  C6  non d ame      -5.819   7.396  65.487  0.00  0.00     0.086 C 
ATOM     14  H6  non d ame      -5.764   7.650  64.429  0.00  0.00     0.086 H 
BRANCH  13  15
ATOM     15  N2  non d ame      -5.628   8.635  66.223  0.00  0.00    -0.343 N 
ATOM     16  C5  non d ame      -5.322   9.868  65.494  0.00  0.00     0.273 C 
ATOM     17  O2  non d ame      -5.229   9.851  64.316  0.00  0.00    -0.266 OA
ATOM     18  H5  non d ame      -5.708   8.639  67.230  0.00  0.00     0.163 HD
BRANCH  16  19
ATOM     19  C4  non d ame      -5.120  11.185  66.259  0.00  0.00     0.154 A 
ATOM     20  C1  non d ame      -6.017  11.787  67.198  0.00  0.00    -0.017 A 
ATOM     21  C2  non d ame      -5.369  12.972  67.611  0.00  0.00     0.077 A 
ATOM     22  H1  non d ame      -6.989  11.420  67.528  0.00  0.00     0.091 H 
ATOM     23  O1  non d ame      -4.233  13.033  66.980  0.00  0.00    -0.218 OA
ATOM     24  N1  non d ame      -4.065  12.001  66.185  0.00  0.00    -0.123 NA
BRANCH  21  25
ATOM     25  C3  non d ame      -5.902  13.989  68.612  0.00  0.00    -0.029 C 
ATOM     26  H2  non d ame      -6.960  14.169  68.419  0.00  0.00     0.036 H 
ATOM     27  H3  non d ame      -5.779  13.602  69.623  0.00  0.00     0.036 H 
ATOM     28  H4  non d ame      -5.350  14.924  68.511  0.00  0.00     0.036 H 
ENDBRANCH  21  25
ENDBRANCH  16  19
ENDBRANCH  13  15
BRANCH  13  29
ATOM     29  C8  non d ame      -4.712   6.427  65.813  0.00  0.00    -0.049 C 
ATOM     30  H7  non d ame      -4.470   5.839  64.927  0.00  0.00     0.030 H 
ATOM     31  H8  non d ame      -3.829   6.977  66.136  0.00  0.00     0.030 H 
ATOM     32  H9  non d ame      -5.037   5.760  66.612  0.00  0.00     0.030 H 
ENDBRANCH  13  29
ENDBRANCH  10  13
ENDBRANCH   7   9
BRANCH   7  33
ATOM     33  C11 non d ame      -8.750   5.512  69.064  0.00  0.00    -0.033 C 
ATOM     34  H12 non d ame      -8.512   6.301  69.776  0.00  0.00     0.042 H 
BRANCH  33  35
ATOM     35  C12 non d ame     -10.096   4.863  69.514  0.00  0.00    -0.071 C 
ATOM     36  H13 non d ame     -10.133   3.829  69.172  0.00  0.00     0.028 H 
ATOM     37  H14 non d ame     -10.166   4.889  70.601  0.00  0.00     0.028 H 
ATOM     38  H15 non d ame     -10.928   5.418  69.082  0.00  0.00     0.028 H 
ENDBRANCH  33  35
BRANCH  33  39
ATOM     39  C13 non d ame      -7.585   4.471  69.088  0.00  0.00    -0.071 C 
ATOM     40  H16 non d ame      -7.324   4.242  70.121  0.00  0.00     0.028 H 
ATOM     41  H17 non d ame      -7.902   3.558  68.582  0.00  0.00     0.028 H 
ATOM     42  H18 non d ame      -6.716   4.885  68.577  0.00  0.00     0.028 H 
ENDBRANCH  33  39
ENDBRANCH   7  33
ENDBRANCH   4   7
ENDBRANCH   1   3
BRANCH   1  43
ATOM     43  C15 non d ame     -10.453  10.488  67.804  0.00  0.00     0.240 C 
ATOM     44  O5  non d ame      -9.567  11.238  68.059  0.00  0.00    -0.271 OA
ATOM     45  N6  non d ame     -11.176  10.610  66.505  0.00  0.00    -0.355 N 
ATOM     46  H46 non d ame     -11.928   9.977  66.276  0.00  0.00     0.162 HD
BRANCH  45  47
ATOM     47  C20 non d ame     -10.791  11.670  65.549  0.00  0.00     0.013 C 
ATOM     48  H30 non d ame      -9.895  12.159  65.932  0.00  0.00     0.072 H 
BRANCH  47  49
ATOM     49  C21 non d ame     -11.916  12.672  65.431  0.00  0.00    -0.038 C 
ATOM     50  H31 non d ame     -12.739  12.137  64.958  0.00  0.00     0.036 H 
ATOM     51  H32 non d ame     -12.042  13.092  66.430  0.00  0.00     0.036 H 
BRANCH  49  52
ATOM     52  C22 non d ame     -11.570  13.855  64.500  0.00  0.00     0.018 C 
ATOM     53  H33 non d ame     -10.830  13.471  63.798  0.00  0.00     0.048 H 
ATOM     54  H34 non d ame     -12.525  14.231  64.134  0.00  0.00     0.048 H 
BRANCH  52  55
ATOM     55  C23 non d ame     -10.890  15.048  65.229  0.00  0.00     0.259 C 
ATOM     56  O7  non d ame     -10.753  16.091  64.678  0.00  0.00    -0.265 OA
BRANCH  55  57
ATOM     57  O8  non d ame     -10.419  14.874  66.559  0.00  0.00    -0.317 OA
BRANCH  57  58
ATOM     58  C29 non d ame     -10.744  15.957  67.437  0.00  0.00     0.052 C 
ATOM     59  H47 non d ame      -9.804  16.469  67.634  0.00  0.00     0.082 H 
ATOM     60  H48 non d ame     -11.565  16.489  66.957  0.00  0.00     0.082 H 
BRANCH  58  61
ATOM     61  C35 non d ame     -11.264  15.353  68.769  0.00  0.00    -0.034 A 
ATOM     62  C30 non d ame     -11.327  16.140  69.914  0.00  0.00    -0.075 A 
ATOM     63  C31 non d ame     -11.795  15.597  71.110  0.00  0.00    -0.082 A 
ATOM     64  H49 non d ame     -11.011  17.183  69.874  0.00  0.00     0.084 H 
ATOM     65  C32 non d ame     -12.196  14.260  71.159  0.00  0.00    -0.083 A 
ATOM     66  H50 non d ame     -11.846  16.218  72.005  0.00  0.00     0.083 H 
ATOM     67  C33 non d ame     -12.128  13.476  70.015  0.00  0.00    -0.082 A 
ATOM     68  H51 non d ame     -12.564  13.828  72.090  0.00  0.00     0.083 H 
ATOM     69  C34 non d ame     -11.664  14.016  68.817  0.00  0.00    -0.075 A 
ATOM     70  H52 non d ame     -12.441  12.432  70.057  0.00  0.00     0.083 H 
ATOM     71  H53 non d ame     -11.615  13.394  67.922  0.00  0.00     0.084 H 
ENDBRANCH  58  61
ENDBRANCH  57  58
ENDBRANCH  55  57
ENDBRANCH  52  55
ENDBRANCH  49  52
ENDBRANCH  47  49
BRANCH  47  72
ATOM     72  C24 non d ame     -10.512  11.052  64.180  0.00  0.00    -0.039 C 
ATOM     73  H35 non d ame     -10.984  10.070  64.204  0.00  0.00     0.036 H 
ATOM     74  H36 non d ame     -10.842  11.796  63.454  0.00  0.00     0.036 H 
BRANCH  72  75
ATOM     75  C25 non d ame      -8.945  10.820  63.941  0.00  0.00    -0.001 C 
ATOM     76  C26 non d ame      -8.576  11.083  62.360  0.00  0.00    -0.035 C 
ATOM     77  C27 non d ame      -7.882  10.017  61.892  0.00  0.00     0.085 C 
ATOM     78  H38 non d ame      -9.483  11.080  61.758  0.00  0.00     0.036 H 
ATOM     79  H39 non d ame      -7.867  11.906  62.274  0.00  0.00     0.036 H 
ATOM     80  N5  non d ame      -8.028   8.913  62.911  0.00  0.00    -0.049 N 
ATOM     81  H40 non d ame      -8.387   9.722  60.972  0.00  0.00     0.075 H 
ATOM     82  H41 non d ame      -6.841  10.338  61.863  0.00  0.00     0.075 H 
ATOM     83  C28 non d ame      -8.598   9.615  64.248  0.00  0.00     0.193 C 
ATOM     84  H42 non d ame      -8.732   8.284  62.553  0.00  0.00     0.280 HD
ATOM     85  H43 non d ame      -7.096   8.572  63.100  0.00  0.00     0.280 HD
ATOM     86  H44 non d ame      -7.942   9.807  65.097  0.00  0.00     0.129 H 
ATOM     87  H37 non d ame      -8.334  11.331  64.685  0.00  0.00     0.046 H 
BRANCH  83  88
ATOM     88  O6  non d ame      -9.690   8.858  64.776  0.00  0.00    -0.369 OA
ATOM     89  H45 non d ame      -9.380   8.312  65.501  0.00  0.00     0.212 HD
ENDBRANCH  83  88
ENDBRANCH  72  75
ENDBRANCH  47  72
ENDBRANCH  45  47
ENDBRANCH   1  43
BRANCH   1  90
ATOM     90  C16 non d ame     -10.876   9.959  70.224  0.00  0.00    -0.035 C 
ATOM     91  H21 non d ame      -9.895   9.740  70.649  0.00  0.00     0.037 H 
ATOM     92  H22 non d ame     -11.198  10.993  70.103  0.00  0.00     0.037 H 
BRANCH  90  93
ATOM     93  C17 non d ame     -11.923   9.278  71.162  0.00  0.00    -0.059 C 
ATOM     94  H23 non d ame     -12.515   8.593  70.554  0.00  0.00     0.038 H 
BRANCH  93  95
ATOM     95  C18 non d ame     -11.245   8.445  72.296  0.00  0.00    -0.073 C 
ATOM     96  H24 non d ame     -10.694   9.113  72.958  0.00  0.00     0.028 H 
ATOM     97  H25 non d ame     -12.011   7.918  72.867  0.00  0.00     0.028 H 
ATOM     98  H26 non d ame     -10.559   7.721  71.855  0.00  0.00     0.028 H 
ENDBRANCH  93  95
BRANCH  93  99
ATOM     99  C19 non d ame     -12.888  10.313  71.749  0.00  0.00    -0.073 C 
ATOM    100  H27 non d ame     -12.326  11.039  72.338  0.00  0.00     0.028 H 
ATOM    101  H28 non d ame     -13.407  10.825  70.938  0.00  0.00     0.028 H 
ATOM    102  H29 non d ame     -13.616   9.811  72.386  0.00  0.00     0.028 H 
ENDBRANCH  93  99
ENDBRANCH  90  93
ENDBRANCH   1  90
TORSDOF 26
ENDMDL
MODEL 7
REMARK VINA RESULT:      -6.8      2.450      6.258
REMARK  26 active torsions:
REMARK  status: ('A' for Active; 'I' for Inactive)
REMARK    1  A    between atoms: C2_2  and  C3_3 
REMARK    2  A    between atoms: C4_6  and  C5_7 
REMARK       I    between atoms: C5_7  and  N2_9 
REMARK    3  A    between atoms: N2_9  and  C6_10 
REMARK    4  A    between atoms: C6_10  and  C7_11 
REMARK    5  A    between atoms: C6_10  and  C8_13 
REMARK       I    between atoms: C7_11  and  N3_14 
REMARK    6  A    between atoms: N3_14  and  C9_15 
REMARK    7  A    between atoms: C9_15  and  C10_16 
REMARK    8  A    between atoms: C9_15  and  C11_18 
REMARK       I    between atoms: C10_16  and  N4_21 
REMARK    9  A    between atoms: C11_18  and  C12_19 
REMARK   10  A    between atoms: C11_18  and  C13_20 
REMARK   11  A    between atoms: N4_21  and  C14_22 
REMARK   12  A    between atoms: C14_22  and  C15_23 
REMARK   13  A    between atoms: C14_22  and  C16_25 
REMARK       I    between atoms: C15_23  and  N6_40 
REMARK   14  A    between atoms: C16_25  and  C17_26 
REMARK   15  A    between atoms: C17_26  and  C18_27 
REMARK   16  A    between atoms: C17_26  and  C19_28 
REMARK   17  A    between atoms: C20_29  and  C21_30 
REMARK   18  A    between atoms: C20_29  and  C24_33 
REMARK   19  A    between atoms: C20_29  and  N6_40 
REMARK   20  A    between atoms: C21_30  and  C22_31 
REMARK   21  A    between atoms: C22_31  and  C23_32 
REMARK   22  A    between atoms: C23_32  and  O8_43 
REMARK   23  A    between atoms: C24_33  and  C25_34 
REMARK   24  A    between atoms: C28_38  and  O6_39 
REMARK   25  A    between atoms: C29_42  and  O8_43 
REMARK   26  A    between atoms: C29_42  and  C35_49 
ROOT
ATOM      1  C14 non d ame      -8.134   8.094  62.675  0.00  0.00     0.089 C 
ATOM      2  H20 non d ame      -8.711   7.928  61.765  0.00  0.00     0.087 H 
ENDROOT
BRANCH   1   3
ATOM      3  N4  non d ame      -8.991   8.801  63.614  0.00  0.00    -0.346 N 
ATOM      4  C10 non d ame      -9.452  10.207  63.316  0.00  0.00     0.241 C 
ATOM      5  O4  non d ame      -9.117  10.748  62.314  0.00  0.00    -0.271 OA
ATOM      6  H19 non d ame      -9.263   8.325  64.463  0.00  0.00     0.163 HD
BRANCH   4   7
ATOM      7  C9  non d ame     -10.343  10.922  64.297  0.00  0.00     0.092 C 
ATOM      8  H11 non d ame     -11.040  10.208  64.736  0.00  0.00     0.088 H 
BRANCH   7   9
ATOM      9  N3  non d ame      -9.531  11.462  65.392  0.00  0.00    -0.346 N 
ATOM     10  C7  non d ame      -9.926  11.240  66.760  0.00  0.00     0.240 C 
ATOM     11  O3  non d ame     -10.895  10.630  67.000  0.00  0.00    -0.271 OA
ATOM     12  H10 non d ame      -8.692  11.992  65.201  0.00  0.00     0.163 HD
BRANCH  10  13
ATOM     13  C6  non d ame      -9.059  11.821  67.921  0.00  0.00     0.086 C 
ATOM     14  H6  non d ame      -8.319  12.543  67.574  0.00  0.00     0.086 H 
BRANCH  13  15
ATOM     15  N2  non d ame      -9.926  12.527  68.849  0.00  0.00    -0.343 N 
ATOM     16  C5  non d ame     -10.307  13.913  68.569  0.00  0.00     0.273 C 
ATOM     17  O2  non d ame      -9.908  14.451  67.596  0.00  0.00    -0.266 OA
ATOM     18  H5  non d ame     -10.260  12.060  69.680  0.00  0.00     0.163 HD
BRANCH  16  19
ATOM     19  C4  non d ame     -11.224  14.671  69.541  0.00  0.00     0.154 A 
ATOM     20  C1  non d ame     -12.369  14.156  70.230  0.00  0.00    -0.017 A 
ATOM     21  C2  non d ame     -12.853  15.243  70.992  0.00  0.00     0.077 A 
ATOM     22  H1  non d ame     -12.783  13.149  70.185  0.00  0.00     0.091 H 
ATOM     23  O1  non d ame     -12.071  16.256  70.762  0.00  0.00    -0.218 OA
ATOM     24  N1  non d ame     -11.113  15.947  69.919  0.00  0.00    -0.123 NA
BRANCH  21  25
ATOM     25  C3  non d ame     -14.066  15.228  71.913  0.00  0.00    -0.029 C 
ATOM     26  H2  non d ame     -14.551  14.253  71.860  0.00  0.00     0.036 H 
ATOM     27  H3  non d ame     -13.747  15.420  72.937  0.00  0.00     0.036 H 
ATOM     28  H4  non d ame     -14.770  16.001  71.600  0.00  0.00     0.036 H 
ENDBRANCH  21  25
ENDBRANCH  16  19
ENDBRANCH  13  15
BRANCH  13  29
ATOM     29  C8  non d ame      -8.348  10.697  68.631  0.00  0.00    -0.049 C 
ATOM     30  H7  non d ame      -9.043   9.873  68.793  0.00  0.00     0.030 H 
ATOM     31  H8  non d ame      -7.512  10.353  68.024  0.00  0.00     0.030 H 
ATOM     32  H9  non d ame      -7.978  11.053  69.593  0.00  0.00     0.030 H 
ENDBRANCH  13  29
ENDBRANCH  10  13
ENDBRANCH   7   9
BRANCH   7  33
ATOM     33  C11 non d ame     -11.078  12.089  63.574  0.00  0.00    -0.033 C 
ATOM     34  H12 non d ame     -10.645  12.184  62.580  0.00  0.00     0.042 H 
BRANCH  33  35
ATOM     35  C12 non d ame     -12.598  11.781  63.398  0.00  0.00    -0.071 C 
ATOM     36  H13 non d ame     -13.042  11.576  64.372  0.00  0.00     0.028 H 
ATOM     37  H14 non d ame     -13.092  12.640  62.947  0.00  0.00     0.028 H 
ATOM     38  H15 non d ame     -12.718  10.911  62.754  0.00  0.00     0.028 H 
ENDBRANCH  33  35
BRANCH  33  39
ATOM     39  C13 non d ame     -10.858  13.440  64.328  0.00  0.00    -0.071 C 
ATOM     40  H16 non d ame     -11.784  13.737  64.819  0.00  0.00     0.028 H 
ATOM     41  H17 non d ame     -10.074  13.315  65.077  0.00  0.00     0.028 H 
ATOM     42  H18 non d ame     -10.561  14.209  63.616  0.00  0.00     0.028 H 
ENDBRANCH  33  39
ENDBRANCH   7  33
ENDBRANCH   4   7
ENDBRANCH   1   3
BRANCH   1  43
ATOM     43  C15 non d ame      -7.675   6.761  63.331  0.00  0.00     0.240 C 
ATOM     44  O5  non d ame      -7.048   5.975  62.698  0.00  0.00    -0.271 OA
ATOM     45  N6  non d ame      -8.009   6.469  64.755  0.00  0.00    -0.355 N 
ATOM     46  H46 non d ame      -8.537   7.131  65.304  0.00  0.00     0.162 HD
BRANCH  45  47
ATOM     47  C20 non d ame      -7.565   5.197  65.365  0.00  0.00     0.013 C 
ATOM     48  H30 non d ame      -7.371   4.488  64.561  0.00  0.00     0.072 H 
BRANCH  47  49
ATOM     49  C21 non d ame      -8.656   4.667  66.268  0.00  0.00    -0.038 C 
ATOM     50  H31 non d ame      -8.797   3.626  65.979  0.00  0.00     0.036 H 
ATOM     51  H32 non d ame      -8.345   4.914  67.283  0.00  0.00     0.036 H 
BRANCH  49  52
ATOM     52  C22 non d ame     -10.013   5.370  66.044  0.00  0.00     0.018 C 
ATOM     53  H33 non d ame      -9.889   5.971  65.142  0.00  0.00     0.048 H 
ATOM     54  H34 non d ame     -10.763   4.581  66.074  0.00  0.00     0.048 H 
BRANCH  52  55
ATOM     55  C23 non d ame     -10.395   6.368  67.173  0.00  0.00     0.259 C 
ATOM     56  O7  non d ame     -11.231   7.192  66.991  0.00  0.00    -0.265 OA
BRANCH  55  57
ATOM     57  O8  non d ame      -9.723   6.295  68.424  0.00  0.00    -0.317 OA
BRANCH  57  58
ATOM     58  C29 non d ame     -10.523   5.762  69.484  0.00  0.00     0.052 C 
ATOM     59  H47 non d ame     -11.365   5.270  68.998  0.00  0.00     0.082 H 
ATOM     60  H48 non d ame      -9.841   5.185  70.107  0.00  0.00     0.082 H 
BRANCH  58  61
ATOM     61  C35 non d ame     -11.064   6.952  70.320  0.00  0.00    -0.034 A 
ATOM     62  C30 non d ame     -10.263   8.065  70.548  0.00  0.00    -0.075 A 
ATOM     63  C31 non d ame     -10.749   9.134  71.300  0.00  0.00    -0.082 A 
ATOM     64  H49 non d ame      -9.253   8.101  70.137  0.00  0.00     0.084 H 
ATOM     65  C32 non d ame     -12.042   9.085  71.828  0.00  0.00    -0.083 A 
ATOM     66  H50 non d ame     -10.119  10.007  71.473  0.00  0.00     0.083 H 
ATOM     67  C33 non d ame     -12.837   7.969  71.601  0.00  0.00    -0.082 A 
ATOM     68  H51 non d ame     -12.430   9.916  72.415  0.00  0.00     0.083 H 
ATOM     69  C34 non d ame     -12.356   6.900  70.848  0.00  0.00    -0.075 A 
ATOM     70  H52 non d ame     -13.845   7.934  72.016  0.00  0.00     0.083 H 
ATOM     71  H53 non d ame     -12.988   6.028  70.674  0.00  0.00     0.084 H 
ENDBRANCH  58  61
ENDBRANCH  57  58
ENDBRANCH  55  57
ENDBRANCH  52  55
ENDBRANCH  49  52
ENDBRANCH  47  49
BRANCH  47  72
ATOM     72  C24 non d ame      -6.296   5.433  66.183  0.00  0.00    -0.039 C 
ATOM     73  H35 non d ame      -6.284   6.502  66.397  0.00  0.00     0.036 H 
ATOM     74  H36 non d ame      -6.341   4.714  67.001  0.00  0.00     0.036 H 
BRANCH  72  75
ATOM     75  C25 non d ame      -4.976   5.106  65.337  0.00  0.00    -0.001 C 
ATOM     76  C26 non d ame      -4.301   3.705  65.873  0.00  0.00    -0.035 C 
ATOM     77  C27 non d ame      -2.989   3.923  66.127  0.00  0.00     0.085 C 
ATOM     78  H38 non d ame      -4.710   3.442  66.848  0.00  0.00     0.036 H 
ATOM     79  H39 non d ame      -4.286   2.967  65.071  0.00  0.00     0.036 H 
ATOM     80  N5  non d ame      -2.781   5.419  66.127  0.00  0.00    -0.049 N 
ATOM     81  H40 non d ame      -2.820   3.541  67.135  0.00  0.00     0.075 H 
ATOM     82  H41 non d ame      -2.453   3.490  65.283  0.00  0.00     0.075 H 
ATOM     83  C28 non d ame      -4.102   6.050  65.447  0.00  0.00     0.193 C 
ATOM     84  H42 non d ame      -2.750   5.703  67.095  0.00  0.00     0.280 HD
ATOM     85  H43 non d ame      -1.993   5.598  65.523  0.00  0.00     0.280 HD
ATOM     86  H44 non d ame      -4.077   6.418  64.422  0.00  0.00     0.129 H 
ATOM     87  H37 non d ame      -5.141   5.198  64.263  0.00  0.00     0.046 H 
BRANCH  83  88
ATOM     88  O6  non d ame      -4.587   7.142  66.232  0.00  0.00    -0.369 OA
ATOM     89  H45 non d ame      -4.973   6.805  67.044  0.00  0.00     0.212 HD
ENDBRANCH  83  88
ENDBRANCH  72  75
ENDBRANCH  47  72
ENDBRANCH  45  47
ENDBRANCH   1  43
BRANCH   1  90
ATOM     90  C16 non d ame      -6.921   8.956  62.365  0.00  0.00    -0.035 C 
ATOM     91  H21 non d ame      -6.470   8.511  61.477  0.00  0.00     0.037 H 
ATOM     92  H22 non d ame      -7.294   9.979  62.331  0.00  0.00     0.037 H 
BRANCH  90  93
ATOM     93  C17 non d ame      -5.826   8.922  63.479  0.00  0.00    -0.059 C 
ATOM     94  H23 non d ame      -6.086   8.124  64.173  0.00  0.00     0.038 H 
BRANCH  93  95
ATOM     95  C18 non d ame      -4.408   8.610  62.903  0.00  0.00    -0.073 C 
ATOM     96  H24 non d ame      -4.458   8.573  61.815  0.00  0.00     0.028 H 
ATOM     97  H25 non d ame      -3.712   9.391  63.208  0.00  0.00     0.028 H 
ATOM     98  H26 non d ame      -4.066   7.647  63.284  0.00  0.00     0.028 H 
ENDBRANCH  93  95
BRANCH  93  99
ATOM     99  C19 non d ame      -5.815  10.231  64.275  0.00  0.00    -0.073 C 
ATOM    100  H27 non d ame      -4.895  10.292  64.858  0.00  0.00     0.028 H 
ATOM    101  H28 non d ame      -5.866  11.074  63.586  0.00  0.00     0.028 H 
ATOM    102  H29 non d ame      -6.674  10.257  64.944  0.00  0.00     0.028 H 
ENDBRANCH  93  99
ENDBRANCH  90  93
ENDBRANCH   1  90
TORSDOF 26
ENDMDL
MODEL 8
REMARK VINA RESULT:      -6.8      2.262      3.082
REMARK  26 active torsions:
REMARK  status: ('A' for Active; 'I' for Inactive)
REMARK    1  A    between atoms: C2_2  and  C3_3 
REMARK    2  A    between atoms: C4_6  and  C5_7 
REMARK       I    between atoms: C5_7  and  N2_9 
REMARK    3  A    between atoms: N2_9  and  C6_10 
REMARK    4  A    between atoms: C6_10  and  C7_11 
REMARK    5  A    between atoms: C6_10  and  C8_13 
REMARK       I    between atoms: C7_11  and  N3_14 
REMARK    6  A    between atoms: N3_14  and  C9_15 
REMARK    7  A    between atoms: C9_15  and  C10_16 
REMARK    8  A    between atoms: C9_15  and  C11_18 
REMARK       I    between atoms: C10_16  and  N4_21 
REMARK    9  A    between atoms: C11_18  and  C12_19 
REMARK   10  A    between atoms: C11_18  and  C13_20 
REMARK   11  A    between atoms: N4_21  and  C14_22 
REMARK   12  A    between atoms: C14_22  and  C15_23 
REMARK   13  A    between atoms: C14_22  and  C16_25 
REMARK       I    between atoms: C15_23  and  N6_40 
REMARK   14  A    between atoms: C16_25  and  C17_26 
REMARK   15  A    between atoms: C17_26  and  C18_27 
REMARK   16  A    between atoms: C17_26  and  C19_28 
REMARK   17  A    between atoms: C20_29  and  C21_30 
REMARK   18  A    between atoms: C20_29  and  C24_33 
REMARK   19  A    between atoms: C20_29  and  N6_40 
REMARK   20  A    between atoms: C21_30  and  C22_31 
REMARK   21  A    between atoms: C22_31  and  C23_32 
REMARK   22  A    between atoms: C23_32  and  O8_43 
REMARK   23  A    between atoms: C24_33  and  C25_34 
REMARK   24  A    between atoms: C28_38  and  O6_39 
REMARK   25  A    between atoms: C29_42  and  O8_43 
REMARK   26  A    between atoms: C29_42  and  C35_49 
ROOT
ATOM      1  C14 non d ame      -7.183   5.910  64.634  0.00  0.00     0.089 C 
ATOM      2  H20 non d ame      -7.171   5.568  63.598  0.00  0.00     0.087 H 
ENDROOT
BRANCH   1   3
ATOM      3  N4  non d ame      -6.893   7.336  64.628  0.00  0.00    -0.346 N 
ATOM      4  C10 non d ame      -7.497   8.232  63.576  0.00  0.00     0.241 C 
ATOM      5  O4  non d ame      -8.213   7.781  62.742  0.00  0.00    -0.271 OA
ATOM      6  H19 non d ame      -6.280   7.700  65.344  0.00  0.00     0.163 HD
BRANCH   4   7
ATOM      7  C9  non d ame      -7.191   9.707  63.588  0.00  0.00     0.092 C 
ATOM      8  H11 non d ame      -7.129  10.069  62.561  0.00  0.00     0.088 H 
BRANCH   7   9
ATOM      9  N3  non d ame      -8.290  10.430  64.235  0.00  0.00    -0.346 N 
ATOM     10  C7  non d ame      -9.276  11.110  63.434  0.00  0.00     0.240 C 
ATOM     11  O3  non d ame      -9.202  11.087  62.266  0.00  0.00    -0.271 OA
ATOM     12  H10 non d ame      -8.367  10.459  65.242  0.00  0.00     0.163 HD
BRANCH  10  13
ATOM     13  C6  non d ame     -10.442  11.880  64.130  0.00  0.00     0.086 C 
ATOM     14  H6  non d ame     -10.659  11.504  65.129  0.00  0.00     0.086 H 
BRANCH  13  15
ATOM     15  N2  non d ame     -10.059  13.274  64.284  0.00  0.00    -0.343 N 
ATOM     16  C5  non d ame     -10.444  13.998  65.497  0.00  0.00     0.273 C 
ATOM     17  O2  non d ame     -11.064  13.451  66.341  0.00  0.00    -0.266 OA
ATOM     18  H5  non d ame      -9.531  13.734  63.556  0.00  0.00     0.163 HD
BRANCH  16  19
ATOM     19  C4  non d ame     -10.045  15.472  65.674  0.00  0.00     0.154 A 
ATOM     20  C1  non d ame      -8.958  15.987  66.450  0.00  0.00    -0.017 A 
ATOM     21  C2  non d ame      -9.024  17.387  66.281  0.00  0.00     0.077 A 
ATOM     22  H1  non d ame      -8.233  15.429  67.043  0.00  0.00     0.091 H 
ATOM     23  O1  non d ame     -10.031  17.637  65.497  0.00  0.00    -0.218 OA
ATOM     24  N1  non d ame     -10.643  16.535  65.130  0.00  0.00    -0.123 NA
BRANCH  21  25
ATOM     25  C3  non d ame      -8.085  18.414  66.901  0.00  0.00    -0.029 C 
ATOM     26  H2  non d ame      -8.649  19.066  67.569  0.00  0.00     0.036 H 
ATOM     27  H3  non d ame      -7.307  17.902  67.466  0.00  0.00     0.036 H 
ATOM     28  H4  non d ame      -7.627  19.012  66.112  0.00  0.00     0.036 H 
ENDBRANCH  21  25
ENDBRANCH  16  19
ENDBRANCH  13  15
BRANCH  13  29
ATOM     29  C8  non d ame     -11.689  11.777  63.289  0.00  0.00    -0.049 C 
ATOM     30  H7  non d ame     -12.424  12.502  63.640  0.00  0.00     0.030 H 
ATOM     31  H8  non d ame     -11.444  11.983  62.247  0.00  0.00     0.030 H 
ATOM     32  H9  non d ame     -12.102  10.772  63.374  0.00  0.00     0.030 H 
ENDBRANCH  13  29
ENDBRANCH  10  13
ENDBRANCH   7   9
BRANCH   7  33
ATOM     33  C11 non d ame      -5.872   9.955  64.377  0.00  0.00    -0.033 C 
ATOM     34  H12 non d ame      -5.447   8.983  64.621  0.00  0.00     0.042 H 
BRANCH  33  35
ATOM     35  C12 non d ame      -4.826  10.722  63.509  0.00  0.00    -0.071 C 
ATOM     36  H13 non d ame      -4.935  11.794  63.671  0.00  0.00     0.028 H 
ATOM     37  H14 non d ame      -3.821  10.412  63.793  0.00  0.00     0.028 H 
ATOM     38  H15 non d ame      -4.993  10.495  62.457  0.00  0.00     0.028 H 
ENDBRANCH  33  35
BRANCH  33  39
ATOM     39  C13 non d ame      -6.157  10.709  65.716  0.00  0.00    -0.071 C 
ATOM     40  H16 non d ame      -5.639  10.207  66.533  0.00  0.00     0.028 H 
ATOM     41  H17 non d ame      -5.800  11.737  65.638  0.00  0.00     0.028 H 
ATOM     42  H18 non d ame      -7.229  10.712  65.912  0.00  0.00     0.028 H 
ENDBRANCH  33  39
ENDBRANCH   7  33
ENDBRANCH   4   7
ENDBRANCH   1   3
BRANCH   1  43
ATOM     43  C15 non d ame      -8.567   5.690  65.309  0.00  0.00     0.240 C 
ATOM     44  O5  non d ame      -9.333   4.908  64.847  0.00  0.00    -0.271 OA
ATOM     45  N6  non d ame      -8.934   6.449  66.538  0.00  0.00    -0.355 N 
ATOM     46  H46 non d ame      -8.290   7.113  66.942  0.00  0.00     0.162 HD
BRANCH  45  47
ATOM     47  C20 non d ame     -10.254   6.229  67.169  0.00  0.00     0.013 C 
ATOM     48  H30 non d ame     -10.935   5.859  66.402  0.00  0.00     0.072 H 
BRANCH  47  49
ATOM     49  C21 non d ame     -10.766   7.537  67.727  0.00  0.00    -0.038 C 
ATOM     50  H31 non d ame     -11.849   7.501  67.614  0.00  0.00     0.036 H 
ATOM     51  H32 non d ame     -10.325   7.626  68.720  0.00  0.00     0.036 H 
BRANCH  49  52
ATOM     52  C22 non d ame     -10.283   8.762  66.922  0.00  0.00     0.018 C 
ATOM     53  H33 non d ame      -9.198   8.780  67.033  0.00  0.00     0.048 H 
ATOM     54  H34 non d ame     -10.727   8.660  65.933  0.00  0.00     0.048 H 
BRANCH  52  55
ATOM     55  C23 non d ame     -10.792  10.120  67.482  0.00  0.00     0.259 C 
ATOM     56  O7  non d ame     -11.704  10.680  66.966  0.00  0.00    -0.265 OA
BRANCH  55  57
ATOM     57  O8  non d ame     -10.145  10.695  68.611  0.00  0.00    -0.317 OA
BRANCH  57  58
ATOM     58  C29 non d ame     -11.033  11.369  69.509  0.00  0.00     0.052 C 
ATOM     59  H47 non d ame     -10.425  12.115  70.019  0.00  0.00     0.082 H 
ATOM     60  H48 non d ame     -11.884  11.680  68.903  0.00  0.00     0.082 H 
BRANCH  58  61
ATOM     61  C35 non d ame     -11.528  10.337  70.557  0.00  0.00    -0.034 A 
ATOM     62  C30 non d ame     -12.825  10.413  71.052  0.00  0.00    -0.075 A 
ATOM     63  C31 non d ame     -13.269   9.486  71.994  0.00  0.00    -0.082 A 
ATOM     64  H49 non d ame     -13.495  11.199  70.702  0.00  0.00     0.084 H 
ATOM     65  C32 non d ame     -12.408   8.481  72.443  0.00  0.00    -0.083 A 
ATOM     66  H50 non d ame     -14.288   9.547  72.378  0.00  0.00     0.083 H 
ATOM     67  C33 non d ame     -11.112   8.411  71.949  0.00  0.00    -0.082 A 
ATOM     68  H51 non d ame     -12.748   7.752  73.178  0.00  0.00     0.083 H 
ATOM     69  C34 non d ame     -10.666   9.334  71.006  0.00  0.00    -0.075 A 
ATOM     70  H52 non d ame     -10.443   7.626  72.303  0.00  0.00     0.083 H 
ATOM     71  H53 non d ame      -9.647   9.271  70.621  0.00  0.00     0.084 H 
ENDBRANCH  58  61
ENDBRANCH  57  58
ENDBRANCH  55  57
ENDBRANCH  52  55
ENDBRANCH  49  52
ENDBRANCH  47  49
BRANCH  47  72
ATOM     72  C24 non d ame     -10.121   5.208  68.298  0.00  0.00    -0.039 C 
ATOM     73  H35 non d ame     -11.037   5.303  68.882  0.00  0.00     0.036 H 
ATOM     74  H36 non d ame      -9.884   4.263  67.809  0.00  0.00     0.036 H 
BRANCH  72  75
ATOM     75  C25 non d ame      -8.899   5.557  69.273  0.00  0.00    -0.001 C 
ATOM     76  C26 non d ame      -7.682   4.473  69.053  0.00  0.00    -0.035 C 
ATOM     77  C27 non d ame      -7.319   3.975  70.260  0.00  0.00     0.085 C 
ATOM     78  H38 non d ame      -8.051   3.599  68.518  0.00  0.00     0.036 H 
ATOM     79  H39 non d ame      -6.784   4.984  68.708  0.00  0.00     0.036 H 
ATOM     80  N5  non d ame      -8.394   4.373  71.243  0.00  0.00    -0.049 N 
ATOM     81  H40 non d ame      -7.329   2.891  70.143  0.00  0.00     0.075 H 
ATOM     82  H41 non d ame      -6.393   4.487  70.519  0.00  0.00     0.075 H 
ATOM     83  C28 non d ame      -9.263   5.520  70.511  0.00  0.00     0.193 C 
ATOM     84  H42 non d ame      -8.978   3.561  71.373  0.00  0.00     0.280 HD
ATOM     85  H43 non d ame      -7.920   4.786  72.034  0.00  0.00     0.280 HD
ATOM     86  H44 non d ame      -9.141   6.568  70.785  0.00  0.00     0.129 H 
ATOM     87  H37 non d ame      -8.634   6.614  69.240  0.00  0.00     0.046 H 
BRANCH  83  88
ATOM     88  O6  non d ame     -10.658   5.249  70.655  0.00  0.00    -0.369 OA
ATOM     89  H45 non d ame     -10.944   4.664  69.949  0.00  0.00     0.212 HD
ENDBRANCH  83  88
ENDBRANCH  72  75
ENDBRANCH  47  72
ENDBRANCH  45  47
ENDBRANCH   1  43
BRANCH   1  90
ATOM     90  C16 non d ame      -6.107   5.188  65.427  0.00  0.00    -0.035 C 
ATOM     91  H21 non d ame      -6.142   5.625  66.426  0.00  0.00     0.037 H 
ATOM     92  H22 non d ame      -6.310   4.126  65.290  0.00  0.00     0.037 H 
BRANCH  90  93
ATOM     93  C17 non d ame      -4.661   5.433  64.890  0.00  0.00    -0.059 C 
ATOM     94  H23 non d ame      -4.730   5.588  63.813  0.00  0.00     0.038 H 
BRANCH  93  95
ATOM     95  C18 non d ame      -4.009   6.708  65.513  0.00  0.00    -0.073 C 
ATOM     96  H24 non d ame      -3.643   6.477  66.513  0.00  0.00     0.028 H 
ATOM     97  H25 non d ame      -3.177   7.033  64.888  0.00  0.00     0.028 H 
ATOM     98  H26 non d ame      -4.751   7.504  65.572  0.00  0.00     0.028 H 
ENDBRANCH  93  95
BRANCH  93  99
ATOM     99  C19 non d ame      -3.777   4.203  65.116  0.00  0.00    -0.073 C 
ATOM    100  H27 non d ame      -4.294   3.499  65.769  0.00  0.00     0.028 H 
ATOM    101  H28 non d ame      -3.569   3.726  64.158  0.00  0.00     0.028 H 
ATOM    102  H29 non d ame      -2.839   4.510  65.579  0.00  0.00     0.028 H 
ENDBRANCH  93  99
ENDBRANCH  90  93
ENDBRANCH   1  90
TORSDOF 26
ENDMDL
MODEL 9
REMARK VINA RESULT:      -6.6      2.943      6.718
REMARK  26 active torsions:
REMARK  status: ('A' for Active; 'I' for Inactive)
REMARK    1  A    between atoms: C2_2  and  C3_3 
REMARK    2  A    between atoms: C4_6  and  C5_7 
REMARK       I    between atoms: C5_7  and  N2_9 
REMARK    3  A    between atoms: N2_9  and  C6_10 
REMARK    4  A    between atoms: C6_10  and  C7_11 
REMARK    5  A    between atoms: C6_10  and  C8_13 
REMARK       I    between atoms: C7_11  and  N3_14 
REMARK    6  A    between atoms: N3_14  and  C9_15 
REMARK    7  A    between atoms: C9_15  and  C10_16 
REMARK    8  A    between atoms: C9_15  and  C11_18 
REMARK       I    between atoms: C10_16  and  N4_21 
REMARK    9  A    between atoms: C11_18  and  C12_19 
REMARK   10  A    between atoms: C11_18  and  C13_20 
REMARK   11  A    between atoms: N4_21  and  C14_22 
REMARK   12  A    between atoms: C14_22  and  C15_23 
REMARK   13  A    between atoms: C14_22  and  C16_25 
REMARK       I    between atoms: C15_23  and  N6_40 
REMARK   14  A    between atoms: C16_25  and  C17_26 
REMARK   15  A    between atoms: C17_26  and  C18_27 
REMARK   16  A    between atoms: C17_26  and  C19_28 
REMARK   17  A    between atoms: C20_29  and  C21_30 
REMARK   18  A    between atoms: C20_29  and  C24_33 
REMARK   19  A    between atoms: C20_29  and  N6_40 
REMARK   20  A    between atoms: C21_30  and  C22_31 
REMARK   21  A    between atoms: C22_31  and  C23_32 
REMARK   22  A    between atoms: C23_32  and  O8_43 
REMARK   23  A    between atoms: C24_33  and  C25_34 
REMARK   24  A    between atoms: C28_38  and  O6_39 
REMARK   25  A    between atoms: C29_42  and  O8_43 
REMARK   26  A    between atoms: C29_42  and  C35_49 
ROOT
ATOM      1  C14 non d ame      -6.903   8.624  68.733  0.00  0.00     0.089 C 
ATOM      2  H20 non d ame      -6.317   8.438  69.634  0.00  0.00     0.087 H 
ENDROOT
BRANCH   1   3
ATOM      3  N4  non d ame      -6.824  10.049  68.447  0.00  0.00    -0.346 N 
ATOM      4  C10 non d ame      -6.510  11.031  69.548  0.00  0.00     0.241 C 
ATOM      5  O4  non d ame      -6.326  10.650  70.657  0.00  0.00    -0.271 OA
ATOM      6  H19 non d ame      -6.986  10.353  67.497  0.00  0.00     0.163 HD
BRANCH   4   7
ATOM      7  C9  non d ame      -6.427  12.501  69.233  0.00  0.00     0.092 C 
ATOM      8  H11 non d ame      -6.003  12.632  68.238  0.00  0.00     0.088 H 
BRANCH   7   9
ATOM      9  N3  non d ame      -7.778  13.072  69.205  0.00  0.00    -0.346 N 
ATOM     10  C7  non d ame      -8.270  13.701  68.005  0.00  0.00     0.240 C 
ATOM     11  O3  non d ame      -7.594  13.758  67.051  0.00  0.00    -0.271 OA
ATOM     12  H10 non d ame      -8.373  13.031  70.021  0.00  0.00     0.163 HD
BRANCH  10  13
ATOM     13  C6  non d ame      -9.707  14.309  67.983  0.00  0.00     0.086 C 
ATOM     14  H6  non d ame     -10.430  13.666  67.481  0.00  0.00     0.086 H 
BRANCH  13  15
ATOM     15  N2  non d ame     -10.172  14.468  69.351  0.00  0.00    -0.343 N 
ATOM     16  C5  non d ame     -11.595  14.296  69.655  0.00  0.00     0.273 C 
ATOM     17  O2  non d ame     -12.357  14.034  68.791  0.00  0.00    -0.266 OA
ATOM     18  H5  non d ame      -9.514  14.695  70.083  0.00  0.00     0.163 HD
BRANCH  16  19
ATOM     19  C4  non d ame     -12.100  14.460  71.097  0.00  0.00     0.154 A 
ATOM     20  C1  non d ame     -11.663  15.423  72.062  0.00  0.00    -0.017 A 
ATOM     21  C2  non d ame     -12.432  15.154  73.216  0.00  0.00     0.077 A 
ATOM     22  H1  non d ame     -10.906  16.198  71.942  0.00  0.00     0.091 H 
ATOM     23  O1  non d ame     -13.216  14.155  72.936  0.00  0.00    -0.218 OA
ATOM     24  N1  non d ame     -13.040  13.732  71.705  0.00  0.00    -0.123 NA
BRANCH  21  25
ATOM     25  C3  non d ame     -12.357  15.899  74.542  0.00  0.00    -0.029 C 
ATOM     26  H2  non d ame     -12.696  16.926  74.402  0.00  0.00     0.036 H 
ATOM     27  H3  non d ame     -12.993  15.403  75.274  0.00  0.00     0.036 H 
ATOM     28  H4  non d ame     -11.326  15.903  74.900  0.00  0.00     0.036 H 
ENDBRANCH  21  25
ENDBRANCH  16  19
ENDBRANCH  13  15
BRANCH  13  29
ATOM     29  C8  non d ame      -9.679  15.647  67.289  0.00  0.00    -0.049 C 
ATOM     30  H7  non d ame     -10.675  15.879  66.909  0.00  0.00     0.030 H 
ATOM     31  H8  non d ame      -9.371  16.417  67.995  0.00  0.00     0.030 H 
ATOM     32  H9  non d ame      -8.974  15.610  66.459  0.00  0.00     0.030 H 
ENDBRANCH  13  29
ENDBRANCH  10  13
ENDBRANCH   7   9
BRANCH   7  33
ATOM     33  C11 non d ame      -5.585  13.219  70.328  0.00  0.00    -0.033 C 
ATOM     34  H12 non d ame      -5.790  12.726  71.277  0.00  0.00     0.042 H 
BRANCH  33  35
ATOM     35  C12 non d ame      -4.056  13.084  70.049  0.00  0.00    -0.071 C 
ATOM     36  H13 non d ame      -3.584  12.539  70.866  0.00  0.00     0.028 H 
ATOM     37  H14 non d ame      -3.903  12.543  69.115  0.00  0.00     0.028 H 
ATOM     38  H15 non d ame      -3.613  14.076  69.971  0.00  0.00     0.028 H 
ENDBRANCH  33  35
BRANCH  33  39
ATOM     39  C13 non d ame      -6.005  14.719  70.462  0.00  0.00    -0.071 C 
ATOM     40  H16 non d ame      -6.584  15.013  69.588  0.00  0.00     0.028 H 
ATOM     41  H17 non d ame      -6.611  14.848  71.360  0.00  0.00     0.028 H 
ATOM     42  H18 non d ame      -5.113  15.341  70.533  0.00  0.00     0.028 H 
ENDBRANCH  33  39
ENDBRANCH   7  33
ENDBRANCH   4   7
ENDBRANCH   1   3
BRANCH   1  43
ATOM     43  C15 non d ame      -6.357   7.842  67.505  0.00  0.00     0.240 C 
ATOM     44  O5  non d ame      -5.210   7.535  67.461  0.00  0.00    -0.271 OA
ATOM     45  N6  non d ame      -7.268   7.468  66.385  0.00  0.00    -0.355 N 
ATOM     46  H46 non d ame      -8.245   7.720  66.413  0.00  0.00     0.162 HD
BRANCH  45  47
ATOM     47  C20 non d ame      -6.734   6.724  65.224  0.00  0.00     0.013 C 
ATOM     48  H30 non d ame      -5.721   6.404  65.467  0.00  0.00     0.072 H 
BRANCH  47  49
ATOM     49  C21 non d ame      -6.712   7.631  64.015  0.00  0.00    -0.038 C 
ATOM     50  H31 non d ame      -6.463   8.621  64.394  0.00  0.00     0.036 H 
ATOM     51  H32 non d ame      -6.058   7.143  63.292  0.00  0.00     0.036 H 
BRANCH  49  52
ATOM     52  C22 non d ame      -8.094   7.758  63.337  0.00  0.00     0.018 C 
ATOM     53  H33 non d ame      -8.184   6.890  62.684  0.00  0.00     0.048 H 
ATOM     54  H34 non d ame      -8.808   7.907  64.147  0.00  0.00     0.048 H 
BRANCH  52  55
ATOM     55  C23 non d ame      -8.227   9.002  62.415  0.00  0.00     0.259 C 
ATOM     56  O7  non d ame      -7.734   9.006  61.333  0.00  0.00    -0.265 OA
BRANCH  55  57
ATOM     57  O8  non d ame      -8.934  10.144  62.883  0.00  0.00    -0.317 OA
BRANCH  57  58
ATOM     58  C29 non d ame      -9.427  10.015  64.220  0.00  0.00     0.052 C 
ATOM     59  H47 non d ame      -9.931   9.051  64.256  0.00  0.00     0.082 H 
ATOM     60  H48 non d ame      -8.573  10.208  64.869  0.00  0.00     0.082 H 
BRANCH  58  61
ATOM     61  C35 non d ame     -10.480  11.131  64.451  0.00  0.00    -0.034 A 
ATOM     62  C30 non d ame     -11.038  11.799  63.366  0.00  0.00    -0.075 A 
ATOM     63  C31 non d ame     -11.985  12.801  63.575  0.00  0.00    -0.082 A 
ATOM     64  H49 non d ame     -10.734  11.537  62.353  0.00  0.00     0.084 H 
ATOM     65  C32 non d ame     -12.371  13.137  64.875  0.00  0.00    -0.083 A 
ATOM     66  H50 non d ame     -12.422  13.321  62.722  0.00  0.00     0.083 H 
ATOM     67  C33 non d ame     -11.809  12.470  65.955  0.00  0.00    -0.082 A 
ATOM     68  H51 non d ame     -13.111  13.919  65.046  0.00  0.00     0.083 H 
ATOM     69  C34 non d ame     -10.864  11.466  65.751  0.00  0.00    -0.075 A 
ATOM     70  H52 non d ame     -12.111  12.736  66.969  0.00  0.00     0.083 H 
ATOM     71  H53 non d ame     -10.429  10.946  66.605  0.00  0.00     0.084 H 
ENDBRANCH  58  61
ENDBRANCH  57  58
ENDBRANCH  55  57
ENDBRANCH  52  55
ENDBRANCH  49  52
ENDBRANCH  47  49
BRANCH  47  72
ATOM     72  C24 non d ame      -7.618   5.512  64.937  0.00  0.00    -0.039 C 
ATOM     73  H35 non d ame      -8.303   5.832  64.151  0.00  0.00     0.036 H 
ATOM     74  H36 non d ame      -6.929   4.686  64.756  0.00  0.00     0.036 H 
BRANCH  72  75
ATOM     75  C25 non d ame      -8.510   5.113  66.207  0.00  0.00    -0.001 C 
ATOM     76  C26 non d ame      -7.724   3.986  67.110  0.00  0.00    -0.035 C 
ATOM     77  C27 non d ame      -8.563   2.946  67.334  0.00  0.00     0.085 C 
ATOM     78  H38 non d ame      -6.915   3.541  66.532  0.00  0.00     0.036 H 
ATOM     79  H39 non d ame      -7.530   4.376  68.109  0.00  0.00     0.036 H 
ATOM     80  N5  non d ame      -9.734   3.112  66.395  0.00  0.00    -0.049 N 
ATOM     81  H40 non d ame      -8.004   2.054  67.050  0.00  0.00     0.075 H 
ATOM     82  H41 non d ame      -8.911   3.068  68.359  0.00  0.00     0.075 H 
ATOM     83  C28 non d ame      -9.650   4.628  65.845  0.00  0.00     0.193 C 
ATOM     84  H42 non d ame      -9.573   2.481  65.624  0.00  0.00     0.280 HD
ATOM     85  H43 non d ame     -10.567   3.021  66.957  0.00  0.00     0.280 HD
ATOM     86  H44 non d ame     -10.323   5.394  66.228  0.00  0.00     0.129 H 
ATOM     87  H37 non d ame      -8.895   5.988  66.731  0.00  0.00     0.046 H 
BRANCH  83  88
ATOM     88  O6  non d ame      -9.818   4.648  64.426  0.00  0.00    -0.369 OA
ATOM     89  H45 non d ame      -9.582   5.515  64.089  0.00  0.00     0.212 HD
ENDBRANCH  83  88
ENDBRANCH  72  75
ENDBRANCH  47  72
ENDBRANCH  45  47
ENDBRANCH   1  43
BRANCH   1  90
ATOM     90  C16 non d ame      -8.355   8.246  68.976  0.00  0.00    -0.035 C 
ATOM     91  H21 non d ame      -8.467   7.245  68.557  0.00  0.00     0.037 H 
ATOM     92  H22 non d ame      -8.523   8.414  70.040  0.00  0.00     0.037 H 
BRANCH  90  93
ATOM     93  C17 non d ame      -9.374   9.156  68.220  0.00  0.00    -0.059 C 
ATOM     94  H23 non d ame      -8.813   9.760  67.507  0.00  0.00     0.038 H 
BRANCH  93  95
ATOM     95  C18 non d ame     -10.424   8.324  67.416  0.00  0.00    -0.073 C 
ATOM     96  H24 non d ame     -10.723   7.455  68.001  0.00  0.00     0.028 H 
ATOM     97  H25 non d ame     -11.298   8.943  67.211  0.00  0.00     0.028 H 
ATOM     98  H26 non d ame      -9.983   7.995  66.475  0.00  0.00     0.028 H 
ENDBRANCH  93  95
BRANCH  93  99
ATOM     99  C19 non d ame     -10.068  10.121  69.185  0.00  0.00    -0.073 C 
ATOM    100  H27 non d ame     -11.081   9.769  69.385  0.00  0.00     0.028 H 
ATOM    101  H28 non d ame      -9.507  10.165  70.119  0.00  0.00     0.028 H 
ATOM    102  H29 non d ame     -10.109  11.115  68.740  0.00  0.00     0.028 H 
ENDBRANCH  93  99
ENDBRANCH  90  93
ENDBRANCH   1  90
TORSDOF 26
ENDMDL
MODEL 10
REMARK VINA RESULT:      -6.5      2.117      3.731
REMARK  26 active torsions:
REMARK  status: ('A' for Active; 'I' for Inactive)
REMARK    1  A    between atoms: C2_2  and  C3_3 
REMARK    2  A    between atoms: C4_6  and  C5_7 
REMARK       I    between atoms: C5_7  and  N2_9 
REMARK    3  A    between atoms: N2_9  and  C6_10 
REMARK    4  A    between atoms: C6_10  and  C7_11 
REMARK    5  A    between atoms: C6_10  and  C8_13 
REMARK       I    between atoms: C7_11  and  N3_14 
REMARK    6  A    between atoms: N3_14  and  C9_15 
REMARK    7  A    between atoms: C9_15  and  C10_16 
REMARK    8  A    between atoms: C9_15  and  C11_18 
REMARK       I    between atoms: C10_16  and  N4_21 
REMARK    9  A    between atoms: C11_18  and  C12_19 
REMARK   10  A    between atoms: C11_18  and  C13_20 
REMARK   11  A    between atoms: N4_21  and  C14_22 
REMARK   12  A    between atoms: C14_22  and  C15_23 
REMARK   13  A    between atoms: C14_22  and  C16_25 
REMARK       I    between atoms: C15_23  and  N6_40 
REMARK   14  A    between atoms: C16_25  and  C17_26 
REMARK   15  A    between atoms: C17_26  and  C18_27 
REMARK   16  A    between atoms: C17_26  and  C19_28 
REMARK   17  A    between atoms: C20_29  and  C21_30 
REMARK   18  A    between atoms: C20_29  and  C24_33 
REMARK   19  A    between atoms: C20_29  and  N6_40 
REMARK   20  A    between atoms: C21_30  and  C22_31 
REMARK   21  A    between atoms: C22_31  and  C23_32 
REMARK   22  A    between atoms: C23_32  and  O8_43 
REMARK   23  A    between atoms: C24_33  and  C25_34 
REMARK   24  A    between atoms: C28_38  and  O6_39 
REMARK   25  A    between atoms: C29_42  and  O8_43 
REMARK   26  A    between atoms: C29_42  and  C35_49 
ROOT
ATOM      1  C14 non d ame      -8.447   8.264  68.376  0.00  0.00     0.089 C 
ATOM      2  H20 non d ame      -7.431   8.132  68.751  0.00  0.00     0.087 H 
ENDROOT
BRANCH   1   3
ATOM      3  N4  non d ame      -8.410   8.067  66.934  0.00  0.00    -0.346 N 
ATOM      4  C10 non d ame      -7.093   8.066  66.198  0.00  0.00     0.241 C 
ATOM      5  O4  non d ame      -6.076   8.228  66.789  0.00  0.00    -0.271 OA
ATOM      6  H19 non d ame      -9.286   7.933  66.450  0.00  0.00     0.163 HD
BRANCH   4   7
ATOM      7  C9  non d ame      -7.073   7.856  64.707  0.00  0.00     0.092 C 
ATOM      8  H11 non d ame      -7.829   7.118  64.438  0.00  0.00     0.088 H 
BRANCH   7   9
ATOM      9  N3  non d ame      -7.430   9.108  64.032  0.00  0.00    -0.346 N 
ATOM     10  C7  non d ame      -8.237   9.077  62.838  0.00  0.00     0.240 C 
ATOM     11  O3  non d ame      -8.607   8.055  62.404  0.00  0.00    -0.271 OA
ATOM     12  H10 non d ame      -7.118   9.998  64.394  0.00  0.00     0.163 HD
BRANCH  10  13
ATOM     13  C6  non d ame      -8.612  10.413  62.122  0.00  0.00     0.086 C 
ATOM     14  H6  non d ame      -9.531  10.337  61.541  0.00  0.00     0.086 H 
BRANCH  13  15
ATOM     15  N2  non d ame      -8.840  11.438  63.128  0.00  0.00    -0.343 N 
ATOM     16  C5  non d ame     -10.196  11.669  63.628  0.00  0.00     0.273 C 
ATOM     17  O2  non d ame     -11.098  11.028  63.213  0.00  0.00    -0.266 OA
ATOM     18  H5  non d ame      -8.063  11.984  63.474  0.00  0.00     0.163 HD
BRANCH  16  19
ATOM     19  C4  non d ame     -10.451  12.749  64.691  0.00  0.00     0.154 A 
ATOM     20  C1  non d ame      -9.736  12.943  65.916  0.00  0.00    -0.017 A 
ATOM     21  C2  non d ame     -10.355  14.056  66.526  0.00  0.00     0.077 A 
ATOM     22  H1  non d ame      -8.895  12.365  66.301  0.00  0.00     0.091 H 
ATOM     23  O1  non d ame     -11.311  14.449  65.736  0.00  0.00    -0.218 OA
ATOM     24  N1  non d ame     -11.387  13.702  64.659  0.00  0.00    -0.123 NA
BRANCH  21  25
ATOM     25  C3  non d ame      -9.972  14.681  67.861  0.00  0.00    -0.029 C 
ATOM     26  H2  non d ame     -10.269  14.017  68.672  0.00  0.00     0.036 H 
ATOM     27  H3  non d ame      -8.894  14.835  67.894  0.00  0.00     0.036 H 
ATOM     28  H4  non d ame     -10.479  15.641  67.972  0.00  0.00     0.036 H 
ENDBRANCH  21  25
ENDBRANCH  16  19
ENDBRANCH  13  15
BRANCH  13  29
ATOM     29  C8  non d ame      -7.489  10.828  61.207  0.00  0.00    -0.049 C 
ATOM     30  H7  non d ame      -6.532  10.588  61.673  0.00  0.00     0.030 H 
ATOM     31  H8  non d ame      -7.575  10.297  60.260  0.00  0.00     0.030 H 
ATOM     32  H9  non d ame      -7.544  11.902  61.029  0.00  0.00     0.030 H 
ENDBRANCH  13  29
ENDBRANCH  10  13
ENDBRANCH   7   9
BRANCH   7  33
ATOM     33  C11 non d ame      -5.646   7.420  64.264  0.00  0.00    -0.033 C 
ATOM     34  H12 non d ame      -5.088   7.158  65.163  0.00  0.00     0.042 H 
BRANCH  33  35
ATOM     35  C12 non d ame      -5.695   6.152  63.356  0.00  0.00    -0.071 C 
ATOM     36  H13 non d ame      -5.686   5.258  63.979  0.00  0.00     0.028 H 
ATOM     37  H14 non d ame      -6.605   6.169  62.757  0.00  0.00     0.028 H 
ATOM     38  H15 non d ame      -4.827   6.144  62.698  0.00  0.00     0.028 H 
ENDBRANCH  33  35
BRANCH  33  39
ATOM     39  C13 non d ame      -4.897   8.594  63.556  0.00  0.00    -0.071 C 
ATOM     40  H16 non d ame      -4.903   9.471  64.202  0.00  0.00     0.028 H 
ATOM     41  H17 non d ame      -3.866   8.299  63.354  0.00  0.00     0.028 H 
ATOM     42  H18 non d ame      -5.397   8.830  62.617  0.00  0.00     0.028 H 
ENDBRANCH  33  39
ENDBRANCH   7  33
ENDBRANCH   4   7
ENDBRANCH   1   3
BRANCH   1  43
ATOM     43  C15 non d ame      -9.438   7.235  68.990  0.00  0.00     0.240 C 
ATOM     44  O5  non d ame      -9.756   6.275  68.366  0.00  0.00    -0.271 OA
ATOM     45  N6  non d ame      -9.985   7.442  70.361  0.00  0.00    -0.355 N 
ATOM     46  H46 non d ame      -9.719   8.252  70.902  0.00  0.00     0.162 HD
BRANCH  45  47
ATOM     47  C20 non d ame     -10.926   6.455  70.932  0.00  0.00     0.013 C 
ATOM     48  H30 non d ame     -11.044   5.647  70.210  0.00  0.00     0.072 H 
BRANCH  47  49
ATOM     49  C21 non d ame     -12.260   7.121  71.182  0.00  0.00    -0.038 C 
ATOM     50  H31 non d ame     -12.692   7.294  70.197  0.00  0.00     0.036 H 
ATOM     51  H32 non d ame     -12.777   6.485  71.901  0.00  0.00     0.036 H 
BRANCH  49  52
ATOM     52  C22 non d ame     -12.121   8.508  71.847  0.00  0.00     0.018 C 
ATOM     53  H33 non d ame     -11.642   8.328  72.810  0.00  0.00     0.048 H 
ATOM     54  H34 non d ame     -11.635   9.143  71.108  0.00  0.00     0.048 H 
BRANCH  52  55
ATOM     55  C23 non d ame     -13.482   9.188  72.169  0.00  0.00     0.259 C 
ATOM     56  O7  non d ame     -14.439   8.531  72.422  0.00  0.00    -0.265 OA
BRANCH  55  57
ATOM     57  O8  non d ame     -13.575  10.607  72.142  0.00  0.00    -0.317 OA
BRANCH  57  58
ATOM     58  C29 non d ame     -12.624  11.236  71.277  0.00  0.00     0.052 C 
ATOM     59  H47 non d ame     -11.645  10.992  71.688  0.00  0.00     0.082 H 
ATOM     60  H48 non d ame     -12.888  10.918  70.269  0.00  0.00     0.082 H 
BRANCH  58  61
ATOM     61  C35 non d ame     -12.830  12.771  71.377  0.00  0.00    -0.034 A 
ATOM     62  C30 non d ame     -12.357  13.605  70.368  0.00  0.00    -0.075 A 
ATOM     63  C31 non d ame     -12.542  14.984  70.458  0.00  0.00    -0.082 A 
ATOM     64  H49 non d ame     -11.842  13.178  69.508  0.00  0.00     0.084 H 
ATOM     65  C32 non d ame     -13.200  15.529  71.564  0.00  0.00    -0.083 A 
ATOM     66  H50 non d ame     -12.173  15.634  69.664  0.00  0.00     0.083 H 
ATOM     67  C33 non d ame     -13.667  14.693  72.570  0.00  0.00    -0.082 A 
ATOM     68  H51 non d ame     -13.350  16.606  71.641  0.00  0.00     0.083 H 
ATOM     69  C34 non d ame     -13.486  13.315  72.482  0.00  0.00    -0.075 A 
ATOM     70  H52 non d ame     -14.179  15.123  73.432  0.00  0.00     0.083 H 
ATOM     71  H53 non d ame     -13.858  12.665  73.276  0.00  0.00     0.084 H 
ENDBRANCH  58  61
ENDBRANCH  57  58
ENDBRANCH  55  57
ENDBRANCH  52  55
ENDBRANCH  49  52
ENDBRANCH  47  49
BRANCH  47  72
ATOM     72  C24 non d ame     -10.371   5.914  72.248  0.00  0.00    -0.039 C 
ATOM     73  H35 non d ame     -11.147   6.105  72.990  0.00  0.00     0.036 H 
ATOM     74  H36 non d ame     -10.064   4.890  72.034  0.00  0.00     0.036 H 
BRANCH  72  75
ATOM     75  C25 non d ame      -9.063   6.712  72.714  0.00  0.00    -0.001 C 
ATOM     76  C26 non d ame      -7.756   5.715  72.677  0.00  0.00    -0.035 C 
ATOM     77  C27 non d ame      -7.119   5.788  73.871  0.00  0.00     0.085 C 
ATOM     78  H38 non d ame      -8.080   4.677  72.623  0.00  0.00     0.036 H 
ATOM     79  H39 non d ame      -7.017   6.093  71.971  0.00  0.00     0.036 H 
ATOM     80  N5  non d ame      -8.054   6.489  74.828  0.00  0.00    -0.049 N 
ATOM     81  H40 non d ame      -6.989   4.754  74.194  0.00  0.00     0.075 H 
ATOM     82  H41 non d ame      -6.249   6.419  73.698  0.00  0.00     0.075 H 
ATOM     83  C28 non d ame      -9.196   7.170  73.914  0.00  0.00     0.193 C 
ATOM     84  H42 non d ame      -8.480   5.768  75.391  0.00  0.00     0.280 HD
ATOM     85  H43 non d ame      -7.516   7.222  75.268  0.00  0.00     0.280 HD
ATOM     86  H44 non d ame      -9.185   8.242  73.719  0.00  0.00     0.129 H 
ATOM     87  H37 non d ame      -8.967   7.675  72.211  0.00  0.00     0.046 H 
BRANCH  83  88
ATOM     88  O6  non d ame     -10.490   6.895  74.454  0.00  0.00    -0.369 OA
ATOM     89  H45 non d ame     -11.065   6.570  73.757  0.00  0.00     0.212 HD
ENDBRANCH  83  88
ENDBRANCH  72  75
ENDBRANCH  47  72
ENDBRANCH  45  47
ENDBRANCH   1  43
BRANCH   1  90
ATOM     90  C16 non d ame      -8.925   9.675  68.671  0.00  0.00    -0.035 C 
ATOM     91  H21 non d ame      -9.176  10.105  67.700  0.00  0.00     0.037 H 
ATOM     92  H22 non d ame      -9.697   9.565  69.433  0.00  0.00     0.037 H 
BRANCH  90  93
ATOM     93  C17 non d ame      -7.824  10.595  69.289  0.00  0.00    -0.059 C 
ATOM     94  H23 non d ame      -8.310  11.257  70.005  0.00  0.00     0.038 H 
BRANCH  93  95
ATOM     95  C18 non d ame      -6.737   9.778  70.058  0.00  0.00    -0.073 C 
ATOM     96  H24 non d ame      -5.846   9.684  69.436  0.00  0.00     0.028 H 
ATOM     97  H25 non d ame      -6.482  10.294  70.983  0.00  0.00     0.028 H 
ATOM     98  H26 non d ame      -7.125   8.786  70.290  0.00  0.00     0.028 H 
ENDBRANCH  93  95
BRANCH  93  99
ATOM     99  C19 non d ame      -7.184  11.479  68.215  0.00  0.00    -0.073 C 
ATOM    100  H27 non d ame      -6.367  12.052  68.657  0.00  0.00     0.028 H 
ATOM    101  H28 non d ame      -6.795  10.850  67.414  0.00  0.00     0.028 H 
ATOM    102  H29 non d ame      -7.932  12.161  67.812  0.00  0.00     0.028 H 
ENDBRANCH  93  99
ENDBRANCH  90  93
ENDBRANCH   1  90
TORSDOF 26
ENDMDL
MODEL 11
REMARK VINA RESULT:      -6.5      2.719      6.974
REMARK  26 active torsions:
REMARK  status: ('A' for Active; 'I' for Inactive)
REMARK    1  A    between atoms: C2_2  and  C3_3 
REMARK    2  A    between atoms: C4_6  and  C5_7 
REMARK       I    between atoms: C5_7  and  N2_9 
REMARK    3  A    between atoms: N2_9  and  C6_10 
REMARK    4  A    between atoms: C6_10  and  C7_11 
REMARK    5  A    between atoms: C6_10  and  C8_13 
REMARK       I    between atoms: C7_11  and  N3_14 
REMARK    6  A    between atoms: N3_14  and  C9_15 
REMARK    7  A    between atoms: C9_15  and  C10_16 
REMARK    8  A    between atoms: C9_15  and  C11_18 
REMARK       I    between atoms: C10_16  and  N4_21 
REMARK    9  A    between atoms: C11_18  and  C12_19 
REMARK   10  A    between atoms: C11_18  and  C13_20 
REMARK   11  A    between atoms: N4_21  and  C14_22 
REMARK   12  A    between atoms: C14_22  and  C15_23 
REMARK   13  A    between atoms: C14_22  and  C16_25 
REMARK       I    between atoms: C15_23  and  N6_40 
REMARK   14  A    between atoms: C16_25  and  C17_26 
REMARK   15  A    between atoms: C17_26  and  C18_27 
REMARK   16  A    between atoms: C17_26  and  C19_28 
REMARK   17  A    between atoms: C20_29  and  C21_30 
REMARK   18  A    between atoms: C20_29  and  C24_33 
REMARK   19  A    between atoms: C20_29  and  N6_40 
REMARK   20  A    between atoms: C21_30  and  C22_31 
REMARK   21  A    between atoms: C22_31  and  C23_32 
REMARK   22  A    between atoms: C23_32  and  O8_43 
REMARK   23  A    between atoms: C24_33  and  C25_34 
REMARK   24  A    between atoms: C28_38  and  O6_39 
REMARK   25  A    between atoms: C29_42  and  O8_43 
REMARK   26  A    between atoms: C29_42  and  C35_49 
ROOT
ATOM      1  C14 non d ame     -11.330  12.290  67.310  0.00  0.00     0.089 C 
ATOM      2  H20 non d ame     -12.190  12.906  67.577  0.00  0.00     0.087 H 
ENDROOT
BRANCH   1   3
ATOM      3  N4  non d ame     -10.138  13.109  67.470  0.00  0.00    -0.346 N 
ATOM      4  C10 non d ame     -10.213  14.430  68.196  0.00  0.00     0.241 C 
ATOM      5  O4  non d ame     -11.245  14.813  68.640  0.00  0.00    -0.271 OA
ATOM      6  H19 non d ame      -9.270  12.768  67.083  0.00  0.00     0.163 HD
BRANCH   4   7
ATOM      7  C9  non d ame      -8.969  15.263  68.357  0.00  0.00     0.092 C 
ATOM      8  H11 non d ame      -8.780  15.425  69.418  0.00  0.00     0.088 H 
BRANCH   7   9
ATOM      9  N3  non d ame      -7.817  14.531  67.819  0.00  0.00    -0.346 N 
ATOM     10  C7  non d ame      -6.779  14.070  68.706  0.00  0.00     0.240 C 
ATOM     11  O3  non d ame      -6.852  14.279  69.856  0.00  0.00    -0.271 OA
ATOM     12  H10 non d ame      -7.740  14.344  66.830  0.00  0.00     0.163 HD
BRANCH  10  13
ATOM     13  C6  non d ame      -5.554  13.294  68.127  0.00  0.00     0.086 C 
ATOM     14  H6  non d ame      -5.140  12.573  68.832  0.00  0.00     0.086 H 
BRANCH  13  15
ATOM     15  N2  non d ame      -5.984  12.539  66.962  0.00  0.00    -0.343 N 
ATOM     16  C5  non d ame      -6.635  11.240  67.144  0.00  0.00     0.273 C 
ATOM     17  O2  non d ame      -6.806  10.810  68.231  0.00  0.00    -0.266 OA
ATOM     18  H5  non d ame      -5.831  12.912  66.036  0.00  0.00     0.163 HD
BRANCH  16  19
ATOM     19  C4  non d ame      -7.094  10.431  65.921  0.00  0.00     0.154 A 
ATOM     20  C1  non d ame      -6.266   9.834  64.917  0.00  0.00    -0.017 A 
ATOM     21  C2  non d ame      -7.167   9.212  64.025  0.00  0.00     0.077 A 
ATOM     22  H1  non d ame      -5.178   9.849  64.848  0.00  0.00     0.091 H 
ATOM     23  O1  non d ame      -8.369   9.430  64.473  0.00  0.00    -0.218 OA
ATOM     24  N1  non d ame      -8.352  10.139  65.578  0.00  0.00    -0.123 NA
BRANCH  21  25
ATOM     25  C3  non d ame      -6.798   8.429  62.772  0.00  0.00    -0.029 C 
ATOM     26  H2  non d ame      -5.732   8.205  62.784  0.00  0.00     0.036 H 
ATOM     27  H3  non d ame      -7.365   7.499  62.745  0.00  0.00     0.036 H 
ATOM     28  H4  non d ame      -7.035   9.024  61.889  0.00  0.00     0.036 H 
ENDBRANCH  21  25
ENDBRANCH  16  19
ENDBRANCH  13  15
BRANCH  13  29
ATOM     29  C8  non d ame      -4.474  14.272  67.740  0.00  0.00    -0.049 C 
ATOM     30  H7  non d ame      -3.619  14.151  68.406  0.00  0.00     0.030 H 
ATOM     31  H8  non d ame      -4.164  14.083  66.712  0.00  0.00     0.030 H 
ATOM     32  H9  non d ame      -4.858  15.289  67.823  0.00  0.00     0.030 H 
ENDBRANCH  13  29
ENDBRANCH  10  13
ENDBRANCH   7   9
BRANCH   7  33
ATOM     33  C11 non d ame      -9.138  16.602  67.582  0.00  0.00    -0.033 C 
ATOM     34  H12 non d ame     -10.001  17.118  68.000  0.00  0.00     0.042 H 
BRANCH  33  35
ATOM     35  C12 non d ame      -7.897  17.530  67.772  0.00  0.00    -0.071 C 
ATOM     36  H13 non d ame      -7.974  18.048  68.728  0.00  0.00     0.028 H 
ATOM     37  H14 non d ame      -6.989  16.929  67.757  0.00  0.00     0.028 H 
ATOM     38  H15 non d ame      -7.864  18.260  66.965  0.00  0.00     0.028 H 
ENDBRANCH  33  35
BRANCH  33  39
ATOM     39  C13 non d ame      -9.420  16.339  66.067  0.00  0.00    -0.071 C 
ATOM     40  H16 non d ame      -9.720  17.270  65.587  0.00  0.00     0.028 H 
ATOM     41  H17 non d ame      -8.516  15.959  65.590  0.00  0.00     0.028 H 
ATOM     42  H18 non d ame     -10.218  15.605  65.968  0.00  0.00     0.028 H 
ENDBRANCH  33  39
ENDBRANCH   7  33
ENDBRANCH   4   7
ENDBRANCH   1   3
BRANCH   1  43
ATOM     43  C15 non d ame     -11.197  11.040  68.226  0.00  0.00     0.240 C 
ATOM     44  O5  non d ame     -12.144  10.637  68.819  0.00  0.00    -0.271 OA
ATOM     45  N6  non d ame      -9.887  10.338  68.355  0.00  0.00    -0.355 N 
ATOM     46  H46 non d ame      -9.077  10.668  67.853  0.00  0.00     0.162 HD
BRANCH  45  47
ATOM     47  C20 non d ame      -9.777   9.150  69.229  0.00  0.00     0.013 C 
ATOM     48  H30 non d ame     -10.768   8.932  69.627  0.00  0.00     0.072 H 
BRANCH  47  49
ATOM     49  C21 non d ame      -8.819   9.448  70.360  0.00  0.00    -0.038 C 
ATOM     50  H31 non d ame      -8.171  10.244  69.996  0.00  0.00     0.036 H 
ATOM     51  H32 non d ame      -9.444   9.612  71.239  0.00  0.00     0.036 H 
BRANCH  49  52
ATOM     52  C22 non d ame      -7.898   8.255  70.696  0.00  0.00     0.018 C 
ATOM     53  H33 non d ame      -8.457   7.362  70.413  0.00  0.00     0.048 H 
ATOM     54  H34 non d ame      -6.944   8.474  70.217  0.00  0.00     0.048 H 
BRANCH  52  55
ATOM     55  C23 non d ame      -7.593   8.106  72.212  0.00  0.00     0.259 C 
ATOM     56  O7  non d ame      -6.855   8.862  72.756  0.00  0.00    -0.265 OA
BRANCH  55  57
ATOM     57  O8  non d ame      -8.195   7.045  72.944  0.00  0.00    -0.317 OA
BRANCH  57  58
ATOM     58  C29 non d ame      -9.344   7.440  73.701  0.00  0.00     0.052 C 
ATOM     59  H47 non d ame      -9.460   6.683  74.475  0.00  0.00     0.082 H 
ATOM     60  H48 non d ame      -9.171   8.480  73.977  0.00  0.00     0.082 H 
BRANCH  58  61
ATOM     61  C35 non d ame     -10.579   7.379  72.763  0.00  0.00    -0.034 A 
ATOM     62  C30 non d ame     -11.373   8.507  72.583  0.00  0.00    -0.075 A 
ATOM     63  C31 non d ame     -12.483   8.452  71.740  0.00  0.00    -0.082 A 
ATOM     64  H49 non d ame     -11.126   9.434  73.101  0.00  0.00     0.084 H 
ATOM     65  C32 non d ame     -12.799   7.262  71.080  0.00  0.00    -0.083 A 
ATOM     66  H50 non d ame     -13.101   9.338  71.599  0.00  0.00     0.083 H 
ATOM     67  C33 non d ame     -12.005   6.137  71.266  0.00  0.00    -0.082 A 
ATOM     68  H51 non d ame     -13.664   7.211  70.419  0.00  0.00     0.083 H 
ATOM     69  C34 non d ame     -10.894   6.189  72.105  0.00  0.00    -0.075 A 
ATOM     70  H52 non d ame     -12.256   5.210  70.750  0.00  0.00     0.083 H 
ATOM     71  H53 non d ame     -10.275   5.302  72.244  0.00  0.00     0.084 H 
ENDBRANCH  58  61
ENDBRANCH  57  58
ENDBRANCH  55  57
ENDBRANCH  52  55
ENDBRANCH  49  52
ENDBRANCH  47  49
BRANCH  47  72
ATOM     72  C24 non d ame      -9.258   7.962  68.421  0.00  0.00    -0.039 C 
ATOM     73  H35 non d ame      -8.972   8.373  67.452  0.00  0.00     0.036 H 
ATOM     74  H36 non d ame      -8.507   7.487  69.052  0.00  0.00     0.036 H 
BRANCH  72  75
ATOM     75  C25 non d ame     -10.406   6.877  68.155  0.00  0.00    -0.001 C 
ATOM     76  C26 non d ame      -9.802   5.362  68.356  0.00  0.00    -0.035 C 
ATOM     77  C27 non d ame     -10.109   4.621  67.264  0.00  0.00     0.085 C 
ATOM     78  H38 non d ame      -8.713   5.389  68.347  0.00  0.00     0.036 H 
ATOM     79  H39 non d ame     -10.327   4.854  69.164  0.00  0.00     0.036 H 
ATOM     80  N5  non d ame     -10.581   5.581  66.198  0.00  0.00    -0.049 N 
ATOM     81  H40 non d ame      -9.170   4.169  66.945  0.00  0.00     0.075 H 
ATOM     82  H41 non d ame     -10.943   3.989  67.567  0.00  0.00     0.075 H 
ATOM     83  C28 non d ame     -10.875   6.976  66.956  0.00  0.00     0.193 C 
ATOM     84  H42 non d ame      -9.803   5.714  65.569  0.00  0.00     0.280 HD
ATOM     85  H43 non d ame     -11.455   5.215  65.850  0.00  0.00     0.280 HD
ATOM     86  H44 non d ame     -11.898   7.287  67.168  0.00  0.00     0.129 H 
ATOM     87  H37 non d ame     -11.330   7.117  68.682  0.00  0.00     0.046 H 
BRANCH  83  88
ATOM     88  O6  non d ame     -10.288   8.062  66.236  0.00  0.00    -0.369 OA
ATOM     89  H45 non d ame     -10.555   8.016  65.315  0.00  0.00     0.212 HD
ENDBRANCH  83  88
ENDBRANCH  72  75
ENDBRANCH  47  72
ENDBRANCH  45  47
ENDBRANCH   1  43
BRANCH   1  90
ATOM     90  C16 non d ame     -11.440  11.852  65.859  0.00  0.00    -0.035 C 
ATOM     91  H21 non d ame     -10.456  11.457  65.602  0.00  0.00     0.037 H 
ATOM     92  H22 non d ame     -12.315  11.204  65.818  0.00  0.00     0.037 H 
BRANCH  90  93
ATOM     93  C17 non d ame     -11.715  13.028  64.869  0.00  0.00    -0.059 C 
ATOM     94  H23 non d ame     -10.780  13.572  64.734  0.00  0.00     0.038 H 
BRANCH  93  95
ATOM     95  C18 non d ame     -12.178  12.521  63.465  0.00  0.00    -0.073 C 
ATOM     96  H24 non d ame     -11.651  11.598  63.221  0.00  0.00     0.028 H 
ATOM     97  H25 non d ame     -13.251  12.333  63.483  0.00  0.00     0.028 H 
ATOM     98  H26 non d ame     -11.954  13.278  62.714  0.00  0.00     0.028 H 
ENDBRANCH  93  95
BRANCH  93  99
ATOM     99  C19 non d ame     -12.732  14.012  65.455  0.00  0.00    -0.073 C 
ATOM    100  H27 non d ame     -12.835  14.868  64.787  0.00  0.00     0.028 H 
ATOM    101  H28 non d ame     -13.696  13.514  65.562  0.00  0.00     0.028 H 
ATOM    102  H29 non d ame     -12.388  14.351  66.432  0.00  0.00     0.028 H 
ENDBRANCH  93  99
ENDBRANCH  90  93
ENDBRANCH   1  90
TORSDOF 26
ENDMDL
MODEL 12
REMARK VINA RESULT:      -6.5      2.798      8.010
REMARK  26 active torsions:
REMARK  status: ('A' for Active; 'I' for Inactive)
REMARK    1  A    between atoms: C2_2  and  C3_3 
REMARK    2  A    between atoms: C4_6  and  C5_7 
REMARK       I    between atoms: C5_7  and  N2_9 
REMARK    3  A    between atoms: N2_9  and  C6_10 
REMARK    4  A    between atoms: C6_10  and  C7_11 
REMARK    5  A    between atoms: C6_10  and  C8_13 
REMARK       I    between atoms: C7_11  and  N3_14 
REMARK    6  A    between atoms: N3_14  and  C9_15 
REMARK    7  A    between atoms: C9_15  and  C10_16 
REMARK    8  A    between atoms: C9_15  and  C11_18 
REMARK       I    between atoms: C10_16  and  N4_21 
REMARK    9  A    between atoms: C11_18  and  C12_19 
REMARK   10  A    between atoms: C11_18  and  C13_20 
REMARK   11  A    between atoms: N4_21  and  C14_22 
REMARK   12  A    between atoms: C14_22  and  C15_23 
REMARK   13  A    between atoms: C14_22  and  C16_25 
REMARK       I    between atoms: C15_23  and  N6_40 
REMARK   14  A    between atoms: C16_25  and  C17_26 
REMARK   15  A    between atoms: C17_26  and  C18_27 
REMARK   16  A    between atoms: C17_26  and  C19_28 
REMARK   17  A    between atoms: C20_29  and  C21_30 
REMARK   18  A    between atoms: C20_29  and  C24_33 
REMARK   19  A    between atoms: C20_29  and  N6_40 
REMARK   20  A    between atoms: C21_30  and  C22_31 
REMARK   21  A    between atoms: C22_31  and  C23_32 
REMARK   22  A    between atoms: C23_32  and  O8_43 
REMARK   23  A    between atoms: C24_33  and  C25_34 
REMARK   24  A    between atoms: C28_38  and  O6_39 
REMARK   25  A    between atoms: C29_42  and  O8_43 
REMARK   26  A    between atoms: C29_42  and  C35_49 
ROOT
ATOM      1  C14 non d ame      -7.003  13.192  68.166  0.00  0.00     0.089 C 
ATOM      2  H20 non d ame      -6.314  12.997  67.342  0.00  0.00     0.087 H 
ENDROOT
BRANCH   1   3
ATOM      3  N4  non d ame      -7.198  14.632  68.241  0.00  0.00    -0.346 N 
ATOM      4  C10 non d ame      -6.119  15.574  67.766  0.00  0.00     0.241 C 
ATOM      5  O4  non d ame      -5.100  15.147  67.330  0.00  0.00    -0.271 OA
ATOM      6  H19 non d ame      -8.071  14.975  68.617  0.00  0.00     0.163 HD
BRANCH   4   7
ATOM      7  C9  non d ame      -6.340  17.061  67.846  0.00  0.00     0.092 C 
ATOM      8  H11 non d ame      -6.053  17.518  66.899  0.00  0.00     0.088 H 
BRANCH   7   9
ATOM      9  N3  non d ame      -7.768  17.334  68.042  0.00  0.00    -0.346 N 
ATOM     10  C7  non d ame      -8.606  17.635  66.909  0.00  0.00     0.240 C 
ATOM     11  O3  non d ame      -8.150  17.664  65.831  0.00  0.00    -0.271 OA
ATOM     12  H10 non d ame      -8.176  17.313  68.966  0.00  0.00     0.163 HD
BRANCH  10  13
ATOM     13  C6  non d ame     -10.124  17.927  67.125  0.00  0.00     0.086 C 
ATOM     14  H6  non d ame     -10.756  17.453  66.373  0.00  0.00     0.086 H 
BRANCH  13  15
ATOM     15  N2  non d ame     -10.530  17.386  68.411  0.00  0.00    -0.343 N 
ATOM     16  C5  non d ame     -11.282  16.130  68.461  0.00  0.00     0.273 C 
ATOM     17  O2  non d ame     -11.559  15.566  67.461  0.00  0.00    -0.266 OA
ATOM     18  H5  non d ame     -10.291  17.877  69.261  0.00  0.00     0.163 HD
BRANCH  16  19
ATOM     19  C4  non d ame     -11.716  15.546  69.814  0.00  0.00     0.154 A 
ATOM     20  C1  non d ame     -12.581  14.427  70.036  0.00  0.00    -0.017 A 
ATOM     21  C2  non d ame     -12.658  14.301  71.441  0.00  0.00     0.077 A 
ATOM     22  H1  non d ame     -13.075  13.802  69.292  0.00  0.00     0.091 H 
ATOM     23  O1  non d ame     -11.920  15.240  71.956  0.00  0.00    -0.218 OA
ATOM     24  N1  non d ame     -11.360  15.980  71.026  0.00  0.00    -0.123 NA
BRANCH  21  25
ATOM     25  C3  non d ame     -13.457  13.256  72.209  0.00  0.00    -0.029 C 
ATOM     26  H2  non d ame     -12.835  12.378  72.382  0.00  0.00     0.036 H 
ATOM     27  H3  non d ame     -13.773  13.671  73.166  0.00  0.00     0.036 H 
ATOM     28  H4  non d ame     -14.336  12.971  71.629  0.00  0.00     0.036 H 
ENDBRANCH  21  25
ENDBRANCH  16  19
ENDBRANCH  13  15
BRANCH  13  29
ATOM     29  C8  non d ame     -10.362  19.415  67.093  0.00  0.00    -0.049 C 
ATOM     30  H7  non d ame     -10.970  19.667  66.224  0.00  0.00     0.030 H 
ATOM     31  H8  non d ame     -10.881  19.721  68.001  0.00  0.00     0.030 H 
ATOM     32  H9  non d ame      -9.405  19.935  67.028  0.00  0.00     0.030 H 
ENDBRANCH  13  29
ENDBRANCH  10  13
ENDBRANCH   7   9
BRANCH   7  33
ATOM     33  C11 non d ame      -5.534  17.641  69.045  0.00  0.00    -0.033 C 
ATOM     34  H12 non d ame      -4.492  17.710  68.738  0.00  0.00     0.042 H 
BRANCH  33  35
ATOM     35  C12 non d ame      -6.013  19.081  69.408  0.00  0.00    -0.071 C 
ATOM     36  H13 non d ame      -5.742  19.305  70.440  0.00  0.00     0.028 H 
ATOM     37  H14 non d ame      -5.538  19.801  68.743  0.00  0.00     0.028 H 
ATOM     38  H15 non d ame      -7.095  19.141  69.297  0.00  0.00     0.028 H 
ENDBRANCH  33  35
BRANCH  33  39
ATOM     39  C13 non d ame      -5.612  16.690  70.283  0.00  0.00    -0.071 C 
ATOM     40  H16 non d ame      -4.703  16.091  70.338  0.00  0.00     0.028 H 
ATOM     41  H17 non d ame      -5.710  17.285  71.192  0.00  0.00     0.028 H 
ATOM     42  H18 non d ame      -6.475  16.033  70.183  0.00  0.00     0.028 H 
ENDBRANCH  33  39
ENDBRANCH   7  33
ENDBRANCH   4   7
ENDBRANCH   1   3
BRANCH   1  43
ATOM     43  C15 non d ame      -8.386  12.516  67.948  0.00  0.00     0.240 C 
ATOM     44  O5  non d ame      -9.379  13.084  68.269  0.00  0.00    -0.271 OA
ATOM     45  N6  non d ame      -8.474  11.162  67.329  0.00  0.00    -0.355 N 
ATOM     46  H46 non d ame      -7.637  10.672  67.048  0.00  0.00     0.162 HD
BRANCH  45  47
ATOM     47  C20 non d ame      -9.797  10.533  67.127  0.00  0.00     0.013 C 
ATOM     48  H30 non d ame     -10.550  11.184  67.571  0.00  0.00     0.072 H 
BRANCH  47  49
ATOM     49  C21 non d ame      -9.817   9.183  67.806  0.00  0.00    -0.038 C 
ATOM     50  H31 non d ame      -8.773   8.895  67.923  0.00  0.00     0.036 H 
ATOM     51  H32 non d ame     -10.451   9.305  68.686  0.00  0.00     0.036 H 
BRANCH  49  52
ATOM     52  C22 non d ame     -10.478   8.087  66.941  0.00  0.00     0.018 C 
ATOM     53  H33 non d ame     -11.371   7.778  67.486  0.00  0.00     0.048 H 
ATOM     54  H34 non d ame     -10.570   8.515  65.943  0.00  0.00     0.048 H 
BRANCH  52  55
ATOM     55  C23 non d ame      -9.611   6.807  66.781  0.00  0.00     0.259 C 
ATOM     56  O7  non d ame     -10.098   5.730  66.900  0.00  0.00    -0.265 OA
BRANCH  55  57
ATOM     57  O8  non d ame      -8.222   6.937  66.504  0.00  0.00    -0.317 OA
BRANCH  57  58
ATOM     58  C29 non d ame      -7.902   6.908  65.110  0.00  0.00     0.052 C 
ATOM     59  H47 non d ame      -7.577   5.889  64.903  0.00  0.00     0.082 H 
ATOM     60  H48 non d ame      -8.774   7.316  64.599  0.00  0.00     0.082 H 
BRANCH  58  61
ATOM     61  C35 non d ame      -6.703   7.865  64.874  0.00  0.00    -0.034 A 
ATOM     62  C30 non d ame      -5.412   7.356  64.782  0.00  0.00    -0.075 A 
ATOM     63  C31 non d ame      -4.335   8.216  64.570  0.00  0.00    -0.082 A 
ATOM     64  H49 non d ame      -5.243   6.283  64.875  0.00  0.00     0.084 H 
ATOM     65  C32 non d ame      -4.553   9.591  64.453  0.00  0.00    -0.083 A 
ATOM     66  H50 non d ame      -3.325   7.813  64.495  0.00  0.00     0.083 H 
ATOM     67  C33 non d ame      -5.844  10.096  64.549  0.00  0.00    -0.082 A 
ATOM     68  H51 non d ame      -3.717  10.270  64.286  0.00  0.00     0.083 H 
ATOM     69  C34 non d ame      -6.922   9.239  64.758  0.00  0.00    -0.075 A 
ATOM     70  H52 non d ame      -6.010  11.169  64.459  0.00  0.00     0.083 H 
ATOM     71  H53 non d ame      -7.933   9.643  64.831  0.00  0.00     0.084 H 
ENDBRANCH  58  61
ENDBRANCH  57  58
ENDBRANCH  55  57
ENDBRANCH  52  55
ENDBRANCH  49  52
ENDBRANCH  47  49
BRANCH  47  72
ATOM     72  C24 non d ame     -10.062  10.357  65.633  0.00  0.00    -0.039 C 
ATOM     73  H35 non d ame      -9.135   9.960  65.219  0.00  0.00     0.036 H 
ATOM     74  H36 non d ame     -10.981   9.774  65.568  0.00  0.00     0.036 H 
BRANCH  72  75
ATOM     75  C25 non d ame     -10.340  11.760  64.911  0.00  0.00    -0.001 C 
ATOM     76  C26 non d ame     -11.736  12.416  65.480  0.00  0.00    -0.035 C 
ATOM     77  C27 non d ame     -12.522  12.750  64.428  0.00  0.00     0.085 C 
ATOM     78  H38 non d ame     -12.319  11.659  66.003  0.00  0.00     0.036 H 
ATOM     79  H39 non d ame     -11.532  13.373  65.959  0.00  0.00     0.036 H 
ATOM     80  N5  non d ame     -11.932  12.083  63.208  0.00  0.00    -0.049 N 
ATOM     81  H40 non d ame     -13.495  12.306  64.639  0.00  0.00     0.075 H 
ATOM     82  H41 non d ame     -12.425  13.829  64.324  0.00  0.00     0.075 H 
ATOM     83  C28 non d ame     -10.446  11.615  63.632  0.00  0.00     0.193 C 
ATOM     84  H42 non d ame     -12.491  11.261  63.032  0.00  0.00     0.280 HD
ATOM     85  H43 non d ame     -11.852  12.800  62.501  0.00  0.00     0.280 HD
ATOM     86  H44 non d ame      -9.572  12.171  63.296  0.00  0.00     0.129 H 
ATOM     87  H37 non d ame      -9.458  12.401  64.902  0.00  0.00     0.046 H 
BRANCH  83  88
ATOM     88  O6  non d ame     -10.219  10.265  63.223  0.00  0.00    -0.369 OA
ATOM     89  H45 non d ame     -10.566  10.137  62.336  0.00  0.00     0.212 HD
ENDBRANCH  83  88
ENDBRANCH  72  75
ENDBRANCH  47  72
ENDBRANCH  45  47
ENDBRANCH   1  43
BRANCH   1  90
ATOM     90  C16 non d ame      -6.396  12.705  69.471  0.00  0.00    -0.035 C 
ATOM     91  H21 non d ame      -5.740  13.512  69.803  0.00  0.00     0.037 H 
ATOM     92  H22 non d ame      -7.241  12.403  70.088  0.00  0.00     0.037 H 
BRANCH  90  93
ATOM     93  C17 non d ame      -5.493  11.441  69.310  0.00  0.00    -0.059 C 
ATOM     94  H23 non d ame      -6.146  10.570  69.284  0.00  0.00     0.038 H 
BRANCH  93  95
ATOM     95  C18 non d ame      -4.677  11.465  67.978  0.00  0.00    -0.073 C 
ATOM     96  H24 non d ame      -4.079  10.557  67.902  0.00  0.00     0.028 H 
ATOM     97  H25 non d ame      -5.363  11.521  67.133  0.00  0.00     0.028 H 
ATOM     98  H26 non d ame      -4.019  12.335  67.971  0.00  0.00     0.028 H 
ENDBRANCH  93  95
BRANCH  93  99
ATOM     99  C19 non d ame      -4.563  11.275  70.515  0.00  0.00    -0.073 C 
ATOM    100  H27 non d ame      -4.887  11.939  71.318  0.00  0.00     0.028 H 
ATOM    101  H28 non d ame      -4.599  10.242  70.861  0.00  0.00     0.028 H 
ATOM    102  H29 non d ame      -3.543  11.525  70.225  0.00  0.00     0.028 H 
ENDBRANCH  93  99
ENDBRANCH  90  93
ENDBRANCH   1  90
TORSDOF 26
ENDMDL
MODEL 13
REMARK VINA RESULT:      -6.5      2.142      3.040
REMARK  26 active torsions:
REMARK  status: ('A' for Active; 'I' for Inactive)
REMARK    1  A    between atoms: C2_2  and  C3_3 
REMARK    2  A    between atoms: C4_6  and  C5_7 
REMARK       I    between atoms: C5_7  and  N2_9 
REMARK    3  A    between atoms: N2_9  and  C6_10 
REMARK    4  A    between atoms: C6_10  and  C7_11 
REMARK    5  A    between atoms: C6_10  and  C8_13 
REMARK       I    between atoms: C7_11  and  N3_14 
REMARK    6  A    between atoms: N3_14  and  C9_15 
REMARK    7  A    between atoms: C9_15  and  C10_16 
REMARK    8  A    between atoms: C9_15  and  C11_18 
REMARK       I    between atoms: C10_16  and  N4_21 
REMARK    9  A    between atoms: C11_18  and  C12_19 
REMARK   10  A    between atoms: C11_18  and  C13_20 
REMARK   11  A    between atoms: N4_21  and  C14_22 
REMARK   12  A    between atoms: C14_22  and  C15_23 
REMARK   13  A    between atoms: C14_22  and  C16_25 
REMARK       I    between atoms: C15_23  and  N6_40 
REMARK   14  A    between atoms: C16_25  and  C17_26 
REMARK   15  A    between atoms: C17_26  and  C18_27 
REMARK   16  A    between atoms: C17_26  and  C19_28 
REMARK   17  A    between atoms: C20_29  and  C21_30 
REMARK   18  A    between atoms: C20_29  and  C24_33 
REMARK   19  A    between atoms: C20_29  and  N6_40 
REMARK   20  A    between atoms: C21_30  and  C22_31 
REMARK   21  A    between atoms: C22_31  and  C23_32 
REMARK   22  A    between atoms: C23_32  and  O8_43 
REMARK   23  A    between atoms: C24_33  and  C25_34 
REMARK   24  A    between atoms: C28_38  and  O6_39 
REMARK   25  A    between atoms: C29_42  and  O8_43 
REMARK   26  A    between atoms: C29_42  and  C35_49 
ROOT
ATOM      1  C14 non d ame      -8.634   5.846  65.399  0.00  0.00     0.089 C 
ATOM      2  H20 non d ame      -8.847   5.303  64.478  0.00  0.00     0.087 H 
ENDROOT
BRANCH   1   3
ATOM      3  N4  non d ame      -8.540   7.259  65.063  0.00  0.00    -0.346 N 
ATOM      4  C10 non d ame      -8.317   7.689  63.634  0.00  0.00     0.241 C 
ATOM      5  O4  non d ame      -8.213   6.878  62.773  0.00  0.00    -0.271 OA
ATOM      6  H19 non d ame      -8.628   7.933  65.810  0.00  0.00     0.163 HD
BRANCH   4   7
ATOM      7  C9  non d ame      -8.228   9.155  63.303  0.00  0.00     0.092 C 
ATOM      8  H11 non d ame      -8.345   9.288  62.227  0.00  0.00     0.088 H 
BRANCH   7   9
ATOM      9  N3  non d ame      -9.332   9.871  63.950  0.00  0.00    -0.346 N 
ATOM     10  C7  non d ame      -9.835  11.092  63.373  0.00  0.00     0.240 C 
ATOM     11  O3  non d ame      -9.364  11.516  62.389  0.00  0.00    -0.271 OA
ATOM     12  H10 non d ame      -9.749   9.518  64.800  0.00  0.00     0.163 HD
BRANCH  10  13
ATOM     13  C6  non d ame     -11.009  11.851  64.069  0.00  0.00     0.086 C 
ATOM     14  H6  non d ame     -11.243  11.452  65.056  0.00  0.00     0.086 H 
BRANCH  13  15
ATOM     15  N2  non d ame     -10.624  13.239  64.262  0.00  0.00    -0.343 N 
ATOM     16  C5  non d ame     -11.461  14.113  65.087  0.00  0.00     0.273 C 
ATOM     17  O2  non d ame     -12.444  13.690  65.588  0.00  0.00    -0.266 OA
ATOM     18  H5  non d ame      -9.783  13.593  63.827  0.00  0.00     0.163 HD
BRANCH  16  19
ATOM     19  C4  non d ame     -11.065  15.582  65.300  0.00  0.00     0.154 A 
ATOM     20  C1  non d ame     -10.429  16.148  66.450  0.00  0.00    -0.017 A 
ATOM     21  C2  non d ame     -10.286  17.520  66.147  0.00  0.00     0.077 A 
ATOM     22  H1  non d ame     -10.119  15.641  67.364  0.00  0.00     0.091 H 
ATOM     23  O1  non d ame     -10.781  17.709  64.960  0.00  0.00    -0.218 OA
ATOM     24  N1  non d ame     -11.243  16.592  64.445  0.00  0.00    -0.123 NA
BRANCH  21  25
ATOM     25  C3  non d ame      -9.663  18.581  67.045  0.00  0.00    -0.029 C 
ATOM     26  H2  non d ame      -8.590  18.404  67.128  0.00  0.00     0.036 H 
ATOM     27  H3  non d ame      -9.835  19.568  66.616  0.00  0.00     0.036 H 
ATOM     28  H4  non d ame     -10.117  18.531  68.036  0.00  0.00     0.036 H 
ENDBRANCH  21  25
ENDBRANCH  16  19
ENDBRANCH  13  15
BRANCH  13  29
ATOM     29  C8  non d ame     -12.243  11.773  63.206  0.00  0.00    -0.049 C 
ATOM     30  H7  non d ame     -12.981  12.491  63.563  0.00  0.00     0.030 H 
ATOM     31  H8  non d ame     -11.981  12.002  62.174  0.00  0.00     0.030 H 
ATOM     32  H9  non d ame     -12.661  10.767  63.261  0.00  0.00     0.030 H 
ENDBRANCH  13  29
ENDBRANCH  10  13
ENDBRANCH   7   9
BRANCH   7  33
ATOM     33  C11 non d ame      -6.873   9.722  63.819  0.00  0.00    -0.033 C 
ATOM     34  H12 non d ame      -6.737  10.706  63.373  0.00  0.00     0.042 H 
BRANCH  33  35
ATOM     35  C12 non d ame      -6.887   9.905  65.369  0.00  0.00    -0.071 C 
ATOM     36  H13 non d ame      -5.862   9.934  65.740  0.00  0.00     0.028 H 
ATOM     37  H14 non d ame      -7.390  10.838  65.620  0.00  0.00     0.028 H 
ATOM     38  H15 non d ame      -7.416   9.070  65.827  0.00  0.00     0.028 H 
ENDBRANCH  33  35
BRANCH  33  39
ATOM     39  C13 non d ame      -5.681   8.818  63.367  0.00  0.00    -0.071 C 
ATOM     40  H16 non d ame      -5.135   8.471  64.244  0.00  0.00     0.028 H 
ATOM     41  H17 non d ame      -6.065   7.959  62.814  0.00  0.00     0.028 H 
ATOM     42  H18 non d ame      -5.012   9.392  62.726  0.00  0.00     0.028 H 
ENDBRANCH  33  39
ENDBRANCH   7  33
ENDBRANCH   4   7
ENDBRANCH   1   3
BRANCH   1  43
ATOM     43  C15 non d ame      -9.755   5.664  66.462  0.00  0.00     0.240 C 
ATOM     44  O5  non d ame     -10.796   5.185  66.147  0.00  0.00    -0.271 OA
ATOM     45  N6  non d ame      -9.526   6.079  67.876  0.00  0.00    -0.355 N 
ATOM     46  H46 non d ame      -8.644   6.483  68.155  0.00  0.00     0.162 HD
BRANCH  45  47
ATOM     47  C20 non d ame     -10.602   5.899  68.874  0.00  0.00     0.013 C 
ATOM     48  H30 non d ame     -11.471   5.486  68.362  0.00  0.00     0.072 H 
BRANCH  47  49
ATOM     49  C21 non d ame     -10.949   7.239  69.482  0.00  0.00    -0.038 C 
ATOM     50  H31 non d ame     -10.218   7.941  69.085  0.00  0.00     0.036 H 
ATOM     51  H32 non d ame     -12.011   7.386  69.283  0.00  0.00     0.036 H 
BRANCH  49  52
ATOM     52  C22 non d ame     -10.787   7.260  71.018  0.00  0.00     0.018 C 
ATOM     53  H33 non d ame     -11.007   6.246  71.353  0.00  0.00     0.048 H 
ATOM     54  H34 non d ame      -9.805   7.693  71.205  0.00  0.00     0.048 H 
BRANCH  52  55
ATOM     55  C23 non d ame     -11.807   8.181  71.744  0.00  0.00     0.259 C 
ATOM     56  O7  non d ame     -11.978   8.085  72.916  0.00  0.00    -0.265 OA
BRANCH  55  57
ATOM     57  O8  non d ame     -12.546   9.133  70.988  0.00  0.00    -0.317 OA
BRANCH  57  58
ATOM     58  C29 non d ame     -12.795  10.359  71.682  0.00  0.00     0.052 C 
ATOM     59  H47 non d ame     -13.872  10.398  71.836  0.00  0.00     0.082 H 
ATOM     60  H48 non d ame     -12.121  10.355  72.538  0.00  0.00     0.082 H 
BRANCH  58  61
ATOM     61  C35 non d ame     -12.389  11.529  70.745  0.00  0.00    -0.034 A 
ATOM     62  C30 non d ame     -12.723  12.837  71.078  0.00  0.00    -0.075 A 
ATOM     63  C31 non d ame     -12.358  13.887  70.237  0.00  0.00    -0.082 A 
ATOM     64  H49 non d ame     -13.270  13.040  71.999  0.00  0.00     0.084 H 
ATOM     65  C32 non d ame     -11.660  13.624  69.056  0.00  0.00    -0.083 A 
ATOM     66  H50 non d ame     -12.619  14.912  70.503  0.00  0.00     0.083 H 
ATOM     67  C33 non d ame     -11.331  12.316  68.725  0.00  0.00    -0.082 A 
ATOM     68  H51 non d ame     -11.370  14.439  68.392  0.00  0.00     0.083 H 
ATOM     69  C34 non d ame     -11.692  11.264  69.565  0.00  0.00    -0.075 A 
ATOM     70  H52 non d ame     -10.787  12.114  67.801  0.00  0.00     0.083 H 
ATOM     71  H53 non d ame     -11.429  10.240  69.298  0.00  0.00     0.084 H 
ENDBRANCH  58  61
ENDBRANCH  57  58
ENDBRANCH  55  57
ENDBRANCH  52  55
ENDBRANCH  49  52
ENDBRANCH  47  49
BRANCH  47  72
ATOM     72  C24 non d ame     -10.131   4.947  69.972  0.00  0.00    -0.039 C 
ATOM     73  H35 non d ame      -9.809   5.588  70.793  0.00  0.00     0.036 H 
ATOM     74  H36 non d ame     -10.953   4.246  70.120  0.00  0.00     0.036 H 
BRANCH  72  75
ATOM     75  C25 non d ame      -8.858   4.092  69.511  0.00  0.00    -0.001 C 
ATOM     76  C26 non d ame      -9.348   2.662  68.864  0.00  0.00    -0.035 C 
ATOM     77  C27 non d ame      -8.670   1.655  69.466  0.00  0.00     0.085 C 
ATOM     78  H38 non d ame     -10.386   2.466  69.132  0.00  0.00     0.036 H 
ATOM     79  H39 non d ame      -9.033   2.595  67.823  0.00  0.00     0.036 H 
ATOM     80  N5  non d ame      -8.004   2.241  70.688  0.00  0.00    -0.049 N 
ATOM     81  H40 non d ame      -9.431   0.941  69.784  0.00  0.00     0.075 H 
ATOM     82  H41 non d ame      -7.903   1.355  68.754  0.00  0.00     0.075 H 
ATOM     83  C28 non d ame      -8.074   3.844  70.507  0.00  0.00     0.193 C 
ATOM     84  H42 non d ame      -8.577   1.981  71.478  0.00  0.00     0.280 HD
ATOM     85  H43 non d ame      -7.036   1.956  70.651  0.00  0.00     0.280 HD
ATOM     86  H44 non d ame      -7.191   4.407  70.210  0.00  0.00     0.129 H 
ATOM     87  H37 non d ame      -8.153   4.684  68.928  0.00  0.00     0.046 H 
BRANCH  83  88
ATOM     88  O6  non d ame      -8.529   4.457  71.715  0.00  0.00    -0.369 OA
ATOM     89  H45 non d ame      -9.413   4.808  71.582  0.00  0.00     0.212 HD
ENDBRANCH  83  88
ENDBRANCH  72  75
ENDBRANCH  47  72
ENDBRANCH  45  47
ENDBRANCH   1  43
BRANCH   1  90
ATOM     90  C16 non d ame      -7.305   5.384  65.973  0.00  0.00    -0.035 C 
ATOM     91  H21 non d ame      -7.541   4.976  66.957  0.00  0.00     0.037 H 
ATOM     92  H22 non d ame      -6.868   4.741  65.209  0.00  0.00     0.037 H 
BRANCH  90  93
ATOM     93  C17 non d ame      -6.286   6.544  66.210  0.00  0.00    -0.059 C 
ATOM     94  H23 non d ame      -6.654   7.420  65.676  0.00  0.00     0.038 H 
BRANCH  93  95
ATOM     95  C18 non d ame      -6.165   6.923  67.720  0.00  0.00    -0.073 C 
ATOM     96  H24 non d ame      -5.530   7.803  67.824  0.00  0.00     0.028 H 
ATOM     97  H25 non d ame      -7.155   7.141  68.120  0.00  0.00     0.028 H 
ATOM     98  H26 non d ame      -5.726   6.090  68.270  0.00  0.00     0.028 H 
ENDBRANCH  93  95
BRANCH  93  99
ATOM     99  C19 non d ame      -4.915   6.197  65.624  0.00  0.00    -0.073 C 
ATOM    100  H27 non d ame      -4.993   5.283  65.034  0.00  0.00     0.028 H 
ATOM    101  H28 non d ame      -4.576   7.014  64.986  0.00  0.00     0.028 H 
ATOM    102  H29 non d ame      -4.200   6.049  66.433  0.00  0.00     0.028 H 
ENDBRANCH  93  99
ENDBRANCH  90  93
ENDBRANCH   1  90
TORSDOF 26
ENDMDL
MODEL 14
REMARK VINA RESULT:      -6.5      2.508      6.002
REMARK  26 active torsions:
REMARK  status: ('A' for Active; 'I' for Inactive)
REMARK    1  A    between atoms: C2_2  and  C3_3 
REMARK    2  A    between atoms: C4_6  and  C5_7 
REMARK       I    between atoms: C5_7  and  N2_9 
REMARK    3  A    between atoms: N2_9  and  C6_10 
REMARK    4  A    between atoms: C6_10  and  C7_11 
REMARK    5  A    between atoms: C6_10  and  C8_13 
REMARK       I    between atoms: C7_11  and  N3_14 
REMARK    6  A    between atoms: N3_14  and  C9_15 
REMARK    7  A    between atoms: C9_15  and  C10_16 
REMARK    8  A    between atoms: C9_15  and  C11_18 
REMARK       I    between atoms: C10_16  and  N4_21 
REMARK    9  A    between atoms: C11_18  and  C12_19 
REMARK   10  A    between atoms: C11_18  and  C13_20 
REMARK   11  A    between atoms: N4_21  and  C14_22 
REMARK   12  A    between atoms: C14_22  and  C15_23 
REMARK   13  A    between atoms: C14_22  and  C16_25 
REMARK       I    between atoms: C15_23  and  N6_40 
REMARK   14  A    between atoms: C16_25  and  C17_26 
REMARK   15  A    between atoms: C17_26  and  C18_27 
REMARK   16  A    between atoms: C17_26  and  C19_28 
REMARK   17  A    between atoms: C20_29  and  C21_30 
REMARK   18  A    between atoms: C20_29  and  C24_33 
REMARK   19  A    between atoms: C20_29  and  N6_40 
REMARK   20  A    between atoms: C21_30  and  C22_31 
REMARK   21  A    between atoms: C22_31  and  C23_32 
REMARK   22  A    between atoms: C23_32  and  O8_43 
REMARK   23  A    between atoms: C24_33  and  C25_34 
REMARK   24  A    between atoms: C28_38  and  O6_39 
REMARK   25  A    between atoms: C29_42  and  O8_43 
REMARK   26  A    between atoms: C29_42  and  C35_49 
ROOT
ATOM      1  C14 non d ame      -6.494  10.474  67.355  0.00  0.00     0.089 C 
ATOM      2  H20 non d ame      -5.507  10.228  66.962  0.00  0.00     0.087 H 
ENDROOT
BRANCH   1   3
ATOM      3  N4  non d ame      -7.453  10.288  66.277  0.00  0.00    -0.346 N 
ATOM      4  C10 non d ame      -6.989  10.244  64.842  0.00  0.00     0.241 C 
ATOM      5  O4  non d ame      -5.837  10.364  64.581  0.00  0.00    -0.271 OA
ATOM      6  H19 non d ame      -8.429  10.191  66.519  0.00  0.00     0.163 HD
BRANCH   4   7
ATOM      7  C9  non d ame      -7.994  10.046  63.739  0.00  0.00     0.092 C 
ATOM      8  H11 non d ame      -8.516   9.101  63.894  0.00  0.00     0.088 H 
BRANCH   7   9
ATOM      9  N3  non d ame      -9.001  11.111  63.798  0.00  0.00    -0.346 N 
ATOM     10  C7  non d ame     -10.218  10.911  64.543  0.00  0.00     0.240 C 
ATOM     11  O3  non d ame     -10.407   9.900  65.102  0.00  0.00    -0.271 OA
ATOM     12  H10 non d ame      -8.853  11.989  63.320  0.00  0.00     0.163 HD
BRANCH  10  13
ATOM     13  C6  non d ame     -11.287  12.048  64.599  0.00  0.00     0.086 C 
ATOM     14  H6  non d ame     -12.022  11.897  65.390  0.00  0.00     0.086 H 
BRANCH  13  15
ATOM     15  N2  non d ame     -10.620  13.308  64.884  0.00  0.00    -0.343 N 
ATOM     16  C5  non d ame     -11.283  14.299  65.735  0.00  0.00     0.273 C 
ATOM     17  O2  non d ame     -12.354  14.074  66.181  0.00  0.00    -0.266 OA
ATOM     18  H5  non d ame      -9.706  13.492  64.496  0.00  0.00     0.163 HD
BRANCH  16  19
ATOM     19  C4  non d ame     -10.589  15.634  66.045  0.00  0.00     0.154 A 
ATOM     20  C1  non d ame      -9.939  16.009  67.264  0.00  0.00    -0.017 A 
ATOM     21  C2  non d ame      -9.470  17.321  67.037  0.00  0.00     0.077 A 
ATOM     22  H1  non d ame      -9.825  15.418  68.173  0.00  0.00     0.091 H 
ATOM     23  O1  non d ame      -9.814  17.652  65.826  0.00  0.00    -0.218 OA
ATOM     24  N1  non d ame     -10.468  16.684  65.227  0.00  0.00    -0.123 NA
BRANCH  21  25
ATOM     25  C3  non d ame      -8.702  18.188  68.026  0.00  0.00    -0.029 C 
ATOM     26  H2  non d ame      -8.326  19.075  67.517  0.00  0.00     0.036 H 
ATOM     27  H3  non d ame      -9.365  18.487  68.837  0.00  0.00     0.036 H 
ATOM     28  H4  non d ame      -7.864  17.620  68.433  0.00  0.00     0.036 H 
ENDBRANCH  21  25
ENDBRANCH  16  19
ENDBRANCH  13  15
BRANCH  13  29
ATOM     29  C8  non d ame     -12.005  12.131  63.277  0.00  0.00    -0.049 C 
ATOM     30  H7  non d ame     -12.537  13.081  63.212  0.00  0.00     0.030 H 
ATOM     31  H8  non d ame     -11.282  12.064  62.464  0.00  0.00     0.030 H 
ATOM     32  H9  non d ame     -12.719  11.311  63.198  0.00  0.00     0.030 H 
ENDBRANCH  13  29
ENDBRANCH  10  13
ENDBRANCH   7   9
BRANCH   7  33
ATOM     33  C11 non d ame      -7.270  10.095  62.362  0.00  0.00    -0.033 C 
ATOM     34  H12 non d ame      -6.274  10.503  62.529  0.00  0.00     0.042 H 
BRANCH  33  35
ATOM     35  C12 non d ame      -7.097   8.666  61.759  0.00  0.00    -0.071 C 
ATOM     36  H13 non d ame      -6.189   8.632  61.158  0.00  0.00     0.028 H 
ATOM     37  H14 non d ame      -7.026   7.937  62.566  0.00  0.00     0.028 H 
ATOM     38  H15 non d ame      -7.957   8.432  61.132  0.00  0.00     0.028 H 
ENDBRANCH  33  35
BRANCH  33  39
ATOM     39  C13 non d ame      -8.020  11.040  61.369  0.00  0.00    -0.071 C 
ATOM     40  H16 non d ame      -8.808  11.573  61.900  0.00  0.00     0.028 H 
ATOM     41  H17 non d ame      -7.315  11.759  60.949  0.00  0.00     0.028 H 
ATOM     42  H18 non d ame      -8.458  10.450  60.565  0.00  0.00     0.028 H 
ENDBRANCH  33  39
ENDBRANCH   7  33
ENDBRANCH   4   7
ENDBRANCH   1   3
BRANCH   1  43
ATOM     43  C15 non d ame      -6.900   9.554  68.542  0.00  0.00     0.240 C 
ATOM     44  O5  non d ame      -6.103   9.285  69.381  0.00  0.00    -0.271 OA
ATOM     45  N6  non d ame      -8.287   9.016  68.637  0.00  0.00    -0.355 N 
ATOM     46  H46 non d ame      -8.974   9.241  67.932  0.00  0.00     0.162 HD
BRANCH  45  47
ATOM     47  C20 non d ame      -8.658   8.143  69.772  0.00  0.00     0.013 C 
ATOM     48  H30 non d ame      -8.200   8.552  70.673  0.00  0.00     0.072 H 
BRANCH  47  49
ATOM     49  C21 non d ame      -8.140   6.746  69.518  0.00  0.00    -0.038 C 
ATOM     50  H31 non d ame      -7.543   6.813  68.609  0.00  0.00     0.036 H 
ATOM     51  H32 non d ame      -7.676   6.429  70.453  0.00  0.00     0.036 H 
BRANCH  49  52
ATOM     52  C22 non d ame      -9.268   5.733  69.226  0.00  0.00     0.018 C 
ATOM     53  H33 non d ame      -9.219   4.995  70.027  0.00  0.00     0.048 H 
ATOM     54  H34 non d ame     -10.171   6.328  69.088  0.00  0.00     0.048 H 
BRANCH  52  55
ATOM     55  C23 non d ame      -9.071   4.940  67.903  0.00  0.00     0.259 C 
ATOM     56  O7  non d ame      -8.398   3.961  67.882  0.00  0.00    -0.265 OA
BRANCH  55  57
ATOM     57  O8  non d ame      -9.694   5.407  66.712  0.00  0.00    -0.317 OA
BRANCH  57  58
ATOM     58  C29 non d ame      -9.198   6.668  66.252  0.00  0.00     0.052 C 
ATOM     59  H47 non d ame      -9.989   7.087  65.633  0.00  0.00     0.082 H 
ATOM     60  H48 non d ame      -8.866   7.197  67.145  0.00  0.00     0.082 H 
BRANCH  58  61
ATOM     61  C35 non d ame      -7.961   6.397  65.354  0.00  0.00    -0.034 A 
ATOM     62  C30 non d ame      -8.118   5.769  64.123  0.00  0.00    -0.075 A 
ATOM     63  C31 non d ame      -7.007   5.526  63.317  0.00  0.00    -0.082 A 
ATOM     64  H49 non d ame      -9.111   5.468  63.789  0.00  0.00     0.084 H 
ATOM     65  C32 non d ame      -5.734   5.910  63.748  0.00  0.00    -0.083 A 
ATOM     66  H50 non d ame      -7.133   5.036  62.351  0.00  0.00     0.083 H 
ATOM     67  C33 non d ame      -5.582   6.533  64.980  0.00  0.00    -0.082 A 
ATOM     68  H51 non d ame      -4.861   5.724  63.124  0.00  0.00     0.083 H 
ATOM     69  C34 non d ame      -6.691   6.780  65.787  0.00  0.00    -0.075 A 
ATOM     70  H52 non d ame      -4.587   6.830  65.314  0.00  0.00     0.083 H 
ATOM     71  H53 non d ame      -6.563   7.271  66.753  0.00  0.00     0.084 H 
ENDBRANCH  58  61
ENDBRANCH  57  58
ENDBRANCH  55  57
ENDBRANCH  52  55
ENDBRANCH  49  52
ENDBRANCH  47  49
BRANCH  47  72
ATOM     72  C24 non d ame     -10.177   8.106  69.918  0.00  0.00    -0.039 C 
ATOM     73  H35 non d ame     -10.566   8.061  68.901  0.00  0.00     0.036 H 
ATOM     74  H36 non d ame     -10.382   7.292  70.615  0.00  0.00     0.036 H 
BRANCH  72  75
ATOM     75  C25 non d ame     -10.743   9.450  70.581  0.00  0.00    -0.001 C 
ATOM     76  C26 non d ame     -11.744   9.078  71.832  0.00  0.00    -0.035 C 
ATOM     77  C27 non d ame     -12.913   9.744  71.668  0.00  0.00     0.085 C 
ATOM     78  H38 non d ame     -12.038   8.031  71.778  0.00  0.00     0.036 H 
ATOM     79  H39 non d ame     -11.348   9.485  72.762  0.00  0.00     0.036 H 
ATOM     80  N5  non d ame     -12.922  10.276  70.255  0.00  0.00    -0.049 N 
ATOM     81  H40 non d ame     -13.694   8.990  71.769  0.00  0.00     0.075 H 
ATOM     82  H41 non d ame     -12.870  10.582  72.362  0.00  0.00     0.075 H 
ATOM     83  C28 non d ame     -11.403  10.154  69.723  0.00  0.00     0.193 C 
ATOM     84  H42 non d ame     -13.503   9.649  69.717  0.00  0.00     0.280 HD
ATOM     85  H43 non d ame     -13.162  11.255  70.320  0.00  0.00     0.280 HD
ATOM     86  H44 non d ame     -10.766  11.035  69.658  0.00  0.00     0.129 H 
ATOM     87  H37 non d ame      -9.955  10.177  70.777  0.00  0.00     0.046 H 
BRANCH  83  88
ATOM     88  O6  non d ame     -11.382   9.571  68.419  0.00  0.00    -0.369 OA
ATOM     89  H45 non d ame     -10.482   9.319  68.196  0.00  0.00     0.212 HD
ENDBRANCH  83  88
ENDBRANCH  72  75
ENDBRANCH  47  72
ENDBRANCH  45  47
ENDBRANCH   1  43
BRANCH   1  90
ATOM     90  C16 non d ame      -6.524  11.927  67.800  0.00  0.00    -0.035 C 
ATOM     91  H21 non d ame      -6.821  12.493  66.916  0.00  0.00     0.037 H 
ATOM     92  H22 non d ame      -7.149  11.942  68.693  0.00  0.00     0.037 H 
BRANCH  90  93
ATOM     93  C17 non d ame      -5.128  12.480  68.229  0.00  0.00    -0.059 C 
ATOM     94  H23 non d ame      -4.926  12.121  69.238  0.00  0.00     0.038 H 
BRANCH  93  95
ATOM     95  C18 non d ame      -3.979  11.966  67.303  0.00  0.00    -0.073 C 
ATOM     96  H24 non d ame      -3.677  12.763  66.623  0.00  0.00     0.028 H 
ATOM     97  H25 non d ame      -3.127  11.667  67.913  0.00  0.00     0.028 H 
ATOM     98  H26 non d ame      -4.333  11.110  66.728  0.00  0.00     0.028 H 
ENDBRANCH  93  95
BRANCH  93  99
ATOM     99  C19 non d ame      -5.139  14.010  68.285  0.00  0.00    -0.073 C 
ATOM    100  H27 non d ame      -5.789  14.339  69.096  0.00  0.00     0.028 H 
ATOM    101  H28 non d ame      -4.126  14.373  68.460  0.00  0.00     0.028 H 
ATOM    102  H29 non d ame      -5.507  14.406  67.339  0.00  0.00     0.028 H 
ENDBRANCH  93  99
ENDBRANCH  90  93
ENDBRANCH   1  90
TORSDOF 26
ENDMDL
MODEL 15
REMARK VINA RESULT:      -6.4      2.765      7.612
REMARK  26 active torsions:
REMARK  status: ('A' for Active; 'I' for Inactive)
REMARK    1  A    between atoms: C2_2  and  C3_3 
REMARK    2  A    between atoms: C4_6  and  C5_7 
REMARK       I    between atoms: C5_7  and  N2_9 
REMARK    3  A    between atoms: N2_9  and  C6_10 
REMARK    4  A    between atoms: C6_10  and  C7_11 
REMARK    5  A    between atoms: C6_10  and  C8_13 
REMARK       I    between atoms: C7_11  and  N3_14 
REMARK    6  A    between atoms: N3_14  and  C9_15 
REMARK    7  A    between atoms: C9_15  and  C10_16 
REMARK    8  A    between atoms: C9_15  and  C11_18 
REMARK       I    between atoms: C10_16  and  N4_21 
REMARK    9  A    between atoms: C11_18  and  C12_19 
REMARK   10  A    between atoms: C11_18  and  C13_20 
REMARK   11  A    between atoms: N4_21  and  C14_22 
REMARK   12  A    between atoms: C14_22  and  C15_23 
REMARK   13  A    between atoms: C14_22  and  C16_25 
REMARK       I    between atoms: C15_23  and  N6_40 
REMARK   14  A    between atoms: C16_25  and  C17_26 
REMARK   15  A    between atoms: C17_26  and  C18_27 
REMARK   16  A    between atoms: C17_26  and  C19_28 
REMARK   17  A    between atoms: C20_29  and  C21_30 
REMARK   18  A    between atoms: C20_29  and  C24_33 
REMARK   19  A    between atoms: C20_29  and  N6_40 
REMARK   20  A    between atoms: C21_30  and  C22_31 
REMARK   21  A    between atoms: C22_31  and  C23_32 
REMARK   22  A    between atoms: C23_32  and  O8_43 
REMARK   23  A    between atoms: C24_33  and  C25_34 
REMARK   24  A    between atoms: C28_38  and  O6_39 
REMARK   25  A    between atoms: C29_42  and  O8_43 
REMARK   26  A    between atoms: C29_42  and  C35_49 
ROOT
ATOM      1  C14 non d ame      -7.084  13.128  68.223  0.00  0.00     0.089 C 
ATOM      2  H20 non d ame      -6.336  12.891  67.466  0.00  0.00     0.087 H 
ENDROOT
BRANCH   1   3
ATOM      3  N4  non d ame      -7.272  14.571  68.217  0.00  0.00    -0.346 N 
ATOM      4  C10 non d ame      -6.169  15.480  67.733  0.00  0.00     0.241 C 
ATOM      5  O4  non d ame      -5.139  15.026  67.356  0.00  0.00    -0.271 OA
ATOM      6  H19 non d ame      -8.154  14.938  68.543  0.00  0.00     0.163 HD
BRANCH   4   7
ATOM      7  C9  non d ame      -6.382  16.971  67.728  0.00  0.00     0.092 C 
ATOM      8  H11 non d ame      -6.158  17.362  66.735  0.00  0.00     0.088 H 
BRANCH   7   9
ATOM      9  N3  non d ame      -7.793  17.265  67.999  0.00  0.00    -0.346 N 
ATOM     10  C7  non d ame      -8.667  17.662  66.924  0.00  0.00     0.240 C 
ATOM     11  O3  non d ame      -8.252  17.752  65.833  0.00  0.00    -0.271 OA
ATOM     12  H10 non d ame      -8.165  17.193  68.936  0.00  0.00     0.163 HD
BRANCH  10  13
ATOM     13  C6  non d ame     -10.166  17.976  67.220  0.00  0.00     0.086 C 
ATOM     14  H6  non d ame     -10.843  17.535  66.488  0.00  0.00     0.086 H 
BRANCH  13  15
ATOM     15  N2  non d ame     -10.521  17.406  68.510  0.00  0.00    -0.343 N 
ATOM     16  C5  non d ame     -11.268  16.147  68.561  0.00  0.00     0.273 C 
ATOM     17  O2  non d ame     -11.582  15.603  67.560  0.00  0.00    -0.266 OA
ATOM     18  H5  non d ame     -10.252  17.879  69.360  0.00  0.00     0.163 HD
BRANCH  16  19
ATOM     19  C4  non d ame     -11.649  15.533  69.917  0.00  0.00     0.154 A 
ATOM     20  C1  non d ame     -11.720  16.202  71.181  0.00  0.00    -0.017 A 
ATOM     21  C2  non d ame     -12.112  15.203  72.099  0.00  0.00     0.077 A 
ATOM     22  H1  non d ame     -11.520  17.252  71.397  0.00  0.00     0.091 H 
ATOM     23  O1  non d ame     -12.248  14.095  71.432  0.00  0.00    -0.218 OA
ATOM     24  N1  non d ame     -11.983  14.262  70.157  0.00  0.00    -0.123 NA
BRANCH  21  25
ATOM     25  C3  non d ame     -12.335  15.391  73.594  0.00  0.00    -0.029 C 
ATOM     26  H2  non d ame     -13.375  15.661  73.776  0.00  0.00     0.036 H 
ATOM     27  H3  non d ame     -12.103  14.463  74.116  0.00  0.00     0.036 H 
ATOM     28  H4  non d ame     -11.684  16.186  73.962  0.00  0.00     0.036 H 
ENDBRANCH  21  25
ENDBRANCH  16  19
ENDBRANCH  13  15
BRANCH  13  29
ATOM     29  C8  non d ame     -10.376  19.469  67.241  0.00  0.00    -0.049 C 
ATOM     30  H7  non d ame     -10.813  19.787  66.294  0.00  0.00     0.030 H 
ATOM     31  H8  non d ame     -11.047  19.731  68.057  0.00  0.00     0.030 H 
ATOM     32  H9  non d ame      -9.417  19.968  67.383  0.00  0.00     0.030 H 
ENDBRANCH  13  29
ENDBRANCH  10  13
ENDBRANCH   7   9
BRANCH   7  33
ATOM     33  C11 non d ame      -5.497  17.625  68.829  0.00  0.00    -0.033 C 
ATOM     34  H12 non d ame      -4.462  17.571  68.494  0.00  0.00     0.042 H 
BRANCH  33  35
ATOM     35  C12 non d ame      -5.851  19.133  69.021  0.00  0.00    -0.071 C 
ATOM     36  H13 non d ame      -5.531  19.458  70.011  0.00  0.00     0.028 H 
ATOM     37  H14 non d ame      -5.341  19.725  68.262  0.00  0.00     0.028 H 
ATOM     38  H15 non d ame      -6.928  19.267  68.925  0.00  0.00     0.028 H 
ENDBRANCH  33  35
BRANCH  33  39
ATOM     39  C13 non d ame      -5.611  16.842  70.176  0.00  0.00    -0.071 C 
ATOM     40  H16 non d ame      -4.751  16.182  70.286  0.00  0.00     0.028 H 
ATOM     41  H17 non d ame      -5.635  17.548  71.006  0.00  0.00     0.028 H 
ATOM     42  H18 non d ame      -6.526  16.250  70.176  0.00  0.00     0.028 H 
ENDBRANCH  33  39
ENDBRANCH   7  33
ENDBRANCH   4   7
ENDBRANCH   1   3
BRANCH   1  43
ATOM     43  C15 non d ame      -8.453  12.450  67.929  0.00  0.00     0.240 C 
ATOM     44  O5  non d ame      -9.462  13.043  68.133  0.00  0.00    -0.271 OA
ATOM     45  N6  non d ame      -8.505  11.063  67.384  0.00  0.00    -0.355 N 
ATOM     46  H46 non d ame      -7.654  10.552  67.203  0.00  0.00     0.162 HD
BRANCH  45  47
ATOM     47  C20 non d ame      -9.814  10.433  67.109  0.00  0.00     0.013 C 
ATOM     48  H30 non d ame     -10.593  11.114  67.451  0.00  0.00     0.072 H 
BRANCH  47  49
ATOM     49  C21 non d ame      -9.907   9.124  67.861  0.00  0.00    -0.038 C 
ATOM     50  H31 non d ame      -8.881   8.855  68.111  0.00  0.00     0.036 H 
ATOM     51  H32 non d ame     -10.636   9.291  68.654  0.00  0.00     0.036 H 
BRANCH  49  52
ATOM     52  C22 non d ame     -10.461   7.974  66.993  0.00  0.00     0.018 C 
ATOM     53  H33 non d ame     -11.450   7.750  67.394  0.00  0.00     0.048 H 
ATOM     54  H34 non d ame     -10.355   8.305  65.960  0.00  0.00     0.048 H 
BRANCH  52  55
ATOM     55  C23 non d ame      -9.647   6.655  67.106  0.00  0.00     0.259 C 
ATOM     56  O7  non d ame      -8.829   6.379  66.289  0.00  0.00    -0.265 OA
BRANCH  55  57
ATOM     57  O8  non d ame      -9.899   5.771  68.191  0.00  0.00    -0.317 OA
BRANCH  57  58
ATOM     58  C29 non d ame      -9.011   5.942  69.300  0.00  0.00     0.052 C 
ATOM     59  H47 non d ame      -8.242   5.179  69.182  0.00  0.00     0.082 H 
ATOM     60  H48 non d ame      -8.736   6.996  69.297  0.00  0.00     0.082 H 
BRANCH  58  61
ATOM     61  C35 non d ame      -9.804   5.645  70.600  0.00  0.00    -0.034 A 
ATOM     62  C30 non d ame      -9.710   4.396  71.205  0.00  0.00    -0.075 A 
ATOM     63  C31 non d ame     -10.423   4.130  72.373  0.00  0.00    -0.082 A 
ATOM     64  H49 non d ame      -9.076   3.626  70.765  0.00  0.00     0.084 H 
ATOM     65  C32 non d ame     -11.237   5.117  72.934  0.00  0.00    -0.083 A 
ATOM     66  H50 non d ame     -10.344   3.151  72.846  0.00  0.00     0.083 H 
ATOM     67  C33 non d ame     -11.332   6.361  72.324  0.00  0.00    -0.082 A 
ATOM     68  H51 non d ame     -11.797   4.917  73.847  0.00  0.00     0.083 H 
ATOM     69  C34 non d ame     -10.618   6.632  71.158  0.00  0.00    -0.075 A 
ATOM     70  H52 non d ame     -11.969   7.129  72.764  0.00  0.00     0.083 H 
ATOM     71  H53 non d ame     -10.697   7.612  70.687  0.00  0.00     0.084 H 
ENDBRANCH  58  61
ENDBRANCH  57  58
ENDBRANCH  55  57
ENDBRANCH  52  55
ENDBRANCH  49  52
ENDBRANCH  47  49
BRANCH  47  72
ATOM     72  C24 non d ame      -9.956  10.172  65.611  0.00  0.00    -0.039 C 
ATOM     73  H35 non d ame      -8.990   9.780  65.292  0.00  0.00     0.036 H 
ATOM     74  H36 non d ame     -10.853   9.561  65.507  0.00  0.00     0.036 H 
BRANCH  72  75
ATOM     75  C25 non d ame     -10.209  11.527  64.794  0.00  0.00    -0.001 C 
ATOM     76  C26 non d ame     -11.595  12.244  65.315  0.00  0.00    -0.035 C 
ATOM     77  C27 non d ame     -12.373  12.519  64.241  0.00  0.00     0.085 C 
ATOM     78  H38 non d ame     -12.191  11.534  65.887  0.00  0.00     0.036 H 
ATOM     79  H39 non d ame     -11.374  13.228  65.728  0.00  0.00     0.036 H 
ATOM     80  N5  non d ame     -11.794  11.762  63.070  0.00  0.00    -0.049 N 
ATOM     81  H40 non d ame     -13.355  12.107  64.480  0.00  0.00     0.075 H 
ATOM     82  H41 non d ame     -12.258  13.587  64.065  0.00  0.00     0.075 H 
ATOM     83  C28 non d ame     -10.317  11.298  63.528  0.00  0.00     0.193 C 
ATOM     84  H42 non d ame     -12.366  10.939  62.950  0.00  0.00     0.280 HD
ATOM     85  H43 non d ame     -11.701  12.428  62.317  0.00  0.00     0.280 HD
ATOM     86  H44 non d ame      -9.433  11.815  63.157  0.00  0.00     0.129 H 
ATOM     87  H37 non d ame      -9.317  12.151  64.744  0.00  0.00     0.046 H 
BRANCH  83  88
ATOM     88  O6  non d ame     -10.112   9.919  63.212  0.00  0.00    -0.369 OA
ATOM     89  H45 non d ame     -10.461   9.738  62.336  0.00  0.00     0.212 HD
ENDBRANCH  83  88
ENDBRANCH  72  75
ENDBRANCH  47  72
ENDBRANCH  45  47
ENDBRANCH   1  43
BRANCH   1  90
ATOM     90  C16 non d ame      -6.585  12.699  69.593  0.00  0.00    -0.035 C 
ATOM     91  H21 non d ame      -5.982  13.534  69.955  0.00  0.00     0.037 H 
ATOM     92  H22 non d ame      -7.475  12.392  70.142  0.00  0.00     0.037 H 
BRANCH  90  93
ATOM     93  C17 non d ame      -5.639  11.457  69.556  0.00  0.00    -0.059 C 
ATOM     94  H23 non d ame      -6.261  10.572  69.425  0.00  0.00     0.038 H 
BRANCH  93  95
ATOM     95  C18 non d ame      -4.636  11.516  68.359  0.00  0.00    -0.073 C 
ATOM     96  H24 non d ame      -4.013  10.621  68.364  0.00  0.00     0.028 H 
ATOM     97  H25 non d ame      -5.191  11.567  67.423  0.00  0.00     0.028 H 
ATOM     98  H26 non d ame      -4.005  12.400  68.457  0.00  0.00     0.028 H 
ENDBRANCH  93  95
BRANCH  93  99
ATOM     99  C19 non d ame      -4.894  11.296  70.884  0.00  0.00    -0.073 C 
ATOM    100  H27 non d ame      -5.608  11.332  71.707  0.00  0.00     0.028 H 
ATOM    101  H28 non d ame      -4.374  10.337  70.893  0.00  0.00     0.028 H 
ATOM    102  H29 non d ame      -4.169  12.102  70.994  0.00  0.00     0.028 H 
ENDBRANCH  93  99
ENDBRANCH  90  93
ENDBRANCH   1  90
TORSDOF 26
ENDMDL
MODEL 16
REMARK VINA RESULT:      -6.4      2.729      7.182
REMARK  26 active torsions:
REMARK  status: ('A' for Active; 'I' for Inactive)
REMARK    1  A    between atoms: C2_2  and  C3_3 
REMARK    2  A    between atoms: C4_6  and  C5_7 
REMARK       I    between atoms: C5_7  and  N2_9 
REMARK    3  A    between atoms: N2_9  and  C6_10 
REMARK    4  A    between atoms: C6_10  and  C7_11 
REMARK    5  A    between atoms: C6_10  and  C8_13 
REMARK       I    between atoms: C7_11  and  N3_14 
REMARK    6  A    between atoms: N3_14  and  C9_15 
REMARK    7  A    between atoms: C9_15  and  C10_16 
REMARK    8  A    between atoms: C9_15  and  C11_18 
REMARK       I    between atoms: C10_16  and  N4_21 
REMARK    9  A    between atoms: C11_18  and  C12_19 
REMARK   10  A    between atoms: C11_18  and  C13_20 
REMARK   11  A    between atoms: N4_21  and  C14_22 
REMARK   12  A    between atoms: C14_22  and  C15_23 
REMARK   13  A    between atoms: C14_22  and  C16_25 
REMARK       I    between atoms: C15_23  and  N6_40 
REMARK   14  A    between atoms: C16_25  and  C17_26 
REMARK   15  A    between atoms: C17_26  and  C18_27 
REMARK   16  A    between atoms: C17_26  and  C19_28 
REMARK   17  A    between atoms: C20_29  and  C21_30 
REMARK   18  A    between atoms: C20_29  and  C24_33 
REMARK   19  A    between atoms: C20_29  and  N6_40 
REMARK   20  A    between atoms: C21_30  and  C22_31 
REMARK   21  A    between atoms: C22_31  and  C23_32 
REMARK   22  A    between atoms: C23_32  and  O8_43 
REMARK   23  A    between atoms: C24_33  and  C25_34 
REMARK   24  A    between atoms: C28_38  and  O6_39 
REMARK   25  A    between atoms: C29_42  and  O8_43 
REMARK   26  A    between atoms: C29_42  and  C35_49 
ROOT
ATOM      1  C14 non d ame      -7.266  13.186  67.495  0.00  0.00     0.089 C 
ATOM      2  H20 non d ame      -6.426  13.058  66.810  0.00  0.00     0.087 H 
ENDROOT
BRANCH   1   3
ATOM      3  N4  non d ame      -7.339  14.598  67.840  0.00  0.00    -0.346 N 
ATOM      4  C10 non d ame      -6.122  15.479  67.702  0.00  0.00     0.241 C 
ATOM      5  O4  non d ame      -5.095  15.028  67.314  0.00  0.00    -0.271 OA
ATOM      6  H19 non d ame      -8.221  14.962  68.171  0.00  0.00     0.163 HD
BRANCH   4   7
ATOM      7  C9  non d ame      -6.217  16.939  68.059  0.00  0.00     0.092 C 
ATOM      8  H11 non d ame      -5.903  17.539  67.204  0.00  0.00     0.088 H 
BRANCH   7   9
ATOM      9  N3  non d ame      -7.614  17.285  68.339  0.00  0.00    -0.346 N 
ATOM     10  C7  non d ame      -8.460  17.778  67.281  0.00  0.00     0.240 C 
ATOM     11  O3  non d ame      -8.035  17.904  66.198  0.00  0.00    -0.271 OA
ATOM     12  H10 non d ame      -7.996  17.183  69.268  0.00  0.00     0.163 HD
BRANCH  10  13
ATOM     13  C6  non d ame      -9.946  18.147  67.586  0.00  0.00     0.086 C 
ATOM     14  H6  non d ame     -10.634  17.801  66.815  0.00  0.00     0.086 H 
BRANCH  13  15
ATOM     15  N2  non d ame     -10.348  17.498  68.823  0.00  0.00    -0.343 N 
ATOM     16  C5  non d ame     -11.174  16.290  68.769  0.00  0.00     0.273 C 
ATOM     17  O2  non d ame     -11.511  15.850  67.726  0.00  0.00    -0.266 OA
ATOM     18  H5  non d ame     -10.057  17.883  69.711  0.00  0.00     0.163 HD
BRANCH  16  19
ATOM     19  C4  non d ame     -11.604  15.593  70.069  0.00  0.00     0.154 A 
ATOM     20  C1  non d ame     -11.681  16.172  71.376  0.00  0.00    -0.017 A 
ATOM     21  C2  non d ame     -12.127  15.124  72.212  0.00  0.00     0.077 A 
ATOM     22  H1  non d ame     -11.450  17.195  71.672  0.00  0.00     0.091 H 
ATOM     23  O1  non d ame     -12.286  14.072  71.463  0.00  0.00    -0.218 OA
ATOM     24  N1  non d ame     -11.987  14.321  70.209  0.00  0.00    -0.123 NA
BRANCH  21  25
ATOM     25  C3  non d ame     -12.376  15.211  73.712  0.00  0.00    -0.029 C 
ATOM     26  H2  non d ame     -11.559  14.726  74.245  0.00  0.00     0.036 H 
ATOM     27  H3  non d ame     -12.434  16.257  74.010  0.00  0.00     0.036 H 
ATOM     28  H4  non d ame     -13.315  14.712  73.954  0.00  0.00     0.036 H 
ENDBRANCH  21  25
ENDBRANCH  16  19
ENDBRANCH  13  15
BRANCH  13  29
ATOM     29  C8  non d ame     -10.078  19.643  67.721  0.00  0.00    -0.049 C 
ATOM     30  H7  non d ame     -10.293  19.896  68.760  0.00  0.00     0.030 H 
ATOM     31  H8  non d ame      -9.147  20.120  67.416  0.00  0.00     0.030 H 
ATOM     32  H9  non d ame     -10.892  19.994  67.087  0.00  0.00     0.030 H 
ENDBRANCH  13  29
ENDBRANCH  10  13
ENDBRANCH   7   9
BRANCH   7  33
ATOM     33  C11 non d ame      -5.352  17.222  69.321  0.00  0.00    -0.033 C 
ATOM     34  H12 non d ame      -4.306  17.159  69.025  0.00  0.00     0.042 H 
BRANCH  33  35
ATOM     35  C12 non d ame      -5.599  18.662  69.869  0.00  0.00    -0.071 C 
ATOM     36  H13 non d ame      -4.685  19.249  69.774  0.00  0.00     0.028 H 
ATOM     37  H14 non d ame      -6.397  19.136  69.298  0.00  0.00     0.028 H 
ATOM     38  H15 non d ame      -5.886  18.606  70.919  0.00  0.00     0.028 H 
ENDBRANCH  33  35
BRANCH  33  39
ATOM     39  C13 non d ame      -5.607  16.146  70.426  0.00  0.00    -0.071 C 
ATOM     40  H16 non d ame      -5.500  16.602  71.409  0.00  0.00     0.028 H 
ATOM     41  H17 non d ame      -6.616  15.746  70.318  0.00  0.00     0.028 H 
ATOM     42  H18 non d ame      -4.883  15.338  70.320  0.00  0.00     0.028 H 
ENDBRANCH  33  39
ENDBRANCH   7  33
ENDBRANCH   4   7
ENDBRANCH   1   3
BRANCH   1  43
ATOM     43  C15 non d ame      -8.618  12.763  66.852  0.00  0.00     0.240 C 
ATOM     44  O5  non d ame      -9.613  13.351  67.128  0.00  0.00    -0.271 OA
ATOM     45  N6  non d ame      -8.670  11.630  65.885  0.00  0.00    -0.355 N 
ATOM     46  H46 non d ame      -7.831  11.126  65.640  0.00  0.00     0.162 HD
BRANCH  45  47
ATOM     47  C20 non d ame      -9.963  11.241  65.282  0.00  0.00     0.013 C 
ATOM     48  H30 non d ame     -10.403  12.129  64.828  0.00  0.00     0.072 H 
BRANCH  47  49
ATOM     49  C21 non d ame     -10.878  10.706  66.360  0.00  0.00    -0.038 C 
ATOM     50  H31 non d ame     -10.728  11.355  67.222  0.00  0.00     0.036 H 
ATOM     51  H32 non d ame     -11.863  10.629  65.899  0.00  0.00     0.036 H 
BRANCH  49  52
ATOM     52  C22 non d ame     -10.496   9.281  66.816  0.00  0.00     0.018 C 
ATOM     53  H33 non d ame     -11.330   8.932  67.426  0.00  0.00     0.048 H 
ATOM     54  H34 non d ame     -10.224   8.743  65.908  0.00  0.00     0.048 H 
BRANCH  52  55
ATOM     55  C23 non d ame      -9.244   9.231  67.735  0.00  0.00     0.259 C 
ATOM     56  O7  non d ame      -8.191   8.893  67.301  0.00  0.00    -0.265 OA
BRANCH  55  57
ATOM     57  O8  non d ame      -9.373   9.581  69.108  0.00  0.00    -0.317 OA
BRANCH  57  58
ATOM     58  C29 non d ame     -10.437  10.499  69.376  0.00  0.00     0.052 C 
ATOM     59  H47 non d ame      -9.961  11.388  69.790  0.00  0.00     0.082 H 
ATOM     60  H48 non d ame     -11.008  10.567  68.451  0.00  0.00     0.082 H 
BRANCH  58  61
ATOM     61  C35 non d ame     -11.345   9.874  70.468  0.00  0.00    -0.034 A 
ATOM     62  C30 non d ame     -12.581  10.442  70.757  0.00  0.00    -0.075 A 
ATOM     63  C31 non d ame     -13.397   9.880  71.738  0.00  0.00    -0.082 A 
ATOM     64  H49 non d ame     -12.912  11.328  70.214  0.00  0.00     0.084 H 
ATOM     65  C32 non d ame     -12.970   8.747  72.435  0.00  0.00    -0.083 A 
ATOM     66  H50 non d ame     -14.367  10.326  71.959  0.00  0.00     0.083 H 
ATOM     67  C33 non d ame     -11.733   8.185  72.147  0.00  0.00    -0.082 A 
ATOM     68  H51 non d ame     -13.601   8.300  73.203  0.00  0.00     0.083 H 
ATOM     69  C34 non d ame     -10.916   8.742  71.165  0.00  0.00    -0.075 A 
ATOM     70  H52 non d ame     -11.402   7.301  72.694  0.00  0.00     0.083 H 
ATOM     71  H53 non d ame      -9.947   8.294  70.943  0.00  0.00     0.084 H 
ENDBRANCH  58  61
ENDBRANCH  57  58
ENDBRANCH  55  57
ENDBRANCH  52  55
ENDBRANCH  49  52
ENDBRANCH  47  49
BRANCH  47  72
ATOM     72  C24 non d ame      -9.735  10.163  64.224  0.00  0.00    -0.039 C 
ATOM     73  H35 non d ame      -9.865   9.214  64.745  0.00  0.00     0.036 H 
ATOM     74  H36 non d ame     -10.396  10.423  63.397  0.00  0.00     0.036 H 
BRANCH  72  75
ATOM     75  C25 non d ame      -8.237  10.192  63.660  0.00  0.00    -0.001 C 
ATOM     76  C26 non d ame      -8.239  10.685  62.091  0.00  0.00    -0.035 C 
ATOM     77  C27 non d ame      -7.534   9.794  61.353  0.00  0.00     0.085 C 
ATOM     78  H38 non d ame      -9.245  10.618  61.679  0.00  0.00     0.036 H 
ATOM     79  H39 non d ame      -7.669  11.608  61.989  0.00  0.00     0.036 H 
ATOM     80  N5  non d ame      -7.330   8.571  62.214  0.00  0.00    -0.049 N 
ATOM     81  H40 non d ame      -8.181   9.535  60.514  0.00  0.00     0.075 H 
ATOM     82  H41 non d ame      -6.569  10.265  61.171  0.00  0.00     0.075 H 
ATOM     83  C28 non d ame      -7.690   9.024  63.721  0.00  0.00     0.193 C 
ATOM     84  H42 non d ame      -8.012   7.891  61.911  0.00  0.00     0.280 HD
ATOM     85  H43 non d ame      -6.345   8.352  62.171  0.00  0.00     0.280 HD
ATOM     86  H44 non d ame      -6.899   9.212  64.447  0.00  0.00     0.129 H 
ATOM     87  H37 non d ame      -7.550  10.699  64.338  0.00  0.00     0.046 H 
BRANCH  83  88
ATOM     88  O6  non d ame      -8.548   8.060  64.335  0.00  0.00    -0.369 OA
ATOM     89  H45 non d ame      -9.018   7.572  63.654  0.00  0.00     0.212 HD
ENDBRANCH  83  88
ENDBRANCH  72  75
ENDBRANCH  47  72
ENDBRANCH  45  47
ENDBRANCH   1  43
BRANCH   1  90
ATOM     90  C16 non d ame      -7.027  12.378  68.760  0.00  0.00    -0.035 C 
ATOM     91  H21 non d ame      -7.063  13.102  69.576  0.00  0.00     0.037 H 
ATOM     92  H22 non d ame      -7.749  11.563  68.723  0.00  0.00     0.037 H 
BRANCH  90  93
ATOM     93  C17 non d ame      -5.614  11.714  68.822  0.00  0.00    -0.059 C 
ATOM     94  H23 non d ame      -5.222  11.677  67.806  0.00  0.00     0.038 H 
BRANCH  93  95
ATOM     95  C18 non d ame      -4.612  12.541  69.690  0.00  0.00    -0.073 C 
ATOM     96  H24 non d ame      -4.731  12.270  70.739  0.00  0.00     0.028 H 
ATOM     97  H25 non d ame      -3.592  12.324  69.372  0.00  0.00     0.028 H 
ATOM     98  H26 non d ame      -4.814  13.605  69.563  0.00  0.00     0.028 H 
ENDBRANCH  93  95
BRANCH  93  99
ATOM     99  C19 non d ame      -5.709  10.271  69.326  0.00  0.00    -0.073 C 
ATOM    100  H27 non d ame      -4.718   9.817  69.314  0.00  0.00     0.028 H 
ATOM    101  H28 non d ame      -6.100  10.268  70.343  0.00  0.00     0.028 H 
ATOM    102  H29 non d ame      -6.378   9.704  68.679  0.00  0.00     0.028 H 
ENDBRANCH  93  99
ENDBRANCH  90  93
ENDBRANCH   1  90
TORSDOF 26
ENDMDL
MODEL 17
REMARK VINA RESULT:      -6.4      2.639      7.022
REMARK  26 active torsions:
REMARK  status: ('A' for Active; 'I' for Inactive)
REMARK    1  A    between atoms: C2_2  and  C3_3 
REMARK    2  A    between atoms: C4_6  and  C5_7 
REMARK       I    between atoms: C5_7  and  N2_9 
REMARK    3  A    between atoms: N2_9  and  C6_10 
REMARK    4  A    between atoms: C6_10  and  C7_11 
REMARK    5  A    between atoms: C6_10  and  C8_13 
REMARK       I    between atoms: C7_11  and  N3_14 
REMARK    6  A    between atoms: N3_14  and  C9_15 
REMARK    7  A    between atoms: C9_15  and  C10_16 
REMARK    8  A    between atoms: C9_15  and  C11_18 
REMARK       I    between atoms: C10_16  and  N4_21 
REMARK    9  A    between atoms: C11_18  and  C12_19 
REMARK   10  A    between atoms: C11_18  and  C13_20 
REMARK   11  A    between atoms: N4_21  and  C14_22 
REMARK   12  A    between atoms: C14_22  and  C15_23 
REMARK   13  A    between atoms: C14_22  and  C16_25 
REMARK       I    between atoms: C15_23  and  N6_40 
REMARK   14  A    between atoms: C16_25  and  C17_26 
REMARK   15  A    between atoms: C17_26  and  C18_27 
REMARK   16  A    between atoms: C17_26  and  C19_28 
REMARK   17  A    between atoms: C20_29  and  C21_30 
REMARK   18  A    between atoms: C20_29  and  C24_33 
REMARK   19  A    between atoms: C20_29  and  N6_40 
REMARK   20  A    between atoms: C21_30  and  C22_31 
REMARK   21  A    between atoms: C22_31  and  C23_32 
REMARK   22  A    between atoms: C23_32  and  O8_43 
REMARK   23  A    between atoms: C24_33  and  C25_34 
REMARK   24  A    between atoms: C28_38  and  O6_39 
REMARK   25  A    between atoms: C29_42  and  O8_43 
REMARK   26  A    between atoms: C29_42  and  C35_49 
ROOT
ATOM      1  C14 non d ame      -8.432   9.772  67.606  0.00  0.00     0.089 C 
ATOM      2  H20 non d ame      -9.402  10.194  67.340  0.00  0.00     0.087 H 
ENDROOT
BRANCH   1   3
ATOM      3  N4  non d ame      -7.563  10.877  67.983  0.00  0.00    -0.346 N 
ATOM      4  C10 non d ame      -7.874  12.281  67.526  0.00  0.00     0.241 C 
ATOM      5  O4  non d ame      -8.828  12.495  66.853  0.00  0.00    -0.271 OA
ATOM      6  H19 non d ame      -6.755  10.674  68.554  0.00  0.00     0.163 HD
BRANCH   4   7
ATOM      7  C9  non d ame      -6.967  13.414  67.930  0.00  0.00     0.092 C 
ATOM      8  H11 non d ame      -6.398  13.745  67.062  0.00  0.00     0.088 H 
BRANCH   7   9
ATOM      9  N3  non d ame      -7.777  14.553  68.376  0.00  0.00    -0.346 N 
ATOM     10  C7  non d ame      -7.802  15.767  67.599  0.00  0.00     0.240 C 
ATOM     11  O3  non d ame      -7.178  15.846  66.612  0.00  0.00    -0.271 OA
ATOM     12  H10 non d ame      -8.320  14.499  69.226  0.00  0.00     0.163 HD
BRANCH  10  13
ATOM     13  C6  non d ame      -8.663  16.976  68.081  0.00  0.00     0.086 C 
ATOM     14  H6  non d ame      -9.348  17.339  67.314  0.00  0.00     0.086 H 
BRANCH  13  15
ATOM     15  N2  non d ame      -9.484  16.553  69.204  0.00  0.00    -0.343 N 
ATOM     16  C5  non d ame     -10.926  16.379  69.019  0.00  0.00     0.273 C 
ATOM     17  O2  non d ame     -11.417  16.586  67.964  0.00  0.00    -0.266 OA
ATOM     18  H5  non d ame      -9.056  16.381  70.103  0.00  0.00     0.163 HD
BRANCH  16  19
ATOM     19  C4  non d ame     -11.805  15.931  70.197  0.00  0.00     0.154 A 
ATOM     20  C1  non d ame     -11.433  15.867  71.578  0.00  0.00    -0.017 A 
ATOM     21  C2  non d ame     -12.588  15.398  72.243  0.00  0.00     0.077 A 
ATOM     22  H1  non d ame     -10.474  16.122  72.028  0.00  0.00     0.091 H 
ATOM     23  O1  non d ame     -13.509  15.220  71.342  0.00  0.00    -0.218 OA
ATOM     24  N1  non d ame     -13.076  15.524  70.140  0.00  0.00    -0.123 NA
BRANCH  21  25
ATOM     25  C3  non d ame     -12.728  15.151  73.740  0.00  0.00    -0.029 C 
ATOM     26  H2  non d ame     -12.930  14.094  73.916  0.00  0.00     0.036 H 
ATOM     27  H3  non d ame     -11.803  15.433  74.243  0.00  0.00     0.036 H 
ATOM     28  H4  non d ame     -13.552  15.748  74.132  0.00  0.00     0.036 H 
ENDBRANCH  21  25
ENDBRANCH  16  19
ENDBRANCH  13  15
BRANCH  13  29
ATOM     29  C8  non d ame      -7.758  18.106  68.500  0.00  0.00    -0.049 C 
ATOM     30  H7  non d ame      -7.042  17.742  69.239  0.00  0.00     0.030 H 
ATOM     31  H8  non d ame      -7.222  18.486  67.631  0.00  0.00     0.030 H 
ATOM     32  H9  non d ame      -8.355  18.906  68.939  0.00  0.00     0.030 H 
ENDBRANCH  13  29
ENDBRANCH  10  13
ENDBRANCH   7   9
BRANCH   7  33
ATOM     33  C11 non d ame      -6.044  12.949  69.094  0.00  0.00    -0.033 C 
ATOM     34  H12 non d ame      -6.437  12.005  69.469  0.00  0.00     0.042 H 
BRANCH  33  35
ATOM     35  C12 non d ame      -4.588  12.688  68.595  0.00  0.00    -0.071 C 
ATOM     36  H13 non d ame      -3.934  12.527  69.451  0.00  0.00     0.028 H 
ATOM     37  H14 non d ame      -4.576  11.804  67.957  0.00  0.00     0.028 H 
ATOM     38  H15 non d ame      -4.240  13.550  68.028  0.00  0.00     0.028 H 
ENDBRANCH  33  35
BRANCH  33  39
ATOM     39  C13 non d ame      -6.062  13.980  70.268  0.00  0.00    -0.071 C 
ATOM     40  H16 non d ame      -5.512  14.874  69.975  0.00  0.00     0.028 H 
ATOM     41  H17 non d ame      -7.094  14.249  70.500  0.00  0.00     0.028 H 
ATOM     42  H18 non d ame      -5.596  13.538  71.148  0.00  0.00     0.028 H 
ENDBRANCH  33  39
ENDBRANCH   7  33
ENDBRANCH   4   7
ENDBRANCH   1   3
BRANCH   1  43
ATOM     43  C15 non d ame      -8.528   8.788  68.806  0.00  0.00     0.240 C 
ATOM     44  O5  non d ame      -7.618   8.687  69.563  0.00  0.00    -0.271 OA
ATOM     45  N6  non d ame      -9.761   7.976  69.017  0.00  0.00    -0.355 N 
ATOM     46  H46 non d ame     -10.543   8.057  68.383  0.00  0.00     0.162 HD
BRANCH  45  47
ATOM     47  C20 non d ame      -9.838   7.045  70.163  0.00  0.00     0.013 C 
ATOM     48  H30 non d ame      -8.821   6.765  70.438  0.00  0.00     0.072 H 
BRANCH  47  49
ATOM     49  C21 non d ame     -10.620   5.816  69.758  0.00  0.00    -0.038 C 
ATOM     50  H31 non d ame     -11.292   5.607  70.590  0.00  0.00     0.036 H 
ATOM     51  H32 non d ame     -11.026   6.037  68.771  0.00  0.00     0.036 H 
BRANCH  49  52
ATOM     52  C22 non d ame      -9.728   4.566  69.593  0.00  0.00     0.018 C 
ATOM     53  H33 non d ame      -8.773   4.822  70.053  0.00  0.00     0.048 H 
ATOM     54  H34 non d ame     -10.312   3.733  69.980  0.00  0.00     0.048 H 
BRANCH  52  55
ATOM     55  C23 non d ame      -9.408   4.216  68.113  0.00  0.00     0.259 C 
ATOM     56  O7  non d ame      -9.331   3.082  67.765  0.00  0.00    -0.265 OA
BRANCH  55  57
ATOM     57  O8  non d ame      -9.195   5.266  67.178  0.00  0.00    -0.317 OA
BRANCH  57  58
ATOM     58  C29 non d ame      -9.585   4.943  65.840  0.00  0.00     0.052 C 
ATOM     59  H47 non d ame      -9.740   3.865  65.831  0.00  0.00     0.082 H 
ATOM     60  H48 non d ame     -10.410   5.614  65.604  0.00  0.00     0.082 H 
BRANCH  58  61
ATOM     61  C35 non d ame      -8.396   5.277  64.901  0.00  0.00    -0.034 A 
ATOM     62  C30 non d ame      -7.119   5.450  65.426  0.00  0.00    -0.075 A 
ATOM     63  C31 non d ame      -6.051   5.751  64.582  0.00  0.00    -0.082 A 
ATOM     64  H49 non d ame      -6.955   5.349  66.499  0.00  0.00     0.084 H 
ATOM     65  C32 non d ame      -6.264   5.882  63.207  0.00  0.00    -0.083 A 
ATOM     66  H50 non d ame      -5.051   5.882  64.997  0.00  0.00     0.083 H 
ATOM     67  C33 non d ame      -7.541   5.713  62.687  0.00  0.00    -0.082 A 
ATOM     68  H51 non d ame      -5.434   6.116  62.540  0.00  0.00     0.083 H 
ATOM     69  C34 non d ame      -8.610   5.410  63.528  0.00  0.00    -0.075 A 
ATOM     70  H52 non d ame      -7.703   5.818  61.614  0.00  0.00     0.083 H 
ATOM     71  H53 non d ame      -9.610   5.277  63.111  0.00  0.00     0.084 H 
ENDBRANCH  58  61
ENDBRANCH  57  58
ENDBRANCH  55  57
ENDBRANCH  52  55
ENDBRANCH  49  52
ENDBRANCH  47  49
BRANCH  47  72
ATOM     72  C24 non d ame     -10.535   7.729  71.337  0.00  0.00    -0.039 C 
ATOM     73  H35 non d ame     -10.696   6.944  72.076  0.00  0.00     0.036 H 
ATOM     74  H36 non d ame      -9.912   8.589  71.584  0.00  0.00     0.036 H 
BRANCH  72  75
ATOM     75  C25 non d ame     -11.977   8.293  70.926  0.00  0.00    -0.001 C 
ATOM     76  C26 non d ame     -12.010   9.927  71.103  0.00  0.00    -0.035 C 
ATOM     77  C27 non d ame     -13.094  10.264  71.843  0.00  0.00     0.085 C 
ATOM     78  H38 non d ame     -11.171  10.254  71.716  0.00  0.00     0.036 H 
ATOM     79  H39 non d ame     -12.201  10.404  70.142  0.00  0.00     0.036 H 
ATOM     80  N5  non d ame     -13.619   8.990  72.461  0.00  0.00    -0.049 N 
ATOM     81  H40 non d ame     -12.716  10.913  72.634  0.00  0.00     0.075 H 
ATOM     82  H41 non d ame     -13.827  10.641  71.131  0.00  0.00     0.075 H 
ATOM     83  C28 non d ame     -12.908   7.782  71.660  0.00  0.00     0.193 C 
ATOM     84  H42 non d ame     -13.292   8.979  73.416  0.00  0.00     0.280 HD
ATOM     85  H43 non d ame     -14.609   8.964  72.266  0.00  0.00     0.280 HD
ATOM     86  H44 non d ame     -13.459   7.211  70.914  0.00  0.00     0.129 H 
ATOM     87  H37 non d ame     -12.320   7.890  69.972  0.00  0.00     0.046 H 
BRANCH  83  88
ATOM     88  O6  non d ame     -12.397   6.814  72.579  0.00  0.00    -0.369 OA
ATOM     89  H45 non d ame     -11.451   6.717  72.448  0.00  0.00     0.212 HD
ENDBRANCH  83  88
ENDBRANCH  72  75
ENDBRANCH  47  72
ENDBRANCH  45  47
ENDBRANCH   1  43
BRANCH   1  90
ATOM     90  C16 non d ame      -7.833   9.058  66.406  0.00  0.00    -0.035 C 
ATOM     91  H21 non d ame      -7.032   9.710  66.052  0.00  0.00     0.037 H 
ATOM     92  H22 non d ame      -7.602   8.052  66.754  0.00  0.00     0.037 H 
BRANCH  90  93
ATOM     93  C17 non d ame      -8.827   8.895  65.212  0.00  0.00    -0.059 C 
ATOM     94  H23 non d ame      -9.142   7.852  65.185  0.00  0.00     0.038 H 
BRANCH  93  95
ATOM     95  C18 non d ame     -10.107   9.774  65.387  0.00  0.00    -0.073 C 
ATOM     96  H24 non d ame     -10.121  10.199  66.391  0.00  0.00     0.028 H 
ATOM     97  H25 non d ame     -10.098  10.579  64.652  0.00  0.00     0.028 H 
ATOM     98  H26 non d ame     -10.994   9.157  65.240  0.00  0.00     0.028 H 
ENDBRANCH  93  95
BRANCH  93  99
ATOM     99  C19 non d ame      -8.137   9.197  63.879  0.00  0.00    -0.073 C 
ATOM    100  H27 non d ame      -8.624   8.632  63.083  0.00  0.00     0.028 H 
ATOM    101  H28 non d ame      -8.210  10.264  63.667  0.00  0.00     0.028 H 
ATOM    102  H29 non d ame      -7.087   8.910  63.940  0.00  0.00     0.028 H 
ENDBRANCH  93  99
ENDBRANCH  90  93
ENDBRANCH   1  90
TORSDOF 26
ENDMDL
MODEL 18
REMARK VINA RESULT:      -6.3      3.180      6.009
REMARK  26 active torsions:
REMARK  status: ('A' for Active; 'I' for Inactive)
REMARK    1  A    between atoms: C2_2  and  C3_3 
REMARK    2  A    between atoms: C4_6  and  C5_7 
REMARK       I    between atoms: C5_7  and  N2_9 
REMARK    3  A    between atoms: N2_9  and  C6_10 
REMARK    4  A    between atoms: C6_10  and  C7_11 
REMARK    5  A    between atoms: C6_10  and  C8_13 
REMARK       I    between atoms: C7_11  and  N3_14 
REMARK    6  A    between atoms: N3_14  and  C9_15 
REMARK    7  A    between atoms: C9_15  and  C10_16 
REMARK    8  A    between atoms: C9_15  and  C11_18 
REMARK       I    between atoms: C10_16  and  N4_21 
REMARK    9  A    between atoms: C11_18  and  C12_19 
REMARK   10  A    between atoms: C11_18  and  C13_20 
REMARK   11  A    between atoms: N4_21  and  C14_22 
REMARK   12  A    between atoms: C14_22  and  C15_23 
REMARK   13  A    between atoms: C14_22  and  C16_25 
REMARK       I    between atoms: C15_23  and  N6_40 
REMARK   14  A    between atoms: C16_25  and  C17_26 
REMARK   15  A    between atoms: C17_26  and  C18_27 
REMARK   16  A    between atoms: C17_26  and  C19_28 
REMARK   17  A    between atoms: C20_29  and  C21_30 
REMARK   18  A    between atoms: C20_29  and  C24_33 
REMARK   19  A    between atoms: C20_29  and  N6_40 
REMARK   20  A    between atoms: C21_30  and  C22_31 
REMARK   21  A    between atoms: C22_31  and  C23_32 
REMARK   22  A    between atoms: C23_32  and  O8_43 
REMARK   23  A    between atoms: C24_33  and  C25_34 
REMARK   24  A    between atoms: C28_38  and  O6_39 
REMARK   25  A    between atoms: C29_42  and  O8_43 
REMARK   26  A    between atoms: C29_42  and  C35_49 
ROOT
ATOM      1  C14 non d ame      -7.308  10.491  66.852  0.00  0.00     0.089 C 
ATOM      2  H20 non d ame      -6.508   9.750  66.881  0.00  0.00     0.087 H 
ENDROOT
BRANCH   1   3
ATOM      3  N4  non d ame      -8.396   9.993  67.680  0.00  0.00    -0.346 N 
ATOM      4  C10 non d ame      -8.410   8.556  68.138  0.00  0.00     0.241 C 
ATOM      5  O4  non d ame      -7.535   7.818  67.823  0.00  0.00    -0.271 OA
ATOM      6  H19 non d ame      -9.133  10.636  67.935  0.00  0.00     0.163 HD
BRANCH   4   7
ATOM      7  C9  non d ame      -9.541   8.059  68.999  0.00  0.00     0.092 C 
ATOM      8  H11 non d ame      -9.166   7.854  70.002  0.00  0.00     0.088 H 
BRANCH   7   9
ATOM      9  N3  non d ame     -10.558   9.108  69.123  0.00  0.00    -0.346 N 
ATOM     10  C7  non d ame     -10.829   9.700  70.409  0.00  0.00     0.240 C 
ATOM     11  O3  non d ame     -10.239   9.345  71.356  0.00  0.00    -0.271 OA
ATOM     12  H10 non d ame     -11.076   9.424  68.316  0.00  0.00     0.163 HD
BRANCH  10  13
ATOM     13  C6  non d ame     -11.915  10.814  70.536  0.00  0.00     0.086 C 
ATOM     14  H6  non d ame     -11.559  11.690  71.078  0.00  0.00     0.086 H 
BRANCH  13  15
ATOM     15  N2  non d ame     -12.280  11.269  69.204  0.00  0.00    -0.343 N 
ATOM     16  C5  non d ame     -11.335  12.081  68.434  0.00  0.00     0.273 C 
ATOM     17  O2  non d ame     -10.286  12.365  68.896  0.00  0.00    -0.266 OA
ATOM     18  H5  non d ame     -13.181  11.023  68.818  0.00  0.00     0.163 HD
BRANCH  16  19
ATOM     19  C4  non d ame     -11.709  12.567  67.025  0.00  0.00     0.154 A 
ATOM     20  C1  non d ame     -11.453  11.901  65.784  0.00  0.00    -0.017 A 
ATOM     21  C2  non d ame     -11.990  12.756  64.796  0.00  0.00     0.077 A 
ATOM     22  H1  non d ame     -10.955  10.945  65.625  0.00  0.00     0.091 H 
ATOM     23  O1  non d ame     -12.495  13.787  65.408  0.00  0.00    -0.218 OA
ATOM     24  N1  non d ame     -12.342  13.700  66.710  0.00  0.00    -0.123 NA
BRANCH  21  25
ATOM     25  C3  non d ame     -11.982  12.513  63.293  0.00  0.00    -0.029 C 
ATOM     26  H2  non d ame     -11.771  11.461  63.096  0.00  0.00     0.036 H 
ATOM     27  H3  non d ame     -12.954  12.773  62.877  0.00  0.00     0.036 H 
ATOM     28  H4  non d ame     -11.211  13.130  62.829  0.00  0.00     0.036 H 
ENDBRANCH  21  25
ENDBRANCH  16  19
ENDBRANCH  13  15
BRANCH  13  29
ATOM     29  C8  non d ame     -13.126  10.261  71.243  0.00  0.00    -0.049 C 
ATOM     30  H7  non d ame     -13.395  10.919  72.070  0.00  0.00     0.030 H 
ATOM     31  H8  non d ame     -13.959  10.197  70.543  0.00  0.00     0.030 H 
ATOM     32  H9  non d ame     -12.898   9.268  71.630  0.00  0.00     0.030 H 
ENDBRANCH  13  29
ENDBRANCH  10  13
ENDBRANCH   7   9
BRANCH   7  33
ATOM     33  C11 non d ame     -10.177   6.798  68.343  0.00  0.00    -0.033 C 
ATOM     34  H12 non d ame      -9.377   6.079  68.169  0.00  0.00     0.042 H 
BRANCH  33  35
ATOM     35  C12 non d ame     -11.215   6.125  69.294  0.00  0.00    -0.071 C 
ATOM     36  H13 non d ame     -12.195   6.576  69.139  0.00  0.00     0.028 H 
ATOM     37  H14 non d ame     -11.267   5.059  69.079  0.00  0.00     0.028 H 
ATOM     38  H15 non d ame     -10.907   6.273  70.329  0.00  0.00     0.028 H 
ENDBRANCH  33  35
BRANCH  33  39
ATOM     39  C13 non d ame     -10.819   7.150  66.963  0.00  0.00    -0.071 C 
ATOM     40  H16 non d ame     -11.588   7.909  67.103  0.00  0.00     0.028 H 
ATOM     41  H17 non d ame     -10.050   7.531  66.290  0.00  0.00     0.028 H 
ATOM     42  H18 non d ame     -11.266   6.255  66.531  0.00  0.00     0.028 H 
ENDBRANCH  33  39
ENDBRANCH   7  33
ENDBRANCH   4   7
ENDBRANCH   1   3
BRANCH   1  43
ATOM     43  C15 non d ame      -6.853  11.869  67.410  0.00  0.00     0.240 C 
ATOM     44  O5  non d ame      -6.003  12.482  66.850  0.00  0.00    -0.271 OA
ATOM     45  N6  non d ame      -7.484  12.430  68.639  0.00  0.00    -0.355 N 
ATOM     46  H46 non d ame      -8.210  11.920  69.120  0.00  0.00     0.162 HD
BRANCH  45  47
ATOM     47  C20 non d ame      -7.040  13.742  69.157  0.00  0.00     0.013 C 
ATOM     48  H30 non d ame      -7.628  13.969  70.046  0.00  0.00     0.072 H 
BRANCH  47  49
ATOM     49  C21 non d ame      -7.272  14.800  68.102  0.00  0.00    -0.038 C 
ATOM     50  H31 non d ame      -6.294  14.997  67.663  0.00  0.00     0.036 H 
ATOM     51  H32 non d ame      -8.084  14.423  67.479  0.00  0.00     0.036 H 
BRANCH  49  52
ATOM     52  C22 non d ame      -7.762  16.139  68.695  0.00  0.00     0.018 C 
ATOM     53  H33 non d ame      -7.508  16.105  69.754  0.00  0.00     0.048 H 
ATOM     54  H34 non d ame      -7.339  16.916  68.059  0.00  0.00     0.048 H 
BRANCH  52  55
ATOM     55  C23 non d ame      -9.304  16.326  68.631  0.00  0.00     0.259 C 
ATOM     56  O7  non d ame      -9.781  17.170  67.945  0.00  0.00    -0.265 OA
BRANCH  55  57
ATOM     57  O8  non d ame     -10.140  15.483  69.415  0.00  0.00    -0.317 OA
BRANCH  57  58
ATOM     58  C29 non d ame     -11.508  15.902  69.461  0.00  0.00     0.052 C 
ATOM     59  H47 non d ame     -11.485  16.989  69.399  0.00  0.00     0.082 H 
ATOM     60  H48 non d ame     -12.019  15.323  68.693  0.00  0.00     0.082 H 
BRANCH  58  61
ATOM     61  C35 non d ame     -12.084  15.500  70.845  0.00  0.00    -0.034 A 
ATOM     62  C30 non d ame     -11.826  16.286  71.963  0.00  0.00    -0.075 A 
ATOM     63  C31 non d ame     -12.345  15.924  73.206  0.00  0.00    -0.082 A 
ATOM     64  H49 non d ame     -11.218  17.186  71.866  0.00  0.00     0.084 H 
ATOM     65  C32 non d ame     -13.121  14.769  73.328  0.00  0.00    -0.083 A 
ATOM     66  H50 non d ame     -12.143  16.544  74.080  0.00  0.00     0.083 H 
ATOM     67  C33 non d ame     -13.374  13.985  72.210  0.00  0.00    -0.082 A 
ATOM     68  H51 non d ame     -13.531  14.479  74.296  0.00  0.00     0.083 H 
ATOM     69  C34 non d ame     -12.859  14.345  70.966  0.00  0.00    -0.075 A 
ATOM     70  H52 non d ame     -13.979  13.083  72.310  0.00  0.00     0.083 H 
ATOM     71  H53 non d ame     -13.063  13.725  70.092  0.00  0.00     0.084 H 
ENDBRANCH  58  61
ENDBRANCH  57  58
ENDBRANCH  55  57
ENDBRANCH  52  55
ENDBRANCH  49  52
ENDBRANCH  47  49
BRANCH  47  72
ATOM     72  C24 non d ame      -5.554  13.684  69.504  0.00  0.00    -0.039 C 
ATOM     73  H35 non d ame      -5.055  13.366  68.588  0.00  0.00     0.036 H 
ATOM     74  H36 non d ame      -5.320  14.655  69.942  0.00  0.00     0.036 H 
BRANCH  72  75
ATOM     75  C25 non d ame      -5.247  12.576  70.619  0.00  0.00    -0.001 C 
ATOM     76  C26 non d ame      -4.871  13.305  72.044  0.00  0.00    -0.035 C 
ATOM     77  C27 non d ame      -3.708  12.785  72.505  0.00  0.00     0.085 C 
ATOM     78  H38 non d ame      -4.632  14.354  71.875  0.00  0.00     0.036 H 
ATOM     79  H39 non d ame      -5.595  13.027  72.809  0.00  0.00     0.036 H 
ATOM     80  N5  non d ame      -3.090  12.007  71.368  0.00  0.00    -0.049 N 
ATOM     81  H40 non d ame      -3.075  13.644  72.733  0.00  0.00     0.075 H 
ATOM     82  H41 non d ame      -3.992  12.092  73.296  0.00  0.00     0.075 H 
ATOM     83  C28 non d ame      -4.259  11.821  70.270  0.00  0.00     0.193 C 
ATOM     84  H42 non d ame      -2.371  12.596  70.976  0.00  0.00     0.280 HD
ATOM     85  H43 non d ame      -2.852  11.098  71.739  0.00  0.00     0.280 HD
ATOM     86  H44 non d ame      -4.769  10.864  70.160  0.00  0.00     0.129 H 
ATOM     87  H37 non d ame      -6.010  11.797  70.646  0.00  0.00     0.046 H 
BRANCH  83  88
ATOM     88  O6  non d ame      -3.769  12.144  68.968  0.00  0.00    -0.369 OA
ATOM     89  H45 non d ame      -2.815  12.035  68.949  0.00  0.00     0.212 HD
ENDBRANCH  83  88
ENDBRANCH  72  75
ENDBRANCH  47  72
ENDBRANCH  45  47
ENDBRANCH   1  43
BRANCH   1  90
ATOM     90  C16 non d ame      -7.806  10.656  65.425  0.00  0.00    -0.035 C 
ATOM     91  H21 non d ame      -8.887  10.518  65.480  0.00  0.00     0.037 H 
ATOM     92  H22 non d ame      -7.395  11.605  65.084  0.00  0.00     0.037 H 
BRANCH  90  93
ATOM     93  C17 non d ame      -7.272   9.564  64.444  0.00  0.00    -0.059 C 
ATOM     94  H23 non d ame      -7.254   9.998  63.445  0.00  0.00     0.038 H 
BRANCH  93  95
ATOM     95  C18 non d ame      -5.817   9.116  64.796  0.00  0.00    -0.073 C 
ATOM     96  H24 non d ame      -5.452   8.433  64.029  0.00  0.00     0.028 H 
ATOM     97  H25 non d ame      -5.169   9.991  64.842  0.00  0.00     0.028 H 
ATOM     98  H26 non d ame      -5.816   8.612  65.763  0.00  0.00     0.028 H 
ENDBRANCH  93  95
BRANCH  93  99
ATOM     99  C19 non d ame      -8.217   8.360  64.398  0.00  0.00    -0.073 C 
ATOM    100  H27 non d ame      -9.167   8.660  63.955  0.00  0.00     0.028 H 
ATOM    101  H28 non d ame      -7.767   7.570  63.796  0.00  0.00     0.028 H 
ATOM    102  H29 non d ame      -8.387   7.992  65.410  0.00  0.00     0.028 H 
ENDBRANCH  93  99
ENDBRANCH  90  93
ENDBRANCH   1  90
TORSDOF 26
ENDMDL
MODEL 19
REMARK VINA RESULT:      -6.2      2.439      7.447
REMARK  26 active torsions:
REMARK  status: ('A' for Active; 'I' for Inactive)
REMARK    1  A    between atoms: C2_2  and  C3_3 
REMARK    2  A    between atoms: C4_6  and  C5_7 
REMARK       I    between atoms: C5_7  and  N2_9 
REMARK    3  A    between atoms: N2_9  and  C6_10 
REMARK    4  A    between atoms: C6_10  and  C7_11 
REMARK    5  A    between atoms: C6_10  and  C8_13 
REMARK       I    between atoms: C7_11  and  N3_14 
REMARK    6  A    between atoms: N3_14  and  C9_15 
REMARK    7  A    between atoms: C9_15  and  C10_16 
REMARK    8  A    between atoms: C9_15  and  C11_18 
REMARK       I    between atoms: C10_16  and  N4_21 
REMARK    9  A    between atoms: C11_18  and  C12_19 
REMARK   10  A    between atoms: C11_18  and  C13_20 
REMARK   11  A    between atoms: N4_21  and  C14_22 
REMARK   12  A    between atoms: C14_22  and  C15_23 
REMARK   13  A    between atoms: C14_22  and  C16_25 
REMARK       I    between atoms: C15_23  and  N6_40 
REMARK   14  A    between atoms: C16_25  and  C17_26 
REMARK   15  A    between atoms: C17_26  and  C18_27 
REMARK   16  A    between atoms: C17_26  and  C19_28 
REMARK   17  A    between atoms: C20_29  and  C21_30 
REMARK   18  A    between atoms: C20_29  and  C24_33 
REMARK   19  A    between atoms: C20_29  and  N6_40 
REMARK   20  A    between atoms: C21_30  and  C22_31 
REMARK   21  A    between atoms: C22_31  and  C23_32 
REMARK   22  A    between atoms: C23_32  and  O8_43 
REMARK   23  A    between atoms: C24_33  and  C25_34 
REMARK   24  A    between atoms: C28_38  and  O6_39 
REMARK   25  A    between atoms: C29_42  and  O8_43 
REMARK   26  A    between atoms: C29_42  and  C35_49 
ROOT
ATOM      1  C14 non d ame      -6.245   9.418  66.417  0.00  0.00     0.089 C 
ATOM      2  H20 non d ame      -5.309   9.507  66.969  0.00  0.00     0.087 H 
ENDROOT
BRANCH   1   3
ATOM      3  N4  non d ame      -6.933   8.234  66.909  0.00  0.00    -0.346 N 
ATOM      4  C10 non d ame      -6.223   7.266  67.823  0.00  0.00     0.241 C 
ATOM      5  O4  non d ame      -5.097   7.461  68.146  0.00  0.00    -0.271 OA
ATOM      6  H19 non d ame      -7.889   8.084  66.621  0.00  0.00     0.163 HD
BRANCH   4   7
ATOM      7  C9  non d ame      -6.950   6.047  68.327  0.00  0.00     0.092 C 
ATOM      8  H11 non d ame      -6.229   5.253  68.521  0.00  0.00     0.088 H 
BRANCH   7   9
ATOM      9  N3  non d ame      -7.602   6.360  69.603  0.00  0.00    -0.346 N 
ATOM     10  C7  non d ame      -7.006   5.926  70.842  0.00  0.00     0.240 C 
ATOM     11  O3  non d ame      -6.003   5.324  70.833  0.00  0.00    -0.271 OA
ATOM     12  H10 non d ame      -8.469   6.878  69.627  0.00  0.00     0.163 HD
BRANCH  10  13
ATOM     13  C6  non d ame      -7.707   6.260  72.196  0.00  0.00     0.086 C 
ATOM     14  H6  non d ame      -7.255   7.110  72.707  0.00  0.00     0.086 H 
BRANCH  13  15
ATOM     15  N2  non d ame      -9.091   6.619  71.935  0.00  0.00    -0.343 N 
ATOM     16  C5  non d ame      -9.553   7.978  72.229  0.00  0.00     0.273 C 
ATOM     17  O2  non d ame      -8.803   8.772  72.680  0.00  0.00    -0.266 OA
ATOM     18  H5  non d ame      -9.726   5.932  71.552  0.00  0.00     0.163 HD
BRANCH  16  19
ATOM     19  C4  non d ame     -11.013   8.371  71.957  0.00  0.00     0.154 A 
ATOM     20  C1  non d ame     -12.181   7.581  72.201  0.00  0.00    -0.017 A 
ATOM     21  C2  non d ame     -13.260   8.391  71.783  0.00  0.00     0.077 A 
ATOM     22  H1  non d ame     -12.237   6.576  72.618  0.00  0.00     0.091 H 
ATOM     23  O1  non d ame     -12.760   9.512  71.353  0.00  0.00    -0.218 OA
ATOM     24  N1  non d ame     -11.450   9.524  71.445  0.00  0.00    -0.123 NA
BRANCH  21  25
ATOM     25  C3  non d ame     -14.737   8.019  71.830  0.00  0.00    -0.029 C 
ATOM     26  H2  non d ame     -14.843   6.939  71.725  0.00  0.00     0.036 H 
ATOM     27  H3  non d ame     -15.161   8.335  72.782  0.00  0.00     0.036 H 
ATOM     28  H4  non d ame     -15.263   8.517  71.014  0.00  0.00     0.036 H 
ENDBRANCH  21  25
ENDBRANCH  16  19
ENDBRANCH  13  15
BRANCH  13  29
ATOM     29  C8  non d ame      -7.648   5.059  73.105  0.00  0.00    -0.049 C 
ATOM     30  H7  non d ame      -8.389   5.167  73.898  0.00  0.00     0.030 H 
ATOM     31  H8  non d ame      -7.860   4.157  72.531  0.00  0.00     0.030 H 
ATOM     32  H9  non d ame      -6.654   4.985  73.546  0.00  0.00     0.030 H 
ENDBRANCH  13  29
ENDBRANCH  10  13
ENDBRANCH   7   9
BRANCH   7  33
ATOM     33  C11 non d ame      -8.027   5.620  67.288  0.00  0.00    -0.033 C 
ATOM     34  H12 non d ame      -8.420   6.526  66.829  0.00  0.00     0.042 H 
BRANCH  33  35
ATOM     35  C12 non d ame      -7.406   4.748  66.152  0.00  0.00    -0.071 C 
ATOM     36  H13 non d ame      -7.621   3.696  66.342  0.00  0.00     0.028 H 
ATOM     37  H14 non d ame      -7.837   5.039  65.194  0.00  0.00     0.028 H 
ATOM     38  H15 non d ame      -6.328   4.900  66.127  0.00  0.00     0.028 H 
ENDBRANCH  33  35
BRANCH  33  39
ATOM     39  C13 non d ame      -9.213   4.878  67.985  0.00  0.00    -0.071 C 
ATOM     40  H16 non d ame      -8.968   4.705  69.032  0.00  0.00     0.028 H 
ATOM     41  H17 non d ame     -10.114   5.491  67.919  0.00  0.00     0.028 H 
ATOM     42  H18 non d ame      -9.387   3.923  67.489  0.00  0.00     0.028 H 
ENDBRANCH  33  39
ENDBRANCH   7  33
ENDBRANCH   4   7
ENDBRANCH   1   3
BRANCH   1  43
ATOM     43  C15 non d ame      -7.171  10.650  66.628  0.00  0.00     0.240 C 
ATOM     44  O5  non d ame      -6.716  11.747  66.584  0.00  0.00    -0.271 OA
ATOM     45  N6  non d ame      -8.630  10.462  66.878  0.00  0.00    -0.355 N 
ATOM     46  H46 non d ame      -9.028   9.535  66.913  0.00  0.00     0.162 HD
BRANCH  45  47
ATOM     47  C20 non d ame      -9.497  11.643  67.076  0.00  0.00     0.013 C 
ATOM     48  H30 non d ame      -8.937  12.527  66.770  0.00  0.00     0.072 H 
BRANCH  47  49
ATOM     49  C21 non d ame      -9.871  11.750  68.537  0.00  0.00    -0.038 C 
ATOM     50  H31 non d ame      -9.442  10.870  69.016  0.00  0.00     0.036 H 
ATOM     51  H32 non d ame      -9.559  12.747  68.848  0.00  0.00     0.036 H 
BRANCH  49  52
ATOM     52  C22 non d ame     -11.395  11.676  68.772  0.00  0.00     0.018 C 
ATOM     53  H33 non d ame     -11.848  11.679  67.780  0.00  0.00     0.048 H 
ATOM     54  H34 non d ame     -11.550  10.828  69.438  0.00  0.00     0.048 H 
BRANCH  52  55
ATOM     55  C23 non d ame     -11.976  12.914  69.511  0.00  0.00     0.259 C 
ATOM     56  O7  non d ame     -12.144  12.889  70.687  0.00  0.00    -0.265 OA
BRANCH  55  57
ATOM     57  O8  non d ame     -12.320  14.074  68.763  0.00  0.00    -0.317 OA
BRANCH  57  58
ATOM     58  C29 non d ame     -11.622  15.255  69.170  0.00  0.00     0.052 C 
ATOM     59  H47 non d ame     -12.246  16.090  68.851  0.00  0.00     0.082 H 
ATOM     60  H48 non d ame     -11.398  15.115  70.227  0.00  0.00     0.082 H 
BRANCH  58  61
ATOM     61  C35 non d ame     -10.283  15.314  68.388  0.00  0.00    -0.034 A 
ATOM     62  C30 non d ame     -10.289  15.368  66.998  0.00  0.00    -0.075 A 
ATOM     63  C31 non d ame      -9.086  15.420  66.296  0.00  0.00    -0.082 A 
ATOM     64  H49 non d ame     -11.237  15.370  66.458  0.00  0.00     0.084 H 
ATOM     65  C32 non d ame      -7.873  15.415  66.989  0.00  0.00    -0.083 A 
ATOM     66  H50 non d ame      -9.094  15.466  65.206  0.00  0.00     0.083 H 
ATOM     67  C33 non d ame      -7.871  15.357  68.376  0.00  0.00    -0.082 A 
ATOM     68  H51 non d ame      -6.928  15.457  66.448  0.00  0.00     0.083 H 
ATOM     69  C34 non d ame      -9.072  15.307  69.082  0.00  0.00    -0.075 A 
ATOM     70  H52 non d ame      -6.923  15.352  68.914  0.00  0.00     0.083 H 
ATOM     71  H53 non d ame      -9.062  15.263  70.172  0.00  0.00     0.084 H 
ENDBRANCH  58  61
ENDBRANCH  57  58
ENDBRANCH  55  57
ENDBRANCH  52  55
ENDBRANCH  49  52
ENDBRANCH  47  49
BRANCH  47  72
ATOM     72  C24 non d ame     -10.763  11.500  66.234  0.00  0.00    -0.039 C 
ATOM     73  H35 non d ame     -10.900  10.427  66.096  0.00  0.00     0.036 H 
ATOM     74  H36 non d ame     -11.524  12.083  66.753  0.00  0.00     0.036 H 
BRANCH  72  75
ATOM     75  C25 non d ame     -10.585  12.145  64.779  0.00  0.00    -0.001 C 
ATOM     76  C26 non d ame     -11.885  13.086  64.421  0.00  0.00    -0.035 C 
ATOM     77  C27 non d ame     -12.365  12.724  63.207  0.00  0.00     0.085 C 
ATOM     78  H38 non d ame     -12.708  12.861  65.098  0.00  0.00     0.036 H 
ATOM     79  H39 non d ame     -11.570  14.119  64.271  0.00  0.00     0.036 H 
ATOM     80  N5  non d ame     -11.716  11.407  62.851  0.00  0.00    -0.049 N 
ATOM     81  H40 non d ame     -13.434  12.565  63.352  0.00  0.00     0.075 H 
ATOM     82  H41 non d ame     -12.016  13.489  62.515  0.00  0.00     0.075 H 
ATOM     83  C28 non d ame     -10.477  11.233  63.871  0.00  0.00     0.193 C 
ATOM     84  H42 non d ame     -12.398  10.690  63.048  0.00  0.00     0.280 HD
ATOM     85  H43 non d ame     -11.349  11.513  61.916  0.00  0.00     0.280 HD
ATOM     86  H44 non d ame      -9.454  11.405  63.537  0.00  0.00     0.129 H 
ATOM     87  H37 non d ame      -9.599  12.589  64.643  0.00  0.00     0.046 H 
BRANCH  83  88
ATOM     88  O6  non d ame     -10.479   9.917  64.429  0.00  0.00    -0.369 OA
ATOM     89  H45 non d ame     -11.318   9.491  64.239  0.00  0.00     0.212 HD
ENDBRANCH  83  88
ENDBRANCH  72  75
ENDBRANCH  47  72
ENDBRANCH  45  47
ENDBRANCH   1  43
BRANCH   1  90
ATOM     90  C16 non d ame      -5.956   9.244  64.935  0.00  0.00    -0.035 C 
ATOM     91  H21 non d ame      -6.447  10.086  64.444  0.00  0.00     0.037 H 
ATOM     92  H22 non d ame      -4.875   9.128  64.864  0.00  0.00     0.037 H 
BRANCH  90  93
ATOM     93  C17 non d ame      -6.581   7.951  64.322  0.00  0.00    -0.059 C 
ATOM     94  H23 non d ame      -7.065   7.403  65.130  0.00  0.00     0.038 H 
BRANCH  93  95
ATOM     95  C18 non d ame      -7.667   8.274  63.247  0.00  0.00    -0.073 C 
ATOM     96  H24 non d ame      -7.199   8.761  62.392  0.00  0.00     0.028 H 
ATOM     97  H25 non d ame      -8.142   7.348  62.922  0.00  0.00     0.028 H 
ATOM     98  H26 non d ame      -8.419   8.936  63.678  0.00  0.00     0.028 H 
ENDBRANCH  93  95
BRANCH  93  99
ATOM     99  C19 non d ame      -5.495   7.040  63.743  0.00  0.00    -0.073 C 
ATOM    100  H27 non d ame      -4.656   7.647  63.401  0.00  0.00     0.028 H 
ATOM    101  H28 non d ame      -5.154   6.348  64.513  0.00  0.00     0.028 H 
ATOM    102  H29 non d ame      -5.903   6.476  62.904  0.00  0.00     0.028 H 
ENDBRANCH  93  99
ENDBRANCH  90  93
ENDBRANCH   1  90
TORSDOF 26
ENDMDL
MODEL 20
REMARK VINA RESULT:      -6.2      1.668      2.202
REMARK  26 active torsions:
REMARK  status: ('A' for Active; 'I' for Inactive)
REMARK    1  A    between atoms: C2_2  and  C3_3 
REMARK    2  A    between atoms: C4_6  and  C5_7 
REMARK       I    between atoms: C5_7  and  N2_9 
REMARK    3  A    between atoms: N2_9  and  C6_10 
REMARK    4  A    between atoms: C6_10  and  C7_11 
REMARK    5  A    between atoms: C6_10  and  C8_13 
REMARK       I    between atoms: C7_11  and  N3_14 
REMARK    6  A    between atoms: N3_14  and  C9_15 
REMARK    7  A    between atoms: C9_15  and  C10_16 
REMARK    8  A    between atoms: C9_15  and  C11_18 
REMARK       I    between atoms: C10_16  and  N4_21 
REMARK    9  A    between atoms: C11_18  and  C12_19 
REMARK   10  A    between atoms: C11_18  and  C13_20 
REMARK   11  A    between atoms: N4_21  and  C14_22 
REMARK   12  A    between atoms: C14_22  and  C15_23 
REMARK   13  A    between atoms: C14_22  and  C16_25 
REMARK       I    between atoms: C15_23  and  N6_40 
REMARK   14  A    between atoms: C16_25  and  C17_26 
REMARK   15  A    between atoms: C17_26  and  C18_27 
REMARK   16  A    between atoms: C17_26  and  C19_28 
REMARK   17  A    between atoms: C20_29  and  C21_30 
REMARK   18  A    between atoms: C20_29  and  C24_33 
REMARK   19  A    between atoms: C20_29  and  N6_40 
REMARK   20  A    between atoms: C21_30  and  C22_31 
REMARK   21  A    between atoms: C22_31  and  C23_32 
REMARK   22  A    between atoms: C23_32  and  O8_43 
REMARK   23  A    between atoms: C24_33  and  C25_34 
REMARK   24  A    between atoms: C28_38  and  O6_39 
REMARK   25  A    between atoms: C29_42  and  O8_43 
REMARK   26  A    between atoms: C29_42  and  C35_49 
ROOT
ATOM      1  C14 non d ame      -9.018   6.133  65.361  0.00  0.00     0.089 C 
ATOM      2  H20 non d ame      -9.543   5.984  64.417  0.00  0.00     0.087 H 
ENDROOT
BRANCH   1   3
ATOM      3  N4  non d ame      -8.535   7.506  65.383  0.00  0.00    -0.346 N 
ATOM      4  C10 non d ame      -8.143   8.196  64.100  0.00  0.00     0.241 C 
ATOM      5  O4  non d ame      -8.222   7.623  63.062  0.00  0.00    -0.271 OA
ATOM      6  H19 non d ame      -8.473   7.975  66.275  0.00  0.00     0.163 HD
BRANCH   4   7
ATOM      7  C9  non d ame      -7.650   9.618  64.139  0.00  0.00     0.092 C 
ATOM      8  H11 non d ame      -7.442   9.955  63.124  0.00  0.00     0.088 H 
BRANCH   7   9
ATOM      9  N3  non d ame      -8.705  10.486  64.674  0.00  0.00    -0.346 N 
ATOM     10  C7  non d ame      -9.700  11.039  63.790  0.00  0.00     0.240 C 
ATOM     11  O3  non d ame      -9.669  10.798  62.645  0.00  0.00    -0.271 OA
ATOM     12  H10 non d ame      -8.744  10.704  65.660  0.00  0.00     0.163 HD
BRANCH  10  13
ATOM     13  C6  non d ame     -10.817  11.965  64.365  0.00  0.00     0.086 C 
ATOM     14  H6  non d ame     -11.187  11.628  65.334  0.00  0.00     0.086 H 
BRANCH  13  15
ATOM     15  N2  non d ame     -10.269  13.296  64.569  0.00  0.00    -0.343 N 
ATOM     16  C5  non d ame     -11.007  14.264  65.383  0.00  0.00     0.273 C 
ATOM     17  O2  non d ame     -12.042  13.964  65.867  0.00  0.00    -0.266 OA
ATOM     18  H5  non d ame      -9.384  13.545  64.148  0.00  0.00     0.163 HD
BRANCH  16  19
ATOM     19  C4  non d ame     -10.438  15.674  65.606  0.00  0.00     0.154 A 
ATOM     20  C1  non d ame      -9.357  16.044  66.469  0.00  0.00    -0.017 A 
ATOM     21  C2  non d ame      -9.230  17.441  66.313  0.00  0.00     0.077 A 
ATOM     22  H1  non d ame      -8.758  15.397  67.110  0.00  0.00     0.091 H 
ATOM     23  O1  non d ame     -10.133  17.820  65.457  0.00  0.00    -0.218 OA
ATOM     24  N1  non d ame     -10.851  16.806  65.030  0.00  0.00    -0.123 NA
BRANCH  21  25
ATOM     25  C3  non d ame      -8.219  18.338  67.015  0.00  0.00    -0.029 C 
ATOM     26  H2  non d ame      -7.859  19.096  66.319  0.00  0.00     0.036 H 
ATOM     27  H3  non d ame      -8.694  18.824  67.867  0.00  0.00     0.036 H 
ATOM     28  H4  non d ame      -7.378  17.736  67.363  0.00  0.00     0.036 H 
ENDBRANCH  21  25
ENDBRANCH  16  19
ENDBRANCH  13  15
BRANCH  13  29
ATOM     29  C8  non d ame     -11.972  12.024  63.398  0.00  0.00    -0.049 C 
ATOM     30  H7  non d ame     -11.618  11.784  62.395  0.00  0.00     0.030 H 
ATOM     31  H8  non d ame     -12.735  11.307  63.696  0.00  0.00     0.030 H 
ATOM     32  H9  non d ame     -12.396  13.029  63.401  0.00  0.00     0.030 H 
ENDBRANCH  13  29
ENDBRANCH  10  13
ENDBRANCH   7   9
BRANCH   7  33
ATOM     33  C11 non d ame      -6.394   9.707  65.055  0.00  0.00    -0.033 C 
ATOM     34  H12 non d ame      -5.892  10.648  64.834  0.00  0.00     0.042 H 
BRANCH  33  35
ATOM     35  C12 non d ame      -6.792   9.729  66.564  0.00  0.00    -0.071 C 
ATOM     36  H13 non d ame      -7.876   9.668  66.655  0.00  0.00     0.028 H 
ATOM     37  H14 non d ame      -6.336   8.880  67.072  0.00  0.00     0.028 H 
ATOM     38  H15 non d ame      -6.441  10.656  67.017  0.00  0.00     0.028 H 
ENDBRANCH  33  35
BRANCH  33  39
ATOM     39  C13 non d ame      -5.397   8.543  64.750  0.00  0.00    -0.071 C 
ATOM     40  H16 non d ame      -4.468   8.955  64.357  0.00  0.00     0.028 H 
ATOM     41  H17 non d ame      -5.190   7.992  65.668  0.00  0.00     0.028 H 
ATOM     42  H18 non d ame      -5.837   7.870  64.014  0.00  0.00     0.028 H 
ENDBRANCH  33  39
ENDBRANCH   7  33
ENDBRANCH   4   7
ENDBRANCH   1   3
BRANCH   1  43
ATOM     43  C15 non d ame      -9.946   5.917  66.590  0.00  0.00     0.240 C 
ATOM     44  O5  non d ame     -10.800   5.091  66.548  0.00  0.00    -0.271 OA
ATOM     45  N6  non d ame      -9.765   6.733  67.825  0.00  0.00    -0.355 N 
ATOM     46  H46 non d ame      -9.040   7.434  67.873  0.00  0.00     0.162 HD
BRANCH  45  47
ATOM     47  C20 non d ame     -10.655   6.515  68.985  0.00  0.00     0.013 C 
ATOM     48  H30 non d ame     -11.655   6.303  68.606  0.00  0.00     0.072 H 
BRANCH  47  49
ATOM     49  C21 non d ame     -10.681   7.763  69.838  0.00  0.00    -0.038 C 
ATOM     50  H31 non d ame     -11.677   7.799  70.277  0.00  0.00     0.036 H 
ATOM     51  H32 non d ame      -9.803   7.698  70.481  0.00  0.00     0.036 H 
BRANCH  49  52
ATOM     52  C22 non d ame     -10.521   9.057  69.010  0.00  0.00     0.018 C 
ATOM     53  H33 non d ame      -9.458   9.134  68.783  0.00  0.00     0.048 H 
ATOM     54  H34 non d ame     -11.246   8.982  68.201  0.00  0.00     0.048 H 
BRANCH  52  55
ATOM     55  C23 non d ame     -10.886  10.350  69.793  0.00  0.00     0.259 C 
ATOM     56  O7  non d ame     -11.289  10.286  70.908  0.00  0.00    -0.265 OA
BRANCH  55  57
ATOM     57  O8  non d ame     -10.745  11.613  69.155  0.00  0.00    -0.317 OA
BRANCH  57  58
ATOM     58  C29 non d ame     -11.984  12.294  68.932  0.00  0.00     0.052 C 
ATOM     59  H47 non d ame     -11.980  12.577  67.880  0.00  0.00     0.082 H 
ATOM     60  H48 non d ame     -12.758  11.628  69.314  0.00  0.00     0.082 H 
BRANCH  58  61
ATOM     61  C35 non d ame     -11.981  13.587  69.790  0.00  0.00    -0.034 A 
ATOM     62  C30 non d ame     -11.367  14.740  69.312  0.00  0.00    -0.075 A 
ATOM     63  C31 non d ame     -11.365  15.901  70.084  0.00  0.00    -0.082 A 
ATOM     64  H49 non d ame     -10.889  14.734  68.332  0.00  0.00     0.084 H 
ATOM     65  C32 non d ame     -11.975  15.905  71.340  0.00  0.00    -0.083 A 
ATOM     66  H50 non d ame     -10.886  16.804  69.704  0.00  0.00     0.083 H 
ATOM     67  C33 non d ame     -12.583  14.751  71.816  0.00  0.00    -0.082 A 
ATOM     68  H51 non d ame     -11.978  16.809  71.949  0.00  0.00     0.083 H 
ATOM     69  C34 non d ame     -12.590  13.589  71.046  0.00  0.00    -0.075 A 
ATOM     70  H52 non d ame     -13.057  14.757  72.798  0.00  0.00     0.083 H 
ATOM     71  H53 non d ame     -13.071  12.686  71.427  0.00  0.00     0.084 H 
ENDBRANCH  58  61
ENDBRANCH  57  58
ENDBRANCH  55  57
ENDBRANCH  52  55
ENDBRANCH  49  52
ENDBRANCH  47  49
BRANCH  47  72
ATOM     72  C24 non d ame     -10.142   5.340  69.815  0.00  0.00    -0.039 C 
ATOM     73  H35 non d ame     -11.022   4.926  70.306  0.00  0.00     0.036 H 
ATOM     74  H36 non d ame      -9.565   4.726  69.123  0.00  0.00     0.036 H 
BRANCH  72  75
ATOM     75  C25 non d ame      -9.139   5.821  70.968  0.00  0.00    -0.001 C 
ATOM     76  C26 non d ame      -7.584   5.574  70.496  0.00  0.00    -0.035 C 
ATOM     77  C27 non d ame      -6.935   4.893  71.471  0.00  0.00     0.085 C 
ATOM     78  H38 non d ame      -7.554   4.893  69.646  0.00  0.00     0.036 H 
ATOM     79  H39 non d ame      -7.051   6.524  70.451  0.00  0.00     0.036 H 
ATOM     80  N5  non d ame      -7.988   4.368  72.417  0.00  0.00    -0.049 N 
ATOM     81  H40 non d ame      -6.457   4.051  70.969  0.00  0.00     0.075 H 
ATOM     82  H41 non d ame      -6.329   5.634  71.990  0.00  0.00     0.075 H 
ATOM     83  C28 non d ame      -9.342   5.173  72.066  0.00  0.00     0.193 C 
ATOM     84  H42 non d ame      -8.122   3.395  72.185  0.00  0.00     0.280 HD
ATOM     85  H43 non d ame      -7.692   4.629  73.347  0.00  0.00     0.280 HD
ATOM     86  H44 non d ame      -9.692   5.979  72.711  0.00  0.00     0.129 H 
ATOM     87  H37 non d ame      -9.391   6.812  71.346  0.00  0.00     0.046 H 
BRANCH  83  88
ATOM     88  O6  non d ame     -10.442   4.266  71.960  0.00  0.00    -0.369 OA
ATOM     89  H45 non d ame     -10.315   3.698  71.196  0.00  0.00     0.212 HD
ENDBRANCH  83  88
ENDBRANCH  72  75
ENDBRANCH  47  72
ENDBRANCH  45  47
ENDBRANCH   1  43
BRANCH   1  90
ATOM     90  C16 non d ame      -7.830   5.189  65.445  0.00  0.00    -0.035 C 
ATOM     91  H21 non d ame      -8.208   4.219  65.117  0.00  0.00     0.037 H 
ATOM     92  H22 non d ame      -7.032   5.679  64.888  0.00  0.00     0.037 H 
BRANCH  90  93
ATOM     93  C17 non d ame      -7.293   4.983  66.897  0.00  0.00    -0.059 C 
ATOM     94  H23 non d ame      -7.949   5.532  67.572  0.00  0.00     0.038 H 
BRANCH  93  95
ATOM     95  C18 non d ame      -7.316   3.482  67.327  0.00  0.00    -0.073 C 
ATOM     96  H24 non d ame      -6.611   3.328  68.145  0.00  0.00     0.028 H 
ATOM     97  H25 non d ame      -8.319   3.214  67.657  0.00  0.00     0.028 H 
ATOM     98  H26 non d ame      -7.033   2.857  66.480  0.00  0.00     0.028 H 
ENDBRANCH  93  95
BRANCH  93  99
ATOM     99  C19 non d ame      -5.888   5.572  67.050  0.00  0.00    -0.073 C 
ATOM    100  H27 non d ame      -5.687   6.252  66.221  0.00  0.00     0.028 H 
ATOM    101  H28 non d ame      -5.824   6.118  67.991  0.00  0.00     0.028 H 
ATOM    102  H29 non d ame      -5.154   4.767  67.047  0.00  0.00     0.028 H 
ENDBRANCH  93  99
ENDBRANCH  90  93
ENDBRANCH   1  90
TORSDOF 26
ENDMDL
