MODEL 1
REMARK VINA RESULT:      -7.0      0.000      0.000
REMARK  26 active torsions:
REMARK  status: ('A' for Active; 'I' for Inactive)
REMARK    1  A    between atoms: C2_2  and  C3_3 
REMARK    2  A    between atoms: C4_6  and  C5_7 
REMARK       I    between atoms: C5_7  and  N2_9 
REMARK    3  A    between atoms: N2_9  and  C6_10 
REMARK    4  A    between atoms: C6_10  and  C7_11 
REMARK    5  A    between atoms: C6_10  and  C8_13 
REMARK       I    between atoms: C7_11  and  N3_14 
REMARK    6  A    between atoms: N3_14  and  C9_15 
REMARK    7  A    between atoms: C9_15  and  C10_16 
REMARK    8  A    between atoms: C9_15  and  C11_18 
REMARK       I    between atoms: C10_16  and  N4_21 
REMARK    9  A    between atoms: C11_18  and  C12_19 
REMARK   10  A    between atoms: C11_18  and  C13_20 
REMARK   11  A    between atoms: N4_21  and  C14_22 
REMARK   12  A    between atoms: C14_22  and  C15_23 
REMARK   13  A    between atoms: C14_22  and  C16_25 
REMARK       I    between atoms: C15_23  and  N6_40 
REMARK   14  A    between atoms: C16_25  and  C17_26 
REMARK   15  A    between atoms: C17_26  and  C18_27 
REMARK   16  A    between atoms: C17_26  and  C19_28 
REMARK   17  A    between atoms: C20_29  and  C21_30 
REMARK   18  A    between atoms: C20_29  and  C24_33 
REMARK   19  A    between atoms: C20_29  and  N6_40 
REMARK   20  A    between atoms: C21_30  and  C22_31 
REMARK   21  A    between atoms: C22_31  and  C23_32 
REMARK   22  A    between atoms: C23_32  and  O8_43 
REMARK   23  A    between atoms: C24_33  and  C25_34 
REMARK   24  A    between atoms: C28_38  and  O6_39 
REMARK   25  A    between atoms: C29_42  and  O8_43 
REMARK   26  A    between atoms: C29_42  and  C35_49 
ROOT
ATOM      1  C14 non d ame     -12.129  14.016  69.596  0.00  0.00     0.089 C 
ATOM      2  H20 non d ame     -13.091  13.807  69.126  0.00  0.00     0.087 H 
ENDROOT
BRANCH   1   3
ATOM      3  N4  non d ame     -11.624  12.762  70.136  0.00  0.00    -0.346 N 
ATOM      4  C10 non d ame     -11.700  11.496  69.319  0.00  0.00     0.241 C 
ATOM      5  O4  non d ame     -12.176  11.511  68.231  0.00  0.00    -0.271 OA
ATOM      6  H19 non d ame     -11.226  12.769  71.064  0.00  0.00     0.163 HD
BRANCH   4   7
ATOM      7  C9  non d ame     -11.168  10.208  69.890  0.00  0.00     0.092 C 
ATOM      8  H11 non d ame     -11.337   9.401  69.176  0.00  0.00     0.088 H 
BRANCH   7   9
ATOM      9  N3  non d ame      -9.718  10.319  70.080  0.00  0.00    -0.346 N 
ATOM     10  C7  non d ame      -8.826  10.092  68.971  0.00  0.00     0.240 C 
ATOM     11  O3  non d ame      -9.256   9.817  67.918  0.00  0.00    -0.271 OA
ATOM     12  H10 non d ame      -9.332  10.555  70.984  0.00  0.00     0.163 HD
BRANCH  10  13
ATOM     13  C6  non d ame      -7.284  10.209  69.181  0.00  0.00     0.086 C 
ATOM     14  H6  non d ame      -6.712   9.764  68.367  0.00  0.00     0.086 H 
BRANCH  13  15
ATOM     15  N2  non d ame      -6.920  11.616  69.223  0.00  0.00    -0.343 N 
ATOM     16  C5  non d ame      -6.538  12.301  67.986  0.00  0.00     0.273 C 
ATOM     17  O2  non d ame      -6.524  11.710  66.963  0.00  0.00    -0.266 OA
ATOM     18  H5  non d ame      -6.932  12.112  70.103  0.00  0.00     0.163 HD
BRANCH  16  19
ATOM     19  C4  non d ame      -6.152  13.787  68.017  0.00  0.00     0.154 A 
ATOM     20  C1  non d ame      -5.117  14.397  68.795  0.00  0.00    -0.017 A 
ATOM     21  C2  non d ame      -5.172  15.768  68.463  0.00  0.00     0.077 A 
ATOM     22  H1  non d ame      -4.431  13.916  69.493  0.00  0.00     0.091 H 
ATOM     23  O1  non d ame      -6.128  15.919  67.594  0.00  0.00    -0.218 OA
ATOM     24  N1  non d ame      -6.715  14.777  67.318  0.00  0.00    -0.123 NA
BRANCH  21  25
ATOM     25  C3  non d ame      -4.276  16.867  69.019  0.00  0.00    -0.029 C 
ATOM     26  H2  non d ame      -3.899  17.478  68.200  0.00  0.00     0.036 H 
ATOM     27  H3  non d ame      -4.848  17.491  69.705  0.00  0.00     0.036 H 
ATOM     28  H4  non d ame      -3.437  16.417  69.553  0.00  0.00     0.036 H 
ENDBRANCH  21  25
ENDBRANCH  16  19
ENDBRANCH  13  15
BRANCH  13  29
ATOM     29  C8  non d ame      -6.897   9.537  70.473  0.00  0.00    -0.049 C 
ATOM     30  H7  non d ame      -6.190   8.732  70.267  0.00  0.00     0.030 H 
ATOM     31  H8  non d ame      -6.435  10.265  71.139  0.00  0.00     0.030 H 
ATOM     32  H9  non d ame      -7.787   9.123  70.948  0.00  0.00     0.030 H 
ENDBRANCH  13  29
ENDBRANCH  10  13
ENDBRANCH   7   9
BRANCH   7  33
ATOM     33  C11 non d ame     -11.849   9.928  71.261  0.00  0.00    -0.033 C 
ATOM     34  H12 non d ame     -11.677  10.796  71.897  0.00  0.00     0.042 H 
BRANCH  33  35
ATOM     35  C12 non d ame     -13.393   9.759  71.106  0.00  0.00    -0.071 C 
ATOM     36  H13 non d ame     -13.604   9.123  70.246  0.00  0.00     0.028 H 
ATOM     37  H14 non d ame     -13.801   9.301  72.006  0.00  0.00     0.028 H 
ATOM     38  H15 non d ame     -13.850  10.736  70.955  0.00  0.00     0.028 H 
ENDBRANCH  33  35
BRANCH  33  39
ATOM     39  C13 non d ame     -11.212   8.683  71.959  0.00  0.00    -0.071 C 
ATOM     40  H16 non d ame     -11.500   7.780  71.423  0.00  0.00     0.028 H 
ATOM     41  H17 non d ame     -10.125   8.779  71.952  0.00  0.00     0.028 H 
ATOM     42  H18 non d ame     -11.564   8.623  72.988  0.00  0.00     0.028 H 
ENDBRANCH  33  39
ENDBRANCH   7  33
ENDBRANCH   4   7
ENDBRANCH   1   3
BRANCH   1  43
ATOM     43  C15 non d ame     -11.088  14.574  68.585  0.00  0.00     0.240 C 
ATOM     44  O5  non d ame     -10.071  15.042  68.981  0.00  0.00    -0.271 OA
ATOM     45  N6  non d ame     -11.356  14.516  67.119  0.00  0.00    -0.355 N 
ATOM     46  H46 non d ame     -12.215  14.116  66.771  0.00  0.00     0.162 HD
BRANCH  45  47
ATOM     47  C20 non d ame     -10.356  15.049  66.170  0.00  0.00     0.013 C 
ATOM     48  H30 non d ame      -9.368  14.900  66.604  0.00  0.00     0.072 H 
BRANCH  47  49
ATOM     49  C21 non d ame     -10.608  16.525  65.955  0.00  0.00    -0.038 C 
ATOM     50  H31 non d ame     -10.613  16.668  64.875  0.00  0.00     0.036 H 
ATOM     51  H32 non d ame     -11.497  16.760  66.541  0.00  0.00     0.036 H 
BRANCH  49  52
ATOM     52  C22 non d ame      -9.473  17.413  66.508  0.00  0.00     0.018 C 
ATOM     53  H33 non d ame      -8.922  16.786  67.210  0.00  0.00     0.048 H 
ATOM     54  H34 non d ame      -8.968  17.826  65.635  0.00  0.00     0.048 H 
BRANCH  52  55
ATOM     55  C23 non d ame      -9.975  18.633  67.330  0.00  0.00     0.259 C 
ATOM     56  O7  non d ame     -11.138  18.855  67.428  0.00  0.00    -0.265 OA
BRANCH  55  57
ATOM     57  O8  non d ame      -9.027  19.491  67.953  0.00  0.00    -0.317 OA
BRANCH  57  58
ATOM     58  C29 non d ame      -8.041  18.803  68.728  0.00  0.00     0.052 C 
ATOM     59  H47 non d ame      -8.351  18.915  69.766  0.00  0.00     0.082 H 
ATOM     60  H48 non d ame      -7.960  17.810  68.287  0.00  0.00     0.082 H 
BRANCH  58  61
ATOM     61  C35 non d ame      -6.686  19.536  68.537  0.00  0.00    -0.034 A 
ATOM     62  C30 non d ame      -6.081  19.567  67.285  0.00  0.00    -0.075 A 
ATOM     63  C31 non d ame      -4.864  20.226  67.114  0.00  0.00    -0.082 A 
ATOM     64  H49 non d ame      -6.560  19.078  66.437  0.00  0.00     0.084 H 
ATOM     65  C32 non d ame      -4.250  20.851  68.202  0.00  0.00    -0.083 A 
ATOM     66  H50 non d ame      -4.394  20.251  66.130  0.00  0.00     0.083 H 
ATOM     67  C33 non d ame      -4.855  20.813  69.451  0.00  0.00    -0.082 A 
ATOM     68  H51 non d ame      -3.298  21.368  68.077  0.00  0.00     0.083 H 
ATOM     69  C34 non d ame      -6.073  20.159  69.625  0.00  0.00    -0.075 A 
ATOM     70  H52 non d ame      -4.372  21.301  70.299  0.00  0.00     0.083 H 
ATOM     71  H53 non d ame      -6.543  20.135  70.610  0.00  0.00     0.084 H 
ENDBRANCH  58  61
ENDBRANCH  57  58
ENDBRANCH  55  57
ENDBRANCH  52  55
ENDBRANCH  49  52
ENDBRANCH  47  49
BRANCH  47  72
ATOM     72  C24 non d ame     -10.467  14.313  64.836  0.00  0.00    -0.039 C 
ATOM     73  H35 non d ame     -11.128  14.925  64.222  0.00  0.00     0.036 H 
ATOM     74  H36 non d ame      -9.440  14.134  64.517  0.00  0.00     0.036 H 
BRANCH  72  75
ATOM     75  C25 non d ame     -11.166  12.882  65.004  0.00  0.00    -0.001 C 
ATOM     76  C26 non d ame     -10.026  11.697  64.986  0.00  0.00    -0.035 C 
ATOM     77  C27 non d ame     -10.389  10.757  64.080  0.00  0.00     0.085 C 
ATOM     78  H38 non d ame      -9.089  12.085  64.589  0.00  0.00     0.036 H 
ATOM     79  H39 non d ame     -10.034  11.155  65.932  0.00  0.00     0.036 H 
ATOM     80  N5  non d ame     -11.499  11.352  63.247  0.00  0.00    -0.049 N 
ATOM     81  H40 non d ame      -9.512  10.607  63.449  0.00  0.00     0.075 H 
ATOM     82  H41 non d ame     -10.788   9.929  64.664  0.00  0.00     0.075 H 
ATOM     83  C28 non d ame     -12.007  12.656  64.051  0.00  0.00     0.193 C 
ATOM     84  H42 non d ame     -11.076  11.652  62.381  0.00  0.00     0.280 HD
ATOM     85  H43 non d ame     -12.244  10.671  63.236  0.00  0.00     0.280 HD
ATOM     86  H44 non d ame     -12.941  12.633  64.612  0.00  0.00     0.129 H 
ATOM     87  H37 non d ame     -11.883  12.867  65.825  0.00  0.00     0.046 H 
BRANCH  83  88
ATOM     88  O6  non d ame     -12.124  13.769  63.162  0.00  0.00    -0.369 OA
ATOM     89  H45 non d ame     -12.002  13.470  62.258  0.00  0.00     0.212 HD
ENDBRANCH  83  88
ENDBRANCH  72  75
ENDBRANCH  47  72
ENDBRANCH  45  47
ENDBRANCH   1  43
BRANCH   1  90
ATOM     90  C16 non d ame     -12.317  15.005  70.735  0.00  0.00    -0.035 C 
ATOM     91  H21 non d ame     -11.332  15.111  71.191  0.00  0.00     0.037 H 
ATOM     92  H22 non d ame     -12.806  15.870  70.288  0.00  0.00     0.037 H 
BRANCH  90  93
ATOM     93  C17 non d ame     -13.271  14.492  71.860  0.00  0.00    -0.059 C 
ATOM     94  H23 non d ame     -13.277  13.403  71.818  0.00  0.00     0.038 H 
BRANCH  93  95
ATOM     95  C18 non d ame     -12.783  14.910  73.284  0.00  0.00    -0.073 C 
ATOM     96  H24 non d ame     -13.257  15.850  73.569  0.00  0.00     0.028 H 
ATOM     97  H25 non d ame     -13.051  14.135  74.002  0.00  0.00     0.028 H 
ATOM     98  H26 non d ame     -11.700  15.037  73.273  0.00  0.00     0.028 H 
ENDBRANCH  93  95
BRANCH  93  99
ATOM     99  C19 non d ame     -14.708  14.963  71.617  0.00  0.00    -0.073 C 
ATOM    100  H27 non d ame     -15.124  15.354  72.546  0.00  0.00     0.028 H 
ATOM    101  H28 non d ame     -14.708  15.747  70.860  0.00  0.00     0.028 H 
ATOM    102  H29 non d ame     -15.312  14.125  71.271  0.00  0.00     0.028 H 
ENDBRANCH  93  99
ENDBRANCH  90  93
ENDBRANCH   1  90
TORSDOF 26
ENDMDL
MODEL 2
REMARK VINA RESULT:      -7.0      3.678      7.348
REMARK  26 active torsions:
REMARK  status: ('A' for Active; 'I' for Inactive)
REMARK    1  A    between atoms: C2_2  and  C3_3 
REMARK    2  A    between atoms: C4_6  and  C5_7 
REMARK       I    between atoms: C5_7  and  N2_9 
REMARK    3  A    between atoms: N2_9  and  C6_10 
REMARK    4  A    between atoms: C6_10  and  C7_11 
REMARK    5  A    between atoms: C6_10  and  C8_13 
REMARK       I    between atoms: C7_11  and  N3_14 
REMARK    6  A    between atoms: N3_14  and  C9_15 
REMARK    7  A    between atoms: C9_15  and  C10_16 
REMARK    8  A    between atoms: C9_15  and  C11_18 
REMARK       I    between atoms: C10_16  and  N4_21 
REMARK    9  A    between atoms: C11_18  and  C12_19 
REMARK   10  A    between atoms: C11_18  and  C13_20 
REMARK   11  A    between atoms: N4_21  and  C14_22 
REMARK   12  A    between atoms: C14_22  and  C15_23 
REMARK   13  A    between atoms: C14_22  and  C16_25 
REMARK       I    between atoms: C15_23  and  N6_40 
REMARK   14  A    between atoms: C16_25  and  C17_26 
REMARK   15  A    between atoms: C17_26  and  C18_27 
REMARK   16  A    between atoms: C17_26  and  C19_28 
REMARK   17  A    between atoms: C20_29  and  C21_30 
REMARK   18  A    between atoms: C20_29  and  C24_33 
REMARK   19  A    between atoms: C20_29  and  N6_40 
REMARK   20  A    between atoms: C21_30  and  C22_31 
REMARK   21  A    between atoms: C22_31  and  C23_32 
REMARK   22  A    between atoms: C23_32  and  O8_43 
REMARK   23  A    between atoms: C24_33  and  C25_34 
REMARK   24  A    between atoms: C28_38  and  O6_39 
REMARK   25  A    between atoms: C29_42  and  O8_43 
REMARK   26  A    between atoms: C29_42  and  C35_49 
ROOT
ATOM      1  C14 non d ame     -10.228  10.685  68.627  0.00  0.00     0.089 C 
ATOM      2  H20 non d ame      -9.300  10.642  69.199  0.00  0.00     0.087 H 
ENDROOT
BRANCH   1   3
ATOM      3  N4  non d ame     -10.851   9.372  68.705  0.00  0.00    -0.346 N 
ATOM      4  C10 non d ame     -10.124   8.221  69.357  0.00  0.00     0.241 C 
ATOM      5  O4  non d ame      -9.037   8.377  69.808  0.00  0.00    -0.271 OA
ATOM      6  H19 non d ame     -11.775   9.259  68.313  0.00  0.00     0.163 HD
BRANCH   4   7
ATOM      7  C9  non d ame     -10.785   6.870  69.434  0.00  0.00     0.092 C 
ATOM      8  H11 non d ame     -11.826   6.962  69.124  0.00  0.00     0.088 H 
BRANCH   7   9
ATOM      9  N3  non d ame     -10.133   5.953  68.493  0.00  0.00    -0.346 N 
ATOM     10  C7  non d ame     -10.449   6.016  67.089  0.00  0.00     0.240 C 
ATOM     11  O3  non d ame     -11.226   6.798  66.695  0.00  0.00    -0.271 OA
ATOM     12  H10 non d ame      -9.461   5.271  68.818  0.00  0.00     0.163 HD
BRANCH  10  13
ATOM     13  C6  non d ame      -9.754   5.034  66.094  0.00  0.00     0.086 C 
ATOM     14  H6  non d ame     -10.366   4.818  65.218  0.00  0.00     0.086 H 
BRANCH  13  15
ATOM     15  N2  non d ame      -8.530   5.647  65.604  0.00  0.00    -0.343 N 
ATOM     16  C5  non d ame      -8.180   5.529  64.187  0.00  0.00     0.273 C 
ATOM     17  O2  non d ame      -8.888   4.936  63.450  0.00  0.00    -0.266 OA
ATOM     18  H5  non d ame      -7.930   6.150  66.243  0.00  0.00     0.163 HD
BRANCH  16  19
ATOM     19  C4  non d ame      -6.890   6.173  63.657  0.00  0.00     0.154 A 
ATOM     20  C1  non d ame      -6.571   7.568  63.620  0.00  0.00    -0.017 A 
ATOM     21  C2  non d ame      -5.282   7.631  63.047  0.00  0.00     0.077 A 
ATOM     22  H1  non d ame      -7.182   8.405  63.958  0.00  0.00     0.091 H 
ATOM     23  O1  non d ame      -4.911   6.410  62.791  0.00  0.00    -0.218 OA
ATOM     24  N1  non d ame      -5.833   5.542  63.138  0.00  0.00    -0.123 NA
BRANCH  21  25
ATOM     25  C3  non d ame      -4.475   8.895  62.781  0.00  0.00    -0.029 C 
ATOM     26  H2  non d ame      -4.163   8.914  61.736  0.00  0.00     0.036 H 
ATOM     27  H3  non d ame      -5.088   9.769  62.993  0.00  0.00     0.036 H 
ATOM     28  H4  non d ame      -3.593   8.905  63.423  0.00  0.00     0.036 H 
ENDBRANCH  21  25
ENDBRANCH  16  19
ENDBRANCH  13  15
BRANCH  13  29
ATOM     29  C8  non d ame      -9.438   3.740  66.799  0.00  0.00    -0.049 C 
ATOM     30  H7  non d ame      -8.360   3.660  66.943  0.00  0.00     0.030 H 
ATOM     31  H8  non d ame      -9.937   3.721  67.767  0.00  0.00     0.030 H 
ATOM     32  H9  non d ame      -9.785   2.902  66.194  0.00  0.00     0.030 H 
ENDBRANCH  13  29
ENDBRANCH  10  13
ENDBRANCH   7   9
BRANCH   7  33
ATOM     33  C11 non d ame     -10.651   6.309  70.879  0.00  0.00    -0.033 C 
ATOM     34  H12 non d ame      -9.917   6.920  71.403  0.00  0.00     0.042 H 
BRANCH  33  35
ATOM     35  C12 non d ame     -11.998   6.422  71.659  0.00  0.00    -0.071 C 
ATOM     36  H13 non d ame     -12.315   5.430  71.983  0.00  0.00     0.028 H 
ATOM     37  H14 non d ame     -11.861   7.062  72.530  0.00  0.00     0.028 H 
ATOM     38  H15 non d ame     -12.759   6.851  71.008  0.00  0.00     0.028 H 
ENDBRANCH  33  35
BRANCH  33  39
ATOM     39  C13 non d ame     -10.130   4.836  70.862  0.00  0.00    -0.071 C 
ATOM     40  H16 non d ame      -9.040   4.837  70.873  0.00  0.00     0.028 H 
ATOM     41  H17 non d ame     -10.502   4.308  71.741  0.00  0.00     0.028 H 
ATOM     42  H18 non d ame     -10.484   4.336  69.961  0.00  0.00     0.028 H 
ENDBRANCH  33  39
ENDBRANCH   7  33
ENDBRANCH   4   7
ENDBRANCH   1   3
BRANCH   1  43
ATOM     43  C15 non d ame     -11.221  11.737  69.196  0.00  0.00     0.240 C 
ATOM     44  O5  non d ame     -12.257  11.384  69.658  0.00  0.00    -0.271 OA
ATOM     45  N6  non d ame     -10.876  13.188  69.174  0.00  0.00    -0.355 N 
ATOM     46  H46 non d ame      -9.997  13.499  68.788  0.00  0.00     0.162 HD
BRANCH  45  47
ATOM     47  C20 non d ame     -11.830  14.177  69.719  0.00  0.00     0.013 C 
ATOM     48  H30 non d ame     -12.822  13.725  69.712  0.00  0.00     0.072 H 
BRANCH  47  49
ATOM     49  C21 non d ame     -11.820  15.414  68.851  0.00  0.00    -0.038 C 
ATOM     50  H31 non d ame     -11.752  15.054  67.825  0.00  0.00     0.036 H 
ATOM     51  H32 non d ame     -12.682  16.002  69.166  0.00  0.00     0.036 H 
BRANCH  49  52
ATOM     52  C22 non d ame     -10.577  16.300  69.086  0.00  0.00     0.018 C 
ATOM     53  H33 non d ame     -10.945  17.326  69.107  0.00  0.00     0.048 H 
ATOM     54  H34 non d ame     -10.078  15.883  69.959  0.00  0.00     0.048 H 
BRANCH  52  55
ATOM     55  C23 non d ame      -9.539  16.242  67.930  0.00  0.00     0.259 C 
ATOM     56  O7  non d ame      -8.704  17.081  67.827  0.00  0.00    -0.265 OA
BRANCH  55  57
ATOM     57  O8  non d ame      -9.607  15.181  66.986  0.00  0.00    -0.317 OA
BRANCH  57  58
ATOM     58  C29 non d ame     -10.276  15.526  65.769  0.00  0.00     0.052 C 
ATOM     59  H47 non d ame     -11.096  16.181  66.060  0.00  0.00     0.082 H 
ATOM     60  H48 non d ame      -9.499  15.891  65.099  0.00  0.00     0.082 H 
BRANCH  58  61
ATOM     61  C35 non d ame     -10.874  14.227  65.167  0.00  0.00    -0.034 A 
ATOM     62  C30 non d ame     -12.193  13.876  65.436  0.00  0.00    -0.075 A 
ATOM     63  C31 non d ame     -12.729  12.708  64.895  0.00  0.00    -0.082 A 
ATOM     64  H49 non d ame     -12.806  14.515  66.071  0.00  0.00     0.084 H 
ATOM     65  C32 non d ame     -11.940  11.889  64.084  0.00  0.00    -0.083 A 
ATOM     66  H50 non d ame     -13.764  12.438  65.105  0.00  0.00     0.083 H 
ATOM     67  C33 non d ame     -10.623  12.241  63.820  0.00  0.00    -0.082 A 
ATOM     68  H51 non d ame     -12.352  10.975  63.656  0.00  0.00     0.083 H 
ATOM     69  C34 non d ame     -10.084  13.408  64.358  0.00  0.00    -0.075 A 
ATOM     70  H52 non d ame     -10.010  11.598  63.188  0.00  0.00     0.083 H 
ATOM     71  H53 non d ame      -9.049  13.679  64.145  0.00  0.00     0.084 H 
ENDBRANCH  58  61
ENDBRANCH  57  58
ENDBRANCH  55  57
ENDBRANCH  52  55
ENDBRANCH  49  52
ENDBRANCH  47  49
BRANCH  47  72
ATOM     72  C24 non d ame     -11.428  14.550  71.145  0.00  0.00    -0.039 C 
ATOM     73  H35 non d ame     -10.685  13.809  71.439  0.00  0.00     0.036 H 
ATOM     74  H36 non d ame     -11.157  15.605  71.103  0.00  0.00     0.036 H 
BRANCH  72  75
ATOM     75  C25 non d ame     -12.658  14.417  72.163  0.00  0.00    -0.001 C 
ATOM     76  C26 non d ame     -14.025  14.022  71.340  0.00  0.00    -0.035 C 
ATOM     77  C27 non d ame     -15.008  14.888  71.687  0.00  0.00     0.085 C 
ATOM     78  H38 non d ame     -13.888  14.207  70.275  0.00  0.00     0.036 H 
ATOM     79  H39 non d ame     -14.403  13.059  71.681  0.00  0.00     0.036 H 
ATOM     80  N5  non d ame     -14.349  16.033  72.419  0.00  0.00    -0.049 N 
ATOM     81  H40 non d ame     -15.417  15.257  70.745  0.00  0.00     0.075 H 
ATOM     82  H41 non d ame     -15.645  14.342  72.381  0.00  0.00     0.075 H 
ATOM     83  C28 non d ame     -12.864  15.524  72.795  0.00  0.00     0.193 C 
ATOM     84  H42 non d ame     -14.272  16.790  71.756  0.00  0.00     0.280 HD
ATOM     85  H43 non d ame     -14.870  16.162  73.275  0.00  0.00     0.280 HD
ATOM     86  H44 non d ame     -12.623  15.219  73.813  0.00  0.00     0.129 H 
ATOM     87  H37 non d ame     -12.409  13.808  73.032  0.00  0.00     0.046 H 
BRANCH  83  88
ATOM     88  O6  non d ame     -11.900  16.524  72.458  0.00  0.00    -0.369 OA
ATOM     89  H45 non d ame     -11.459  16.280  71.641  0.00  0.00     0.212 HD
ENDBRANCH  83  88
ENDBRANCH  72  75
ENDBRANCH  47  72
ENDBRANCH  45  47
ENDBRANCH   1  43
BRANCH   1  90
ATOM     90  C16 non d ame      -9.923  11.003  67.173  0.00  0.00    -0.035 C 
ATOM     91  H21 non d ame     -10.846  10.793  66.631  0.00  0.00     0.037 H 
ATOM     92  H22 non d ame      -9.512  12.012  67.178  0.00  0.00     0.037 H 
BRANCH  90  93
ATOM     93  C17 non d ame      -8.826  10.084  66.546  0.00  0.00    -0.059 C 
ATOM     94  H23 non d ame      -8.510   9.377  67.313  0.00  0.00     0.038 H 
BRANCH  93  95
ATOM     95  C18 non d ame      -9.369   9.260  65.335  0.00  0.00    -0.073 C 
ATOM     96  H24 non d ame      -8.655   8.477  65.079  0.00  0.00     0.028 H 
ATOM     97  H25 non d ame     -10.324   8.808  65.602  0.00  0.00     0.028 H 
ATOM     98  H26 non d ame      -9.507   9.922  64.479  0.00  0.00     0.028 H 
ENDBRANCH  93  95
BRANCH  93  99
ATOM     99  C19 non d ame      -7.594  10.898  66.143  0.00  0.00    -0.073 C 
ATOM    100  H27 non d ame      -7.815  11.467  65.239  0.00  0.00     0.028 H 
ATOM    101  H28 non d ame      -7.333  11.583  66.950  0.00  0.00     0.028 H 
ATOM    102  H29 non d ame      -6.758  10.224  65.955  0.00  0.00     0.028 H 
ENDBRANCH  93  99
ENDBRANCH  90  93
ENDBRANCH   1  90
TORSDOF 26
ENDMDL
MODEL 3
REMARK VINA RESULT:      -6.7      3.772      9.774
REMARK  26 active torsions:
REMARK  status: ('A' for Active; 'I' for Inactive)
REMARK    1  A    between atoms: C2_2  and  C3_3 
REMARK    2  A    between atoms: C4_6  and  C5_7 
REMARK       I    between atoms: C5_7  and  N2_9 
REMARK    3  A    between atoms: N2_9  and  C6_10 
REMARK    4  A    between atoms: C6_10  and  C7_11 
REMARK    5  A    between atoms: C6_10  and  C8_13 
REMARK       I    between atoms: C7_11  and  N3_14 
REMARK    6  A    between atoms: N3_14  and  C9_15 
REMARK    7  A    between atoms: C9_15  and  C10_16 
REMARK    8  A    between atoms: C9_15  and  C11_18 
REMARK       I    between atoms: C10_16  and  N4_21 
REMARK    9  A    between atoms: C11_18  and  C12_19 
REMARK   10  A    between atoms: C11_18  and  C13_20 
REMARK   11  A    between atoms: N4_21  and  C14_22 
REMARK   12  A    between atoms: C14_22  and  C15_23 
REMARK   13  A    between atoms: C14_22  and  C16_25 
REMARK       I    between atoms: C15_23  and  N6_40 
REMARK   14  A    between atoms: C16_25  and  C17_26 
REMARK   15  A    between atoms: C17_26  and  C18_27 
REMARK   16  A    between atoms: C17_26  and  C19_28 
REMARK   17  A    between atoms: C20_29  and  C21_30 
REMARK   18  A    between atoms: C20_29  and  C24_33 
REMARK   19  A    between atoms: C20_29  and  N6_40 
REMARK   20  A    between atoms: C21_30  and  C22_31 
REMARK   21  A    between atoms: C22_31  and  C23_32 
REMARK   22  A    between atoms: C23_32  and  O8_43 
REMARK   23  A    between atoms: C24_33  and  C25_34 
REMARK   24  A    between atoms: C28_38  and  O6_39 
REMARK   25  A    between atoms: C29_42  and  O8_43 
REMARK   26  A    between atoms: C29_42  and  C35_49 
ROOT
ATOM      1  C14 non d ame      -7.420   9.166  66.342  0.00  0.00     0.089 C 
ATOM      2  H20 non d ame      -7.572   8.412  65.569  0.00  0.00     0.087 H 
ENDROOT
BRANCH   1   3
ATOM      3  N4  non d ame      -8.380  10.234  66.105  0.00  0.00    -0.346 N 
ATOM      4  C10 non d ame      -9.749   9.921  65.555  0.00  0.00     0.241 C 
ATOM      5  O4  non d ame     -10.054   8.800  65.308  0.00  0.00    -0.271 OA
ATOM      6  H19 non d ame      -8.100  11.181  66.319  0.00  0.00     0.163 HD
BRANCH   4   7
ATOM      7  C9  non d ame     -10.732  11.037  65.321  0.00  0.00     0.092 C 
ATOM      8  H11 non d ame     -11.695  10.764  65.751  0.00  0.00     0.088 H 
BRANCH   7   9
ATOM      9  N3  non d ame     -10.275  12.245  66.018  0.00  0.00    -0.346 N 
ATOM     10  C7  non d ame     -11.016  12.748  67.147  0.00  0.00     0.240 C 
ATOM     11  O3  non d ame     -11.983  12.197  67.510  0.00  0.00    -0.271 OA
ATOM     12  H10 non d ame      -9.443  12.732  65.716  0.00  0.00     0.163 HD
BRANCH  10  13
ATOM     13  C6  non d ame     -10.526  14.035  67.882  0.00  0.00     0.086 C 
ATOM     14  H6  non d ame     -10.954  14.947  67.466  0.00  0.00     0.086 H 
BRANCH  13  15
ATOM     15  N2  non d ame     -10.950  13.974  69.272  0.00  0.00    -0.343 N 
ATOM     16  C5  non d ame     -11.841  15.008  69.801  0.00  0.00     0.273 C 
ATOM     17  O2  non d ame     -12.210  15.886  69.102  0.00  0.00    -0.266 OA
ATOM     18  H5  non d ame     -10.627  13.220  69.863  0.00  0.00     0.163 HD
BRANCH  16  19
ATOM     19  C4  non d ame     -12.297  14.954  71.268  0.00  0.00     0.154 A 
ATOM     20  C1  non d ame     -11.869  15.802  72.338  0.00  0.00    -0.017 A 
ATOM     21  C2  non d ame     -12.579  15.344  73.470  0.00  0.00     0.077 A 
ATOM     22  H1  non d ame     -11.154  16.624  72.299  0.00  0.00     0.091 H 
ATOM     23  O1  non d ame     -13.326  14.352  73.085  0.00  0.00    -0.218 OA
ATOM     24  N1  non d ame     -13.178  14.105  71.803  0.00  0.00    -0.123 NA
BRANCH  21  25
ATOM     25  C3  non d ame     -12.487  15.911  74.881  0.00  0.00    -0.029 C 
ATOM     26  H2  non d ame     -11.676  16.638  74.929  0.00  0.00     0.036 H 
ATOM     27  H3  non d ame     -13.427  16.398  75.139  0.00  0.00     0.036 H 
ATOM     28  H4  non d ame     -12.292  15.102  75.586  0.00  0.00     0.036 H 
ENDBRANCH  21  25
ENDBRANCH  16  19
ENDBRANCH  13  15
BRANCH  13  29
ATOM     29  C8  non d ame      -9.024  14.121  67.804  0.00  0.00    -0.049 C 
ATOM     30  H7  non d ame      -8.587  13.190  68.164  0.00  0.00     0.030 H 
ATOM     31  H8  non d ame      -8.722  14.289  66.770  0.00  0.00     0.030 H 
ATOM     32  H9  non d ame      -8.675  14.948  68.423  0.00  0.00     0.030 H 
ENDBRANCH  13  29
ENDBRANCH  10  13
ENDBRANCH   7   9
BRANCH   7  33
ATOM     33  C11 non d ame     -10.832  11.329  63.795  0.00  0.00    -0.033 C 
ATOM     34  H12 non d ame     -11.254  10.445  63.319  0.00  0.00     0.042 H 
BRANCH  33  35
ATOM     35  C12 non d ame     -11.794  12.523  63.507  0.00  0.00    -0.071 C 
ATOM     36  H13 non d ame     -12.133  12.475  62.472  0.00  0.00     0.028 H 
ATOM     37  H14 non d ame     -12.654  12.467  64.173  0.00  0.00     0.028 H 
ATOM     38  H15 non d ame     -11.266  13.461  63.672  0.00  0.00     0.028 H 
ENDBRANCH  33  35
BRANCH  33  39
ATOM     39  C13 non d ame      -9.418  11.581  63.180  0.00  0.00    -0.071 C 
ATOM     40  H16 non d ame      -8.711  10.859  63.587  0.00  0.00     0.028 H 
ATOM     41  H17 non d ame      -9.468  11.469  62.096  0.00  0.00     0.028 H 
ATOM     42  H18 non d ame      -9.089  12.590  63.426  0.00  0.00     0.028 H 
ENDBRANCH  33  39
ENDBRANCH   7  33
ENDBRANCH   4   7
ENDBRANCH   1   3
BRANCH   1  43
ATOM     43  C15 non d ame      -7.654   8.599  67.771  0.00  0.00     0.240 C 
ATOM     44  O5  non d ame      -6.758   8.569  68.550  0.00  0.00    -0.271 OA
ATOM     45  N6  non d ame      -9.002   8.100  68.172  0.00  0.00    -0.355 N 
ATOM     46  H46 non d ame      -9.772   8.125  67.520  0.00  0.00     0.162 HD
BRANCH  45  47
ATOM     47  C20 non d ame      -9.209   7.565  69.534  0.00  0.00     0.013 C 
ATOM     48  H30 non d ame      -8.623   8.170  70.226  0.00  0.00     0.072 H 
BRANCH  47  49
ATOM     49  C21 non d ame      -8.742   6.128  69.583  0.00  0.00    -0.038 C 
ATOM     50  H31 non d ame      -7.934   6.055  68.855  0.00  0.00     0.036 H 
ATOM     51  H32 non d ame      -8.548   5.917  70.635  0.00  0.00     0.036 H 
BRANCH  49  52
ATOM     52  C22 non d ame      -9.829   5.129  69.130  0.00  0.00     0.018 C 
ATOM     53  H33 non d ame      -9.720   4.259  69.778  0.00  0.00     0.048 H 
ATOM     54  H34 non d ame     -10.763   5.691  69.125  0.00  0.00     0.048 H 
BRANCH  52  55
ATOM     55  C23 non d ame      -9.635   4.607  67.679  0.00  0.00     0.259 C 
ATOM     56  O7  non d ame      -9.682   3.443  67.445  0.00  0.00    -0.265 OA
BRANCH  55  57
ATOM     57  O8  non d ame      -9.386   5.537  66.632  0.00  0.00    -0.317 OA
BRANCH  57  58
ATOM     58  C29 non d ame      -9.081   4.928  65.373  0.00  0.00     0.052 C 
ATOM     59  H47 non d ame      -9.091   3.855  65.556  0.00  0.00     0.082 H 
ATOM     60  H48 non d ame      -9.776   5.366  64.658  0.00  0.00     0.082 H 
BRANCH  58  61
ATOM     61  C35 non d ame      -7.640   5.347  64.977  0.00  0.00    -0.034 A 
ATOM     62  C30 non d ame      -6.643   5.418  65.944  0.00  0.00    -0.075 A 
ATOM     63  C31 non d ame      -5.349   5.794  65.587  0.00  0.00    -0.082 A 
ATOM     64  H49 non d ame      -6.875   5.178  66.982  0.00  0.00     0.084 H 
ATOM     65  C32 non d ame      -5.055   6.104  64.256  0.00  0.00    -0.083 A 
ATOM     66  H50 non d ame      -4.569   5.845  66.347  0.00  0.00     0.083 H 
ATOM     67  C33 non d ame      -6.054   6.036  63.295  0.00  0.00    -0.082 A 
ATOM     68  H51 non d ame      -4.045   6.399  63.969  0.00  0.00     0.083 H 
ATOM     69  C34 non d ame      -7.348   5.658  63.647  0.00  0.00    -0.075 A 
ATOM     70  H52 non d ame      -5.821   6.281  62.258  0.00  0.00     0.083 H 
ATOM     71  H53 non d ame      -8.127   5.606  62.885  0.00  0.00     0.084 H 
ENDBRANCH  58  61
ENDBRANCH  57  58
ENDBRANCH  55  57
ENDBRANCH  52  55
ENDBRANCH  49  52
ENDBRANCH  47  49
BRANCH  47  72
ATOM     72  C24 non d ame     -10.691   7.632  69.895  0.00  0.00    -0.039 C 
ATOM     73  H35 non d ame     -11.214   7.775  68.949  0.00  0.00     0.036 H 
ATOM     74  H36 non d ame     -10.885   6.743  70.495  0.00  0.00     0.036 H 
BRANCH  72  75
ATOM     75  C25 non d ame     -11.022   8.903  70.813  0.00  0.00    -0.001 C 
ATOM     76  C26 non d ame     -12.101   8.483  71.981  0.00  0.00    -0.035 C 
ATOM     77  C27 non d ame     -13.127   9.368  71.964  0.00  0.00     0.085 C 
ATOM     78  H38 non d ame     -12.576   7.537  71.728  0.00  0.00     0.036 H 
ATOM     79  H39 non d ame     -11.659   8.625  72.967  0.00  0.00     0.036 H 
ATOM     80  N5  non d ame     -13.009  10.156  70.681  0.00  0.00    -0.049 N 
ATOM     81  H40 non d ame     -14.033   8.762  71.927  0.00  0.00     0.075 H 
ATOM     82  H41 non d ame     -12.950  10.035  72.807  0.00  0.00     0.075 H 
ATOM     83  C28 non d ame     -11.525   9.866  70.116  0.00  0.00     0.193 C 
ATOM     84  H42 non d ame     -13.680   9.760  70.039  0.00  0.00     0.280 HD
ATOM     85  H43 non d ame     -13.070  11.131  70.937  0.00  0.00     0.280 HD
ATOM     86  H44 non d ame     -10.738  10.614  70.215  0.00  0.00     0.129 H 
ATOM     87  H37 non d ame     -10.120   9.424  71.135  0.00  0.00     0.046 H 
BRANCH  83  88
ATOM     88  O6  non d ame     -11.579   9.552  68.723  0.00  0.00    -0.369 OA
ATOM     89  H45 non d ame     -10.734   9.193  68.444  0.00  0.00     0.212 HD
ENDBRANCH  83  88
ENDBRANCH  72  75
ENDBRANCH  47  72
ENDBRANCH  45  47
ENDBRANCH   1  43
BRANCH   1  90
ATOM     90  C16 non d ame      -6.013   9.732  66.240  0.00  0.00    -0.035 C 
ATOM     91  H21 non d ame      -5.958  10.507  67.006  0.00  0.00     0.037 H 
ATOM     92  H22 non d ame      -5.350   8.869  66.290  0.00  0.00     0.037 H 
BRANCH  90  93
ATOM     93  C17 non d ame      -5.718  10.437  64.878  0.00  0.00    -0.059 C 
ATOM     94  H23 non d ame      -6.255  11.385  64.874  0.00  0.00     0.038 H 
BRANCH  93  95
ATOM     95  C18 non d ame      -4.198  10.751  64.694  0.00  0.00    -0.073 C 
ATOM     96  H24 non d ame      -3.845  11.344  65.538  0.00  0.00     0.028 H 
ATOM     97  H25 non d ame      -3.638   9.817  64.647  0.00  0.00     0.028 H 
ATOM     98  H26 non d ame      -4.052  11.309  63.769  0.00  0.00     0.028 H 
ENDBRANCH  93  95
BRANCH  93  99
ATOM     99  C19 non d ame      -6.249   9.608  63.706  0.00  0.00    -0.073 C 
ATOM    100  H27 non d ame      -7.008  10.180  63.172  0.00  0.00     0.028 H 
ATOM    101  H28 non d ame      -5.428   9.371  63.029  0.00  0.00     0.028 H 
ATOM    102  H29 non d ame      -6.686   8.684  64.083  0.00  0.00     0.028 H 
ENDBRANCH  93  99
ENDBRANCH  90  93
ENDBRANCH   1  90
TORSDOF 26
ENDMDL
MODEL 4
REMARK VINA RESULT:      -6.6      3.187      8.667
REMARK  26 active torsions:
REMARK  status: ('A' for Active; 'I' for Inactive)
REMARK    1  A    between atoms: C2_2  and  C3_3 
REMARK    2  A    between atoms: C4_6  and  C5_7 
REMARK       I    between atoms: C5_7  and  N2_9 
REMARK    3  A    between atoms: N2_9  and  C6_10 
REMARK    4  A    between atoms: C6_10  and  C7_11 
REMARK    5  A    between atoms: C6_10  and  C8_13 
REMARK       I    between atoms: C7_11  and  N3_14 
REMARK    6  A    between atoms: N3_14  and  C9_15 
REMARK    7  A    between atoms: C9_15  and  C10_16 
REMARK    8  A    between atoms: C9_15  and  C11_18 
REMARK       I    between atoms: C10_16  and  N4_21 
REMARK    9  A    between atoms: C11_18  and  C12_19 
REMARK   10  A    between atoms: C11_18  and  C13_20 
REMARK   11  A    between atoms: N4_21  and  C14_22 
REMARK   12  A    between atoms: C14_22  and  C15_23 
REMARK   13  A    between atoms: C14_22  and  C16_25 
REMARK       I    between atoms: C15_23  and  N6_40 
REMARK   14  A    between atoms: C16_25  and  C17_26 
REMARK   15  A    between atoms: C17_26  and  C18_27 
REMARK   16  A    between atoms: C17_26  and  C19_28 
REMARK   17  A    between atoms: C20_29  and  C21_30 
REMARK   18  A    between atoms: C20_29  and  C24_33 
REMARK   19  A    between atoms: C20_29  and  N6_40 
REMARK   20  A    between atoms: C21_30  and  C22_31 
REMARK   21  A    between atoms: C22_31  and  C23_32 
REMARK   22  A    between atoms: C23_32  and  O8_43 
REMARK   23  A    between atoms: C24_33  and  C25_34 
REMARK   24  A    between atoms: C28_38  and  O6_39 
REMARK   25  A    between atoms: C29_42  and  O8_43 
REMARK   26  A    between atoms: C29_42  and  C35_49 
ROOT
ATOM      1  C14 non d ame      -9.070   6.900  66.542  0.00  0.00     0.089 C 
ATOM      2  H20 non d ame      -9.394   6.421  65.617  0.00  0.00     0.087 H 
ENDROOT
BRANCH   1   3
ATOM      3  N4  non d ame      -8.702   8.270  66.219  0.00  0.00    -0.346 N 
ATOM      4  C10 non d ame      -8.212   8.622  64.836  0.00  0.00     0.241 C 
ATOM      5  O4  non d ame      -8.120   7.783  64.001  0.00  0.00    -0.271 OA
ATOM      6  H19 non d ame      -8.784   8.969  66.944  0.00  0.00     0.163 HD
BRANCH   4   7
ATOM      7  C9  non d ame      -7.839  10.046  64.517  0.00  0.00     0.092 C 
ATOM      8  H11 non d ame      -7.685  10.145  63.443  0.00  0.00     0.088 H 
BRANCH   7   9
ATOM      9  N3  non d ame      -8.950  10.934  64.878  0.00  0.00    -0.346 N 
ATOM     10  C7  non d ame     -10.063  11.097  63.977  0.00  0.00     0.240 C 
ATOM     11  O3  non d ame     -10.084  10.522  62.958  0.00  0.00    -0.271 OA
ATOM     12  H10 non d ame      -8.946  11.437  65.754  0.00  0.00     0.163 HD
BRANCH  10  13
ATOM     13  C6  non d ame     -11.240  12.046  64.365  0.00  0.00     0.086 C 
ATOM     14  H6  non d ame     -11.725  11.758  65.298  0.00  0.00     0.086 H 
BRANCH  13  15
ATOM     15  N2  non d ame     -10.717  13.387  64.566  0.00  0.00    -0.343 N 
ATOM     16  C5  non d ame     -11.537  14.387  65.254  0.00  0.00     0.273 C 
ATOM     17  O2  non d ame     -12.618  14.103  65.638  0.00  0.00    -0.266 OA
ATOM     18  H5  non d ame      -9.793  13.622  64.231  0.00  0.00     0.163 HD
BRANCH  16  19
ATOM     19  C4  non d ame     -10.996  15.808  65.474  0.00  0.00     0.154 A 
ATOM     20  C1  non d ame     -10.209  16.273  66.575  0.00  0.00    -0.017 A 
ATOM     21  C2  non d ame      -9.975  17.639  66.302  0.00  0.00     0.077 A 
ATOM     22  H1  non d ame      -9.862  15.706  67.439  0.00  0.00     0.091 H 
ATOM     23  O1  non d ame     -10.559  17.915  65.174  0.00  0.00    -0.218 OA
ATOM     24  N1  non d ame     -11.162  16.863  64.671  0.00  0.00    -0.123 NA
BRANCH  21  25
ATOM     25  C3  non d ame      -9.181  18.607  67.169  0.00  0.00    -0.029 C 
ATOM     26  H2  non d ame      -9.708  18.770  68.110  0.00  0.00     0.036 H 
ATOM     27  H3  non d ame      -8.195  18.189  67.373  0.00  0.00     0.036 H 
ATOM     28  H4  non d ame      -9.071  19.558  66.646  0.00  0.00     0.036 H 
ENDBRANCH  21  25
ENDBRANCH  16  19
ENDBRANCH  13  15
BRANCH  13  29
ATOM     29  C8  non d ame     -12.268  12.053  63.263  0.00  0.00    -0.049 C 
ATOM     30  H7  non d ame     -12.941  12.900  63.399  0.00  0.00     0.030 H 
ATOM     31  H8  non d ame     -11.769  12.137  62.299  0.00  0.00     0.030 H 
ATOM     32  H9  non d ame     -12.842  11.127  63.296  0.00  0.00     0.030 H 
ENDBRANCH  13  29
ENDBRANCH  10  13
ENDBRANCH   7   9
BRANCH   7  33
ATOM     33  C11 non d ame      -6.574  10.445  65.330  0.00  0.00    -0.033 C 
ATOM     34  H12 non d ame      -5.998  11.142  64.722  0.00  0.00     0.042 H 
BRANCH  33  35
ATOM     35  C12 non d ame      -6.956  11.181  66.653  0.00  0.00    -0.071 C 
ATOM     36  H13 non d ame      -8.012  11.015  66.869  0.00  0.00     0.028 H 
ATOM     37  H14 non d ame      -6.352  10.794  67.472  0.00  0.00     0.028 H 
ATOM     38  H15 non d ame      -6.773  12.249  66.538  0.00  0.00     0.028 H 
ENDBRANCH  33  35
BRANCH  33  39
ATOM     39  C13 non d ame      -5.677   9.198  65.617  0.00  0.00    -0.071 C 
ATOM     40  H16 non d ame      -4.642   9.429  65.364  0.00  0.00     0.028 H 
ATOM     41  H17 non d ame      -5.743   8.938  66.674  0.00  0.00     0.028 H 
ATOM     42  H18 non d ame      -6.020   8.357  65.014  0.00  0.00     0.028 H 
ENDBRANCH  33  39
ENDBRANCH   7  33
ENDBRANCH   4   7
ENDBRANCH   1   3
BRANCH   1  43
ATOM     43  C15 non d ame     -10.196   6.931  67.614  0.00  0.00     0.240 C 
ATOM     44  O5  non d ame     -11.198   6.318  67.437  0.00  0.00    -0.271 OA
ATOM     45  N6  non d ame     -10.021   7.719  68.868  0.00  0.00    -0.355 N 
ATOM     46  H46 non d ame      -9.173   8.241  69.031  0.00  0.00     0.162 HD
BRANCH  45  47
ATOM     47  C20 non d ame     -11.101   7.738  69.878  0.00  0.00     0.013 C 
ATOM     48  H30 non d ame     -12.017   7.393  69.397  0.00  0.00     0.072 H 
BRANCH  47  49
ATOM     49  C21 non d ame     -11.287   9.150  70.386  0.00  0.00    -0.038 C 
ATOM     50  H31 non d ame     -12.308   9.425  70.124  0.00  0.00     0.036 H 
ATOM     51  H32 non d ame     -10.978   9.129  71.432  0.00  0.00     0.036 H 
BRANCH  49  52
ATOM     52  C22 non d ame     -10.365  10.167  69.679  0.00  0.00     0.018 C 
ATOM     53  H33 non d ame     -10.225  10.983  70.388  0.00  0.00     0.048 H 
ATOM     54  H34 non d ame      -9.505   9.595  69.331  0.00  0.00     0.048 H 
BRANCH  52  55
ATOM     55  C23 non d ame     -10.995  10.807  68.410  0.00  0.00     0.259 C 
ATOM     56  O7  non d ame     -10.715  10.402  67.328  0.00  0.00    -0.265 OA
BRANCH  55  57
ATOM     57  O8  non d ame     -11.901  11.893  68.555  0.00  0.00    -0.317 OA
BRANCH  57  58
ATOM     58  C29 non d ame     -11.304  13.083  69.080  0.00  0.00     0.052 C 
ATOM     59  H47 non d ame     -10.349  12.772  69.500  0.00  0.00     0.082 H 
ATOM     60  H48 non d ame     -11.333  13.810  68.269  0.00  0.00     0.082 H 
BRANCH  58  61
ATOM     61  C35 non d ame     -12.204  13.600  70.234  0.00  0.00    -0.034 A 
ATOM     62  C30 non d ame     -12.740  12.706  71.156  0.00  0.00    -0.075 A 
ATOM     63  C31 non d ame     -13.548  13.172  72.192  0.00  0.00    -0.082 A 
ATOM     64  H49 non d ame     -12.525  11.641  71.066  0.00  0.00     0.084 H 
ATOM     65  C32 non d ame     -13.823  14.537  72.302  0.00  0.00    -0.083 A 
ATOM     66  H50 non d ame     -13.963  12.468  72.914  0.00  0.00     0.083 H 
ATOM     67  C33 non d ame     -13.290  15.426  71.378  0.00  0.00    -0.082 A 
ATOM     68  H51 non d ame     -14.453  14.909  73.110  0.00  0.00     0.083 H 
ATOM     69  C34 non d ame     -12.479  14.965  70.343  0.00  0.00    -0.075 A 
ATOM     70  H52 non d ame     -13.508  16.490  71.467  0.00  0.00     0.083 H 
ATOM     71  H53 non d ame     -12.063  15.669  69.622  0.00  0.00     0.084 H 
ENDBRANCH  58  61
ENDBRANCH  57  58
ENDBRANCH  55  57
ENDBRANCH  52  55
ENDBRANCH  49  52
ENDBRANCH  47  49
BRANCH  47  72
ATOM     72  C24 non d ame     -10.734   6.821  71.042  0.00  0.00    -0.039 C 
ATOM     73  H35 non d ame     -11.224   7.251  71.916  0.00  0.00     0.036 H 
ATOM     74  H36 non d ame     -10.995   5.815  70.713  0.00  0.00     0.036 H 
BRANCH  72  75
ATOM     75  C25 non d ame      -9.158   6.829  71.331  0.00  0.00    -0.001 C 
ATOM     76  C26 non d ame      -8.528   5.339  71.039  0.00  0.00    -0.035 C 
ATOM     77  C27 non d ame      -7.805   4.952  72.118  0.00  0.00     0.085 C 
ATOM     78  H38 non d ame      -9.326   4.598  70.988  0.00  0.00     0.036 H 
ATOM     79  H39 non d ame      -7.786   5.395  70.243  0.00  0.00     0.036 H 
ATOM     80  N5  non d ame      -8.154   5.896  73.244  0.00  0.00    -0.049 N 
ATOM     81  H40 non d ame      -8.165   3.953  72.367  0.00  0.00     0.075 H 
ATOM     82  H41 non d ame      -6.763   5.102  71.839  0.00  0.00     0.075 H 
ATOM     83  C28 non d ame      -8.908   7.147  72.557  0.00  0.00     0.193 C 
ATOM     84  H42 non d ame      -8.812   5.408  73.833  0.00  0.00     0.280 HD
ATOM     85  H43 non d ame      -7.277   6.221  73.626  0.00  0.00     0.280 HD
ATOM     86  H44 non d ame      -8.392   8.096  72.415  0.00  0.00     0.129 H 
ATOM     87  H37 non d ame      -8.658   7.679  70.865  0.00  0.00     0.046 H 
BRANCH  83  88
ATOM     88  O6  non d ame     -10.097   7.466  73.283  0.00  0.00    -0.369 OA
ATOM     89  H45 non d ame     -10.796   6.856  73.035  0.00  0.00     0.212 HD
ENDBRANCH  83  88
ENDBRANCH  72  75
ENDBRANCH  47  72
ENDBRANCH  45  47
ENDBRANCH   1  43
BRANCH   1  90
ATOM     90  C16 non d ame      -7.854   6.178  67.098  0.00  0.00    -0.035 C 
ATOM     91  H21 non d ame      -7.044   6.908  67.064  0.00  0.00     0.037 H 
ATOM     92  H22 non d ame      -8.175   5.766  68.055  0.00  0.00     0.037 H 
BRANCH  90  93
ATOM     93  C17 non d ame      -7.393   4.965  66.228  0.00  0.00    -0.059 C 
ATOM     94  H23 non d ame      -8.206   4.719  65.546  0.00  0.00     0.038 H 
BRANCH  93  95
ATOM     95  C18 non d ame      -6.135   5.303  65.366  0.00  0.00    -0.073 C 
ATOM     96  H24 non d ame      -6.164   6.354  65.078  0.00  0.00     0.028 H 
ATOM     97  H25 non d ame      -5.233   5.111  65.948  0.00  0.00     0.028 H 
ATOM     98  H26 non d ame      -6.130   4.681  64.471  0.00  0.00     0.028 H 
ENDBRANCH  93  95
BRANCH  93  99
ATOM     99  C19 non d ame      -7.141   3.731  67.099  0.00  0.00    -0.073 C 
ATOM    100  H27 non d ame      -8.069   3.170  67.211  0.00  0.00     0.028 H 
ATOM    101  H28 non d ame      -6.389   3.100  66.623  0.00  0.00     0.028 H 
ATOM    102  H29 non d ame      -6.783   4.045  68.079  0.00  0.00     0.028 H 
ENDBRANCH  93  99
ENDBRANCH  90  93
ENDBRANCH   1  90
TORSDOF 26
ENDMDL
MODEL 5
REMARK VINA RESULT:      -6.6      3.313      9.310
REMARK  26 active torsions:
REMARK  status: ('A' for Active; 'I' for Inactive)
REMARK    1  A    between atoms: C2_2  and  C3_3 
REMARK    2  A    between atoms: C4_6  and  C5_7 
REMARK       I    between atoms: C5_7  and  N2_9 
REMARK    3  A    between atoms: N2_9  and  C6_10 
REMARK    4  A    between atoms: C6_10  and  C7_11 
REMARK    5  A    between atoms: C6_10  and  C8_13 
REMARK       I    between atoms: C7_11  and  N3_14 
REMARK    6  A    between atoms: N3_14  and  C9_15 
REMARK    7  A    between atoms: C9_15  and  C10_16 
REMARK    8  A    between atoms: C9_15  and  C11_18 
REMARK       I    between atoms: C10_16  and  N4_21 
REMARK    9  A    between atoms: C11_18  and  C12_19 
REMARK   10  A    between atoms: C11_18  and  C13_20 
REMARK   11  A    between atoms: N4_21  and  C14_22 
REMARK   12  A    between atoms: C14_22  and  C15_23 
REMARK   13  A    between atoms: C14_22  and  C16_25 
REMARK       I    between atoms: C15_23  and  N6_40 
REMARK   14  A    between atoms: C16_25  and  C17_26 
REMARK   15  A    between atoms: C17_26  and  C18_27 
REMARK   16  A    between atoms: C17_26  and  C19_28 
REMARK   17  A    between atoms: C20_29  and  C21_30 
REMARK   18  A    between atoms: C20_29  and  C24_33 
REMARK   19  A    between atoms: C20_29  and  N6_40 
REMARK   20  A    between atoms: C21_30  and  C22_31 
REMARK   21  A    between atoms: C22_31  and  C23_32 
REMARK   22  A    between atoms: C23_32  and  O8_43 
REMARK   23  A    between atoms: C24_33  and  C25_34 
REMARK   24  A    between atoms: C28_38  and  O6_39 
REMARK   25  A    between atoms: C29_42  and  O8_43 
REMARK   26  A    between atoms: C29_42  and  C35_49 
ROOT
ATOM      1  C14 non d ame     -10.121   9.338  66.915  0.00  0.00     0.089 C 
ATOM      2  H20 non d ame     -11.142   8.956  66.959  0.00  0.00     0.087 H 
ENDROOT
BRANCH   1   3
ATOM      3  N4  non d ame     -10.195  10.743  66.543  0.00  0.00    -0.346 N 
ATOM      4  C10 non d ame     -11.316  11.610  67.061  0.00  0.00     0.241 C 
ATOM      5  O4  non d ame     -12.148  11.152  67.774  0.00  0.00    -0.271 OA
ATOM      6  H19 non d ame      -9.480  11.113  65.934  0.00  0.00     0.163 HD
BRANCH   4   7
ATOM      7  C9  non d ame     -11.375  13.063  66.671  0.00  0.00     0.092 C 
ATOM      8  H11 non d ame     -12.411  13.402  66.703  0.00  0.00     0.088 H 
BRANCH   7   9
ATOM      9  N3  non d ame     -10.629  13.863  67.648  0.00  0.00    -0.346 N 
ATOM     10  C7  non d ame     -11.315  14.455  68.769  0.00  0.00     0.240 C 
ATOM     11  O3  non d ame     -12.467  14.300  68.902  0.00  0.00    -0.271 OA
ATOM     12  H10 non d ame      -9.634  14.006  67.546  0.00  0.00     0.163 HD
BRANCH  10  13
ATOM     13  C6  non d ame     -10.515  15.307  69.803  0.00  0.00     0.086 C 
ATOM     14  H6  non d ame      -9.559  14.858  70.071  0.00  0.00     0.086 H 
BRANCH  13  15
ATOM     15  N2  non d ame     -10.215  16.603  69.215  0.00  0.00    -0.343 N 
ATOM     16  C5  non d ame      -8.847  16.903  68.789  0.00  0.00     0.273 C 
ATOM     17  O2  non d ame      -7.994  16.097  68.926  0.00  0.00    -0.266 OA
ATOM     18  H5  non d ame     -10.950  17.287  69.104  0.00  0.00     0.163 HD
BRANCH  16  19
ATOM     19  C4  non d ame      -8.517  18.268  68.165  0.00  0.00     0.154 A 
ATOM     20  C1  non d ame      -7.218  18.798  67.882  0.00  0.00    -0.017 A 
ATOM     21  C2  non d ame      -7.460  20.070  67.319  0.00  0.00     0.077 A 
ATOM     22  H1  non d ame      -6.249  18.331  68.058  0.00  0.00     0.091 H 
ATOM     23  O1  non d ame      -8.749  20.240  67.284  0.00  0.00    -0.218 OA
ATOM     24  N1  non d ame      -9.388  19.201  67.772  0.00  0.00    -0.123 NA
BRANCH  21  25
ATOM     25  C3  non d ame      -6.405  21.059  66.838  0.00  0.00    -0.029 C 
ATOM     26  H2  non d ame      -5.729  21.296  67.659  0.00  0.00     0.036 H 
ATOM     27  H3  non d ame      -5.841  20.618  66.018  0.00  0.00     0.036 H 
ATOM     28  H4  non d ame      -6.893  21.972  66.494  0.00  0.00     0.036 H 
ENDBRANCH  21  25
ENDBRANCH  16  19
ENDBRANCH  13  15
BRANCH  13  29
ATOM     29  C8  non d ame     -11.337  15.486  71.054  0.00  0.00    -0.049 C 
ATOM     30  H7  non d ame     -12.072  14.683  71.123  0.00  0.00     0.030 H 
ATOM     31  H8  non d ame     -10.684  15.457  71.926  0.00  0.00     0.030 H 
ATOM     32  H9  non d ame     -11.851  16.446  71.016  0.00  0.00     0.030 H 
ENDBRANCH  13  29
ENDBRANCH  10  13
ENDBRANCH   7   9
BRANCH   7  33
ATOM     33  C11 non d ame     -10.742  13.248  65.261  0.00  0.00    -0.033 C 
ATOM     34  H12 non d ame      -9.879  12.586  65.199  0.00  0.00     0.042 H 
BRANCH  33  35
ATOM     35  C12 non d ame     -11.736  12.830  64.132  0.00  0.00    -0.071 C 
ATOM     36  H13 non d ame     -12.059  11.802  64.294  0.00  0.00     0.028 H 
ATOM     37  H14 non d ame     -12.603  13.490  64.149  0.00  0.00     0.028 H 
ATOM     38  H15 non d ame     -11.239  12.907  63.166  0.00  0.00     0.028 H 
ENDBRANCH  33  35
BRANCH  33  39
ATOM     39  C13 non d ame     -10.242  14.714  65.060  0.00  0.00    -0.071 C 
ATOM     40  H16 non d ame     -10.659  15.350  65.840  0.00  0.00     0.028 H 
ATOM     41  H17 non d ame      -9.153  14.738  65.115  0.00  0.00     0.028 H 
ATOM     42  H18 non d ame     -10.564  15.078  64.084  0.00  0.00     0.028 H 
ENDBRANCH  33  39
ENDBRANCH   7  33
ENDBRANCH   4   7
ENDBRANCH   1   3
BRANCH   1  43
ATOM     43  C15 non d ame      -9.392   9.227  68.284  0.00  0.00     0.240 C 
ATOM     44  O5  non d ame      -8.437   9.899  68.502  0.00  0.00    -0.271 OA
ATOM     45  N6  non d ame      -9.891   8.287  69.329  0.00  0.00    -0.355 N 
ATOM     46  H46 non d ame     -10.704   7.714  69.156  0.00  0.00     0.162 HD
BRANCH  45  47
ATOM     47  C20 non d ame      -9.187   8.194  70.626  0.00  0.00     0.013 C 
ATOM     48  H30 non d ame      -8.285   8.802  70.563  0.00  0.00     0.072 H 
BRANCH  47  49
ATOM     49  C21 non d ame      -8.819   6.752  70.893  0.00  0.00    -0.038 C 
ATOM     50  H31 non d ame      -7.940   6.786  71.535  0.00  0.00     0.036 H 
ATOM     51  H32 non d ame      -9.734   6.275  71.246  0.00  0.00     0.036 H 
BRANCH  49  52
ATOM     52  C22 non d ame      -8.397   5.995  69.615  0.00  0.00     0.018 C 
ATOM     53  H33 non d ame      -8.338   4.944  69.899  0.00  0.00     0.048 H 
ATOM     54  H34 non d ame      -9.095   6.310  68.840  0.00  0.00     0.048 H 
BRANCH  52  55
ATOM     55  C23 non d ame      -6.982   6.378  69.098  0.00  0.00     0.259 C 
ATOM     56  O7  non d ame      -6.069   6.468  69.853  0.00  0.00    -0.265 OA
BRANCH  55  57
ATOM     57  O8  non d ame      -6.792   6.634  67.712  0.00  0.00    -0.317 OA
BRANCH  57  58
ATOM     58  C29 non d ame      -6.182   5.554  66.999  0.00  0.00     0.052 C 
ATOM     59  H47 non d ame      -5.113   5.763  67.006  0.00  0.00     0.082 H 
ATOM     60  H48 non d ame      -6.562   4.644  67.462  0.00  0.00     0.082 H 
BRANCH  58  61
ATOM     61  C35 non d ame      -6.684   5.605  65.532  0.00  0.00    -0.034 A 
ATOM     62  C30 non d ame      -5.811   5.953  64.507  0.00  0.00    -0.075 A 
ATOM     63  C31 non d ame      -6.263   5.999  63.189  0.00  0.00    -0.082 A 
ATOM     64  H49 non d ame      -4.771   6.190  64.736  0.00  0.00     0.084 H 
ATOM     65  C32 non d ame      -7.596   5.698  62.898  0.00  0.00    -0.083 A 
ATOM     66  H50 non d ame      -5.574   6.269  62.388  0.00  0.00     0.083 H 
ATOM     67  C33 non d ame      -8.466   5.355  63.924  0.00  0.00    -0.082 A 
ATOM     68  H51 non d ame      -7.957   5.730  61.870  0.00  0.00     0.083 H 
ATOM     69  C34 non d ame      -8.017   5.306  65.243  0.00  0.00    -0.075 A 
ATOM     70  H52 non d ame      -9.506   5.122  63.693  0.00  0.00     0.083 H 
ATOM     71  H53 non d ame      -8.706   5.033  66.043  0.00  0.00     0.084 H 
ENDBRANCH  58  61
ENDBRANCH  57  58
ENDBRANCH  55  57
ENDBRANCH  52  55
ENDBRANCH  49  52
ENDBRANCH  47  49
BRANCH  47  72
ATOM     72  C24 non d ame     -10.095   8.704  71.743  0.00  0.00    -0.039 C 
ATOM     73  H35 non d ame      -9.964   8.002  72.566  0.00  0.00     0.036 H 
ATOM     74  H36 non d ame      -9.830   9.754  71.876  0.00  0.00     0.036 H 
BRANCH  72  75
ATOM     75  C25 non d ame     -11.639   8.657  71.322  0.00  0.00    -0.001 C 
ATOM     76  C26 non d ame     -12.225  10.186  71.167  0.00  0.00    -0.035 C 
ATOM     77  C27 non d ame     -13.363  10.292  71.894  0.00  0.00     0.085 C 
ATOM     78  H38 non d ame     -11.550  10.894  71.645  0.00  0.00     0.036 H 
ATOM     79  H39 non d ame     -12.559  10.357  70.144  0.00  0.00     0.036 H 
ATOM     80  N5  non d ame     -13.430   9.078  72.790  0.00  0.00    -0.049 N 
ATOM     81  H40 non d ame     -13.233  11.182  72.511  0.00  0.00     0.075 H 
ATOM     82  H41 non d ame     -14.176  10.244  71.171  0.00  0.00     0.075 H 
ATOM     83  C28 non d ame     -12.347   8.034  72.204  0.00  0.00     0.193 C 
ATOM     84  H42 non d ame     -13.125   9.379  73.703  0.00  0.00     0.280 HD
ATOM     85  H43 non d ame     -14.352   8.684  72.669  0.00  0.00     0.280 HD
ATOM     86  H44 non d ame     -12.668   7.167  71.626  0.00  0.00     0.129 H 
ATOM     87  H37 non d ame     -11.820   7.971  70.494  0.00  0.00     0.046 H 
BRANCH  83  88
ATOM     88  O6  non d ame     -11.545   7.509  73.264  0.00  0.00    -0.369 OA
ATOM     89  H45 non d ame     -11.173   8.233  73.772  0.00  0.00     0.212 HD
ENDBRANCH  83  88
ENDBRANCH  72  75
ENDBRANCH  47  72
ENDBRANCH  45  47
ENDBRANCH   1  43
BRANCH   1  90
ATOM     90  C16 non d ame      -9.335   8.586  65.854  0.00  0.00    -0.035 C 
ATOM     91  H21 non d ame      -8.641   7.950  66.406  0.00  0.00     0.037 H 
ATOM     92  H22 non d ame     -10.085   8.136  65.203  0.00  0.00     0.037 H 
BRANCH  90  93
ATOM     93  C17 non d ame      -8.461   9.510  64.947  0.00  0.00    -0.059 C 
ATOM     94  H23 non d ame      -8.765  10.539  65.134  0.00  0.00     0.038 H 
BRANCH  93  95
ATOM     95  C18 non d ame      -6.939   9.395  65.282  0.00  0.00    -0.073 C 
ATOM     96  H24 non d ame      -6.721   8.388  65.639  0.00  0.00     0.028 H 
ATOM     97  H25 non d ame      -6.354   9.597  64.384  0.00  0.00     0.028 H 
ATOM     98  H26 non d ame      -6.682  10.120  66.054  0.00  0.00     0.028 H 
ENDBRANCH  93  95
BRANCH  93  99
ATOM     99  C19 non d ame      -8.716   9.223  63.465  0.00  0.00    -0.073 C 
ATOM    100  H27 non d ame      -9.638   8.650  63.360  0.00  0.00     0.028 H 
ATOM    101  H28 non d ame      -8.809  10.165  62.925  0.00  0.00     0.028 H 
ATOM    102  H29 non d ame      -7.883   8.651  63.057  0.00  0.00     0.028 H 
ENDBRANCH  93  99
ENDBRANCH  90  93
ENDBRANCH   1  90
TORSDOF 26
ENDMDL
MODEL 6
REMARK VINA RESULT:      -6.6      3.390      9.076
REMARK  26 active torsions:
REMARK  status: ('A' for Active; 'I' for Inactive)
REMARK    1  A    between atoms: C2_2  and  C3_3 
REMARK    2  A    between atoms: C4_6  and  C5_7 
REMARK       I    between atoms: C5_7  and  N2_9 
REMARK    3  A    between atoms: N2_9  and  C6_10 
REMARK    4  A    between atoms: C6_10  and  C7_11 
REMARK    5  A    between atoms: C6_10  and  C8_13 
REMARK       I    between atoms: C7_11  and  N3_14 
REMARK    6  A    between atoms: N3_14  and  C9_15 
REMARK    7  A    between atoms: C9_15  and  C10_16 
REMARK    8  A    between atoms: C9_15  and  C11_18 
REMARK       I    between atoms: C10_16  and  N4_21 
REMARK    9  A    between atoms: C11_18  and  C12_19 
REMARK   10  A    between atoms: C11_18  and  C13_20 
REMARK   11  A    between atoms: N4_21  and  C14_22 
REMARK   12  A    between atoms: C14_22  and  C15_23 
REMARK   13  A    between atoms: C14_22  and  C16_25 
REMARK       I    between atoms: C15_23  and  N6_40 
REMARK   14  A    between atoms: C16_25  and  C17_26 
REMARK   15  A    between atoms: C17_26  and  C18_27 
REMARK   16  A    between atoms: C17_26  and  C19_28 
REMARK   17  A    between atoms: C20_29  and  C21_30 
REMARK   18  A    between atoms: C20_29  and  C24_33 
REMARK   19  A    between atoms: C20_29  and  N6_40 
REMARK   20  A    between atoms: C21_30  and  C22_31 
REMARK   21  A    between atoms: C22_31  and  C23_32 
REMARK   22  A    between atoms: C23_32  and  O8_43 
REMARK   23  A    between atoms: C24_33  and  C25_34 
REMARK   24  A    between atoms: C28_38  and  O6_39 
REMARK   25  A    between atoms: C29_42  and  O8_43 
REMARK   26  A    between atoms: C29_42  and  C35_49 
ROOT
ATOM      1  C14 non d ame      -6.772  11.889  67.928  0.00  0.00     0.089 C 
ATOM      2  H20 non d ame      -5.884  12.409  67.566  0.00  0.00     0.087 H 
ENDROOT
BRANCH   1   3
ATOM      3  N4  non d ame      -7.881  12.830  67.881  0.00  0.00    -0.346 N 
ATOM      4  C10 non d ame      -7.641  14.273  67.510  0.00  0.00     0.241 C 
ATOM      5  O4  non d ame      -6.545  14.652  67.255  0.00  0.00    -0.271 OA
ATOM      6  H19 non d ame      -8.805  12.489  68.104  0.00  0.00     0.163 HD
BRANCH   4   7
ATOM      7  C9  non d ame      -8.800  15.233  67.461  0.00  0.00     0.092 C 
ATOM      8  H11 non d ame      -9.311  15.131  66.503  0.00  0.00     0.088 H 
BRANCH   7   9
ATOM      9  N3  non d ame      -9.768  14.884  68.506  0.00  0.00    -0.346 N 
ATOM     10  C7  non d ame     -11.090  14.438  68.144  0.00  0.00     0.240 C 
ATOM     11  O3  non d ame     -11.394  14.354  67.017  0.00  0.00    -0.271 OA
ATOM     12  H10 non d ame      -9.521  14.952  69.484  0.00  0.00     0.163 HD
BRANCH  10  13
ATOM     13  C6  non d ame     -12.116  14.071  69.261  0.00  0.00     0.086 C 
ATOM     14  H6  non d ame     -13.080  13.756  68.862  0.00  0.00     0.086 H 
BRANCH  13  15
ATOM     15  N2  non d ame     -11.598  12.950  70.028  0.00  0.00    -0.343 N 
ATOM     16  C5  non d ame     -11.725  11.592  69.497  0.00  0.00     0.273 C 
ATOM     17  O2  non d ame     -12.249  11.411  68.454  0.00  0.00    -0.266 OA
ATOM     18  H5  non d ame     -11.154  13.114  70.921  0.00  0.00     0.163 HD
BRANCH  16  19
ATOM     19  C4  non d ame     -11.180  10.398  70.297  0.00  0.00     0.154 A 
ATOM     20  C1  non d ame     -11.839   9.691  71.353  0.00  0.00    -0.017 A 
ATOM     21  C2  non d ame     -10.922   8.692  71.748  0.00  0.00     0.077 A 
ATOM     22  H1  non d ame     -12.830   9.875  71.768  0.00  0.00     0.091 H 
ATOM     23  O1  non d ame      -9.866   8.817  70.999  0.00  0.00    -0.218 OA
ATOM     24  N1  non d ame      -9.992   9.806  70.145  0.00  0.00    -0.123 NA
BRANCH  21  25
ATOM     25  C3  non d ame     -11.134   7.658  72.846  0.00  0.00    -0.029 C 
ATOM     26  H2  non d ame     -11.726   6.830  72.456  0.00  0.00     0.036 H 
ATOM     27  H3  non d ame     -10.169   7.287  73.187  0.00  0.00     0.036 H 
ATOM     28  H4  non d ame     -11.662   8.119  73.682  0.00  0.00     0.036 H 
ENDBRANCH  21  25
ENDBRANCH  16  19
ENDBRANCH  13  15
BRANCH  13  29
ATOM     29  C8  non d ame     -12.328  15.260  70.164  0.00  0.00    -0.049 C 
ATOM     30  H7  non d ame     -12.353  14.928  71.202  0.00  0.00     0.030 H 
ATOM     31  H8  non d ame     -11.513  15.970  70.029  0.00  0.00     0.030 H 
ATOM     32  H9  non d ame     -13.274  15.741  69.915  0.00  0.00     0.030 H 
ENDBRANCH  13  29
ENDBRANCH  10  13
ENDBRANCH   7   9
BRANCH   7  33
ATOM     33  C11 non d ame      -8.284  16.682  67.698  0.00  0.00    -0.033 C 
ATOM     34  H12 non d ame      -7.302  16.609  68.163  0.00  0.00     0.042 H 
BRANCH  33  35
ATOM     35  C12 non d ame      -8.110  17.451  66.351  0.00  0.00    -0.071 C 
ATOM     36  H13 non d ame      -8.940  17.211  65.686  0.00  0.00     0.028 H 
ATOM     37  H14 non d ame      -8.098  18.523  66.544  0.00  0.00     0.028 H 
ATOM     38  H15 non d ame      -7.172  17.154  65.883  0.00  0.00     0.028 H 
ENDBRANCH  33  35
BRANCH  33  39
ATOM     39  C13 non d ame      -9.225  17.458  68.675  0.00  0.00    -0.071 C 
ATOM     40  H16 non d ame     -10.133  16.879  68.841  0.00  0.00     0.028 H 
ATOM     41  H17 non d ame      -8.714  17.613  69.626  0.00  0.00     0.028 H 
ATOM     42  H18 non d ame      -9.483  18.423  68.241  0.00  0.00     0.028 H 
ENDBRANCH  33  39
ENDBRANCH   7  33
ENDBRANCH   4   7
ENDBRANCH   1   3
BRANCH   1  43
ATOM     43  C15 non d ame      -7.132  10.658  67.049  0.00  0.00     0.240 C 
ATOM     44  O5  non d ame      -7.254   9.588  67.551  0.00  0.00    -0.271 OA
ATOM     45  N6  non d ame      -7.333  10.815  65.580  0.00  0.00    -0.355 N 
ATOM     46  H46 non d ame      -7.236  11.719  65.143  0.00  0.00     0.162 HD
BRANCH  45  47
ATOM     47  C20 non d ame      -7.675   9.635  64.757  0.00  0.00     0.013 C 
ATOM     48  H30 non d ame      -7.610   8.752  65.393  0.00  0.00     0.072 H 
BRANCH  47  49
ATOM     49  C21 non d ame      -6.694   9.520  63.613  0.00  0.00    -0.038 C 
ATOM     50  H31 non d ame      -7.071   8.717  62.981  0.00  0.00     0.036 H 
ATOM     51  H32 non d ame      -6.592  10.529  63.210  0.00  0.00     0.036 H 
BRANCH  49  52
ATOM     52  C22 non d ame      -5.284   9.089  64.074  0.00  0.00     0.018 C 
ATOM     53  H33 non d ame      -4.743  10.014  64.275  0.00  0.00     0.048 H 
ATOM     54  H34 non d ame      -5.443   8.367  64.873  0.00  0.00     0.048 H 
BRANCH  52  55
ATOM     55  C23 non d ame      -4.468   8.346  62.980  0.00  0.00     0.259 C 
ATOM     56  O7  non d ame      -3.666   8.930  62.326  0.00  0.00    -0.265 OA
BRANCH  55  57
ATOM     57  O8  non d ame      -4.700   6.960  62.758  0.00  0.00    -0.317 OA
BRANCH  57  58
ATOM     58  C29 non d ame      -4.862   6.199  63.959  0.00  0.00     0.052 C 
ATOM     59  H47 non d ame      -4.248   5.309  63.829  0.00  0.00     0.082 H 
ATOM     60  H48 non d ame      -4.655   6.889  64.776  0.00  0.00     0.082 H 
BRANCH  58  61
ATOM     61  C35 non d ame      -6.349   5.762  64.051  0.00  0.00    -0.034 A 
ATOM     62  C30 non d ame      -7.136   5.721  62.904  0.00  0.00    -0.075 A 
ATOM     63  C31 non d ame      -8.471   5.328  62.988  0.00  0.00    -0.082 A 
ATOM     64  H49 non d ame      -6.706   5.995  61.941  0.00  0.00     0.084 H 
ATOM     65  C32 non d ame      -9.019   4.979  64.224  0.00  0.00    -0.083 A 
ATOM     66  H50 non d ame      -9.083   5.294  62.086  0.00  0.00     0.083 H 
ATOM     67  C33 non d ame      -8.232   5.025  65.367  0.00  0.00    -0.082 A 
ATOM     68  H51 non d ame     -10.062   4.670  64.298  0.00  0.00     0.083 H 
ATOM     69  C34 non d ame      -6.896   5.415  65.287  0.00  0.00    -0.075 A 
ATOM     70  H52 non d ame      -8.664   4.754  66.330  0.00  0.00     0.083 H 
ATOM     71  H53 non d ame      -6.283   5.447  66.189  0.00  0.00     0.084 H 
ENDBRANCH  58  61
ENDBRANCH  57  58
ENDBRANCH  55  57
ENDBRANCH  52  55
ENDBRANCH  49  52
ENDBRANCH  47  49
BRANCH  47  72
ATOM     72  C24 non d ame      -9.091   9.785  64.203  0.00  0.00    -0.039 C 
ATOM     73  H35 non d ame      -9.010   9.563  63.139  0.00  0.00     0.036 H 
ATOM     74  H36 non d ame      -9.720   9.166  64.842  0.00  0.00     0.036 H 
BRANCH  72  75
ATOM     75  C25 non d ame      -9.622  11.291  64.332  0.00  0.00    -0.001 C 
ATOM     76  C26 non d ame     -11.005  11.321  65.221  0.00  0.00    -0.035 C 
ATOM     77  C27 non d ame     -11.949  12.009  64.534  0.00  0.00     0.085 C 
ATOM     78  H38 non d ame     -11.424  10.319  65.296  0.00  0.00     0.036 H 
ATOM     79  H39 non d ame     -10.859  11.920  66.120  0.00  0.00     0.036 H 
ATOM     80  N5  non d ame     -11.439  12.167  63.121  0.00  0.00    -0.049 N 
ATOM     81  H40 non d ame     -12.829  11.364  64.524  0.00  0.00     0.075 H 
ATOM     82  H41 non d ame     -11.997  12.989  65.006  0.00  0.00     0.075 H 
ATOM     83  C28 non d ame      -9.867  11.803  63.173  0.00  0.00     0.193 C 
ATOM     84  H42 non d ame     -11.913  11.469  62.566  0.00  0.00     0.280 HD
ATOM     85  H43 non d ame     -11.534  13.145  62.890  0.00  0.00     0.280 HD
ATOM     86  H44 non d ame      -9.115  12.590  63.139  0.00  0.00     0.129 H 
ATOM     87  H37 non d ame      -8.831  11.984  64.622  0.00  0.00     0.046 H 
BRANCH  83  88
ATOM     88  O6  non d ame      -9.533  10.910  62.109  0.00  0.00    -0.369 OA
ATOM     89  H45 non d ame      -9.046  11.387  61.432  0.00  0.00     0.212 HD
ENDBRANCH  83  88
ENDBRANCH  72  75
ENDBRANCH  47  72
ENDBRANCH  45  47
ENDBRANCH   1  43
BRANCH   1  90
ATOM     90  C16 non d ame      -6.558  11.446  69.366  0.00  0.00    -0.035 C 
ATOM     91  H21 non d ame      -7.453  11.767  69.903  0.00  0.00     0.037 H 
ATOM     92  H22 non d ame      -6.309  10.387  69.308  0.00  0.00     0.037 H 
BRANCH  90  93
ATOM     93  C17 non d ame      -5.350  12.146  70.065  0.00  0.00    -0.059 C 
ATOM     94  H23 non d ame      -4.592  12.334  69.305  0.00  0.00     0.038 H 
BRANCH  93  95
ATOM     95  C18 non d ame      -5.747  13.520  70.693  0.00  0.00    -0.073 C 
ATOM     96  H24 non d ame      -6.012  14.219  69.899  0.00  0.00     0.028 H 
ATOM     97  H25 non d ame      -6.601  13.383  71.356  0.00  0.00     0.028 H 
ATOM     98  H26 non d ame      -4.905  13.917  71.261  0.00  0.00     0.028 H 
ENDBRANCH  93  95
BRANCH  93  99
ATOM     99  C19 non d ame      -4.719  11.229  71.117  0.00  0.00    -0.073 C 
ATOM    100  H27 non d ame      -4.912  10.188  70.853  0.00  0.00     0.028 H 
ATOM    101  H28 non d ame      -3.643  11.403  71.150  0.00  0.00     0.028 H 
ATOM    102  H29 non d ame      -5.152  11.444  72.094  0.00  0.00     0.028 H 
ENDBRANCH  93  99
ENDBRANCH  90  93
ENDBRANCH   1  90
TORSDOF 26
ENDMDL
MODEL 7
REMARK VINA RESULT:      -6.6      2.416      5.647
REMARK  26 active torsions:
REMARK  status: ('A' for Active; 'I' for Inactive)
REMARK    1  A    between atoms: C2_2  and  C3_3 
REMARK    2  A    between atoms: C4_6  and  C5_7 
REMARK       I    between atoms: C5_7  and  N2_9 
REMARK    3  A    between atoms: N2_9  and  C6_10 
REMARK    4  A    between atoms: C6_10  and  C7_11 
REMARK    5  A    between atoms: C6_10  and  C8_13 
REMARK       I    between atoms: C7_11  and  N3_14 
REMARK    6  A    between atoms: N3_14  and  C9_15 
REMARK    7  A    between atoms: C9_15  and  C10_16 
REMARK    8  A    between atoms: C9_15  and  C11_18 
REMARK       I    between atoms: C10_16  and  N4_21 
REMARK    9  A    between atoms: C11_18  and  C12_19 
REMARK   10  A    between atoms: C11_18  and  C13_20 
REMARK   11  A    between atoms: N4_21  and  C14_22 
REMARK   12  A    between atoms: C14_22  and  C15_23 
REMARK   13  A    between atoms: C14_22  and  C16_25 
REMARK       I    between atoms: C15_23  and  N6_40 
REMARK   14  A    between atoms: C16_25  and  C17_26 
REMARK   15  A    between atoms: C17_26  and  C18_27 
REMARK   16  A    between atoms: C17_26  and  C19_28 
REMARK   17  A    between atoms: C20_29  and  C21_30 
REMARK   18  A    between atoms: C20_29  and  C24_33 
REMARK   19  A    between atoms: C20_29  and  N6_40 
REMARK   20  A    between atoms: C21_30  and  C22_31 
REMARK   21  A    between atoms: C22_31  and  C23_32 
REMARK   22  A    between atoms: C23_32  and  O8_43 
REMARK   23  A    between atoms: C24_33  and  C25_34 
REMARK   24  A    between atoms: C28_38  and  O6_39 
REMARK   25  A    between atoms: C29_42  and  O8_43 
REMARK   26  A    between atoms: C29_42  and  C35_49 
ROOT
ATOM      1  C14 non d ame      -7.981  10.328  69.375  0.00  0.00     0.089 C 
ATOM      2  H20 non d ame      -8.035  10.882  70.313  0.00  0.00     0.087 H 
ENDROOT
BRANCH   1   3
ATOM      3  N4  non d ame      -8.849   9.167  69.501  0.00  0.00    -0.346 N 
ATOM      4  C10 non d ame      -9.102   8.548  70.854  0.00  0.00     0.241 C 
ATOM      5  O4  non d ame      -8.593   9.002  71.826  0.00  0.00    -0.271 OA
ATOM      6  H19 non d ame      -9.270   8.794  68.662  0.00  0.00     0.163 HD
BRANCH   4   7
ATOM      7  C9  non d ame     -10.007   7.350  70.967  0.00  0.00     0.092 C 
ATOM      8  H11 non d ame      -9.785   6.818  71.892  0.00  0.00     0.088 H 
BRANCH   7   9
ATOM      9  N3  non d ame     -11.402   7.796  71.049  0.00  0.00    -0.346 N 
ATOM     10  C7  non d ame     -12.015   8.011  72.336  0.00  0.00     0.240 C 
ATOM     11  O3  non d ame     -11.403   7.829  73.317  0.00  0.00    -0.271 OA
ATOM     12  H10 non d ame     -11.943   7.957  70.212  0.00  0.00     0.163 HD
BRANCH  10  13
ATOM     13  C6  non d ame     -13.500   8.483  72.416  0.00  0.00     0.086 C 
ATOM     14  H6  non d ame     -14.025   8.079  73.282  0.00  0.00     0.086 H 
BRANCH  13  15
ATOM     15  N2  non d ame     -13.528   9.930  72.553  0.00  0.00    -0.343 N 
ATOM     16  C5  non d ame     -13.036  10.768  71.457  0.00  0.00     0.273 C 
ATOM     17  O2  non d ame     -12.617  10.268  70.472  0.00  0.00    -0.266 OA
ATOM     18  H5  non d ame     -13.885  10.349  73.400  0.00  0.00     0.163 HD
BRANCH  16  19
ATOM     19  C4  non d ame     -13.060  12.299  71.587  0.00  0.00     0.154 A 
ATOM     20  C1  non d ame     -12.343  13.246  70.789  0.00  0.00    -0.017 A 
ATOM     21  C2  non d ame     -12.708  14.508  71.309  0.00  0.00     0.077 A 
ATOM     22  H1  non d ame     -11.664  13.049  69.960  0.00  0.00     0.091 H 
ATOM     23  O1  non d ame     -13.538  14.299  72.288  0.00  0.00    -0.218 OA
ATOM     24  N1  non d ame     -13.759  13.017  72.470  0.00  0.00    -0.123 NA
BRANCH  21  25
ATOM     25  C3  non d ame     -12.220  15.863  70.812  0.00  0.00    -0.029 C 
ATOM     26  H2  non d ame     -11.229  15.753  70.371  0.00  0.00     0.036 H 
ATOM     27  H3  non d ame     -12.911  16.245  70.061  0.00  0.00     0.036 H 
ATOM     28  H4  non d ame     -12.170  16.561  71.648  0.00  0.00     0.036 H 
ENDBRANCH  21  25
ENDBRANCH  16  19
ENDBRANCH  13  15
BRANCH  13  29
ATOM     29  C8  non d ame     -14.231   8.068  71.165  0.00  0.00    -0.049 C 
ATOM     30  H7  non d ame     -13.772   8.549  70.300  0.00  0.00     0.030 H 
ATOM     31  H8  non d ame     -14.175   6.986  71.052  0.00  0.00     0.030 H 
ATOM     32  H9  non d ame     -15.276   8.373  71.237  0.00  0.00     0.030 H 
ENDBRANCH  13  29
ENDBRANCH  10  13
ENDBRANCH   7   9
BRANCH   7  33
ATOM     33  C11 non d ame      -9.828   6.444  69.714  0.00  0.00    -0.033 C 
ATOM     34  H12 non d ame      -9.210   6.988  69.000  0.00  0.00     0.042 H 
BRANCH  33  35
ATOM     35  C12 non d ame      -9.079   5.122  70.070  0.00  0.00    -0.071 C 
ATOM     36  H13 non d ame      -9.512   4.296  69.506  0.00  0.00     0.028 H 
ATOM     37  H14 non d ame      -8.025   5.222  69.818  0.00  0.00     0.028 H 
ATOM     38  H15 non d ame      -9.181   4.925  71.137  0.00  0.00     0.028 H 
ENDBRANCH  33  35
BRANCH  33  39
ATOM     39  C13 non d ame     -11.204   6.149  69.035  0.00  0.00    -0.071 C 
ATOM     40  H16 non d ame     -11.108   5.285  68.379  0.00  0.00     0.028 H 
ATOM     41  H17 non d ame     -11.951   5.941  69.803  0.00  0.00     0.028 H 
ATOM     42  H18 non d ame     -11.515   7.016  68.452  0.00  0.00     0.028 H 
ENDBRANCH  33  39
ENDBRANCH   7  33
ENDBRANCH   4   7
ENDBRANCH   1   3
BRANCH   1  43
ATOM     43  C15 non d ame      -8.462  11.176  68.163  0.00  0.00     0.240 C 
ATOM     44  O5  non d ame      -8.196  10.832  67.058  0.00  0.00    -0.271 OA
ATOM     45  N6  non d ame      -9.266  12.413  68.382  0.00  0.00    -0.355 N 
ATOM     46  H46 non d ame      -9.502  12.712  69.316  0.00  0.00     0.162 HD
BRANCH  45  47
ATOM     47  C20 non d ame      -9.717  13.208  67.220  0.00  0.00     0.013 C 
ATOM     48  H30 non d ame      -9.200  12.834  66.336  0.00  0.00     0.072 H 
BRANCH  47  49
ATOM     49  C21 non d ame      -9.370  14.663  67.443  0.00  0.00    -0.038 C 
ATOM     50  H31 non d ame      -9.179  14.759  68.511  0.00  0.00     0.036 H 
ATOM     51  H32 non d ame      -8.582  14.891  66.725  0.00  0.00     0.036 H 
BRANCH  49  52
ATOM     52  C22 non d ame     -10.543  15.614  67.121  0.00  0.00     0.018 C 
ATOM     53  H33 non d ame     -11.424  14.977  67.028  0.00  0.00     0.048 H 
ATOM     54  H34 non d ame     -10.512  16.390  67.885  0.00  0.00     0.048 H 
BRANCH  52  55
ATOM     55  C23 non d ame     -10.400  16.348  65.759  0.00  0.00     0.259 C 
ATOM     56  O7  non d ame     -10.670  15.792  64.744  0.00  0.00    -0.265 OA
BRANCH  55  57
ATOM     57  O8  non d ame      -9.928  17.689  65.736  0.00  0.00    -0.317 OA
BRANCH  57  58
ATOM     58  C29 non d ame     -10.146  18.403  66.957  0.00  0.00     0.052 C 
ATOM     59  H47 non d ame     -10.883  19.170  66.722  0.00  0.00     0.082 H 
ATOM     60  H48 non d ame     -10.369  17.644  67.706  0.00  0.00     0.082 H 
BRANCH  58  61
ATOM     61  C35 non d ame      -8.816  19.101  67.347  0.00  0.00    -0.034 A 
ATOM     62  C30 non d ame      -8.339  19.014  68.651  0.00  0.00    -0.075 A 
ATOM     63  C31 non d ame      -7.144  19.642  69.000  0.00  0.00    -0.082 A 
ATOM     64  H49 non d ame      -8.900  18.453  69.398  0.00  0.00     0.084 H 
ATOM     65  C32 non d ame      -6.428  20.362  68.041  0.00  0.00    -0.083 A 
ATOM     66  H50 non d ame      -6.771  19.568  70.022  0.00  0.00     0.083 H 
ATOM     67  C33 non d ame      -6.910  20.450  66.742  0.00  0.00    -0.082 A 
ATOM     68  H51 non d ame      -5.492  20.855  68.306  0.00  0.00     0.083 H 
ATOM     69  C34 non d ame      -8.102  19.822  66.388  0.00  0.00    -0.075 A 
ATOM     70  H52 non d ame      -6.349  21.015  65.997  0.00  0.00     0.083 H 
ATOM     71  H53 non d ame      -8.474  19.895  65.365  0.00  0.00     0.084 H 
ENDBRANCH  58  61
ENDBRANCH  57  58
ENDBRANCH  55  57
ENDBRANCH  52  55
ENDBRANCH  49  52
ENDBRANCH  47  49
BRANCH  47  72
ATOM     72  C24 non d ame     -11.228  13.063  67.051  0.00  0.00    -0.039 C 
ATOM     73  H35 non d ame     -11.563  12.496  67.920  0.00  0.00     0.036 H 
ATOM     74  H36 non d ame     -11.600  14.075  66.886  0.00  0.00     0.036 H 
BRANCH  72  75
ATOM     75  C25 non d ame     -11.601  12.204  65.752  0.00  0.00    -0.001 C 
ATOM     76  C26 non d ame     -10.263  11.986  64.822  0.00  0.00    -0.035 C 
ATOM     77  C27 non d ame     -10.552  12.352  63.550  0.00  0.00     0.085 C 
ATOM     78  H38 non d ame      -9.484  12.687  65.118  0.00  0.00     0.036 H 
ATOM     79  H39 non d ame     -10.036  10.924  64.736  0.00  0.00     0.036 H 
ATOM     80  N5  non d ame     -11.860  13.106  63.593  0.00  0.00    -0.049 N 
ATOM     81  H40 non d ame      -9.756  13.037  63.256  0.00  0.00     0.075 H 
ATOM     82  H41 non d ame     -10.697  11.420  63.005  0.00  0.00     0.075 H 
ATOM     83  C28 non d ame     -12.502  12.796  65.041  0.00  0.00     0.193 C 
ATOM     84  H42 non d ame     -11.626  14.086  63.548  0.00  0.00     0.280 HD
ATOM     85  H43 non d ame     -12.451  12.694  62.886  0.00  0.00     0.280 HD
ATOM     86  H44 non d ame     -13.329  12.094  65.143  0.00  0.00     0.129 H 
ATOM     87  H37 non d ame     -12.184  11.316  65.998  0.00  0.00     0.046 H 
BRANCH  83  88
ATOM     88  O6  non d ame     -12.956  14.008  65.649  0.00  0.00    -0.369 OA
ATOM     89  H45 non d ame     -13.172  14.647  64.965  0.00  0.00     0.212 HD
ENDBRANCH  83  88
ENDBRANCH  72  75
ENDBRANCH  47  72
ENDBRANCH  45  47
ENDBRANCH   1  43
BRANCH   1  90
ATOM     90  C16 non d ame      -6.555   9.858  69.136  0.00  0.00    -0.035 C 
ATOM     91  H21 non d ame      -6.204  10.428  68.274  0.00  0.00     0.037 H 
ATOM     92  H22 non d ame      -6.053   9.960  70.098  0.00  0.00     0.037 H 
BRANCH  90  93
ATOM     93  C17 non d ame      -6.450   8.351  68.740  0.00  0.00    -0.059 C 
ATOM     94  H23 non d ame      -7.457   7.933  68.759  0.00  0.00     0.038 H 
BRANCH  93  95
ATOM     95  C18 non d ame      -5.881   8.158  67.298  0.00  0.00    -0.073 C 
ATOM     96  H24 non d ame      -6.566   7.540  66.718  0.00  0.00     0.028 H 
ATOM     97  H25 non d ame      -5.774   9.130  66.818  0.00  0.00     0.028 H 
ATOM     98  H26 non d ame      -4.908   7.670  67.354  0.00  0.00     0.028 H 
ENDBRANCH  93  95
BRANCH  93  99
ATOM     99  C19 non d ame      -5.617   7.573  69.763  0.00  0.00    -0.073 C 
ATOM    100  H27 non d ame      -6.146   7.544  70.716  0.00  0.00     0.028 H 
ATOM    101  H28 non d ame      -5.459   6.556  69.403  0.00  0.00     0.028 H 
ATOM    102  H29 non d ame      -4.653   8.064  69.896  0.00  0.00     0.028 H 
ENDBRANCH  93  99
ENDBRANCH  90  93
ENDBRANCH   1  90
TORSDOF 26
ENDMDL
MODEL 8
REMARK VINA RESULT:      -6.6      3.409      9.631
REMARK  26 active torsions:
REMARK  status: ('A' for Active; 'I' for Inactive)
REMARK    1  A    between atoms: C2_2  and  C3_3 
REMARK    2  A    between atoms: C4_6  and  C5_7 
REMARK       I    between atoms: C5_7  and  N2_9 
REMARK    3  A    between atoms: N2_9  and  C6_10 
REMARK    4  A    between atoms: C6_10  and  C7_11 
REMARK    5  A    between atoms: C6_10  and  C8_13 
REMARK       I    between atoms: C7_11  and  N3_14 
REMARK    6  A    between atoms: N3_14  and  C9_15 
REMARK    7  A    between atoms: C9_15  and  C10_16 
REMARK    8  A    between atoms: C9_15  and  C11_18 
REMARK       I    between atoms: C10_16  and  N4_21 
REMARK    9  A    between atoms: C11_18  and  C12_19 
REMARK   10  A    between atoms: C11_18  and  C13_20 
REMARK   11  A    between atoms: N4_21  and  C14_22 
REMARK   12  A    between atoms: C14_22  and  C15_23 
REMARK   13  A    between atoms: C14_22  and  C16_25 
REMARK       I    between atoms: C15_23  and  N6_40 
REMARK   14  A    between atoms: C16_25  and  C17_26 
REMARK   15  A    between atoms: C17_26  and  C18_27 
REMARK   16  A    between atoms: C17_26  and  C19_28 
REMARK   17  A    between atoms: C20_29  and  C21_30 
REMARK   18  A    between atoms: C20_29  and  C24_33 
REMARK   19  A    between atoms: C20_29  and  N6_40 
REMARK   20  A    between atoms: C21_30  and  C22_31 
REMARK   21  A    between atoms: C22_31  and  C23_32 
REMARK   22  A    between atoms: C23_32  and  O8_43 
REMARK   23  A    between atoms: C24_33  and  C25_34 
REMARK   24  A    between atoms: C28_38  and  O6_39 
REMARK   25  A    between atoms: C29_42  and  O8_43 
REMARK   26  A    between atoms: C29_42  and  C35_49 
ROOT
ATOM      1  C14 non d ame      -7.171  10.961  68.708  0.00  0.00     0.089 C 
ATOM      2  H20 non d ame      -6.114  11.022  68.445  0.00  0.00     0.087 H 
ENDROOT
BRANCH   1   3
ATOM      3  N4  non d ame      -7.880  10.435  67.552  0.00  0.00    -0.346 N 
ATOM      4  C10 non d ame      -7.306  10.597  66.166  0.00  0.00     0.241 C 
ATOM      5  O4  non d ame      -6.271  11.158  66.008  0.00  0.00    -0.271 OA
ATOM      6  H19 non d ame      -8.760   9.963  67.707  0.00  0.00     0.163 HD
BRANCH   4   7
ATOM      7  C9  non d ame      -8.050  10.041  64.981  0.00  0.00     0.092 C 
ATOM      8  H11 non d ame      -8.576   9.135  65.280  0.00  0.00     0.088 H 
BRANCH   7   9
ATOM      9  N3  non d ame      -9.065  11.006  64.545  0.00  0.00    -0.346 N 
ATOM     10  C7  non d ame     -10.335  11.073  65.223  0.00  0.00     0.240 C 
ATOM     11  O3  non d ame     -10.559  10.358  66.123  0.00  0.00    -0.271 OA
ATOM     12  H10 non d ame      -8.886  11.629  63.770  0.00  0.00     0.163 HD
BRANCH  10  13
ATOM     13  C6  non d ame     -11.411  12.100  64.752  0.00  0.00     0.086 C 
ATOM     14  H6  non d ame     -12.317  12.070  65.358  0.00  0.00     0.086 H 
BRANCH  13  15
ATOM     15  N2  non d ame     -10.869  13.443  64.880  0.00  0.00    -0.343 N 
ATOM     16  C5  non d ame     -11.279  14.283  66.007  0.00  0.00     0.273 C 
ATOM     17  O2  non d ame     -12.048  13.870  66.804  0.00  0.00    -0.266 OA
ATOM     18  H5  non d ame     -10.215  13.788  64.192  0.00  0.00     0.163 HD
BRANCH  16  19
ATOM     19  C4  non d ame     -10.713  15.703  66.154  0.00  0.00     0.154 A 
ATOM     20  C1  non d ame     -10.318  16.356  67.365  0.00  0.00    -0.017 A 
ATOM     21  C2  non d ame      -9.872  17.633  66.960  0.00  0.00     0.077 A 
ATOM     22  H1  non d ame     -10.349  15.962  68.381  0.00  0.00     0.091 H 
ATOM     23  O1  non d ame      -9.998  17.696  65.667  0.00  0.00    -0.218 OA
ATOM     24  N1  non d ame     -10.487  16.582  65.174  0.00  0.00    -0.123 NA
BRANCH  21  25
ATOM     25  C3  non d ame      -9.339  18.732  67.871  0.00  0.00    -0.029 C 
ATOM     26  H2  non d ame      -9.460  19.699  67.383  0.00  0.00     0.036 H 
ATOM     27  H3  non d ame      -9.893  18.727  68.809  0.00  0.00     0.036 H 
ATOM     28  H4  non d ame      -8.282  18.557  68.072  0.00  0.00     0.036 H 
ENDBRANCH  21  25
ENDBRANCH  16  19
ENDBRANCH  13  15
BRANCH  13  29
ATOM     29  C8  non d ame     -11.777  11.825  63.316  0.00  0.00    -0.049 C 
ATOM     30  H7  non d ame     -12.505  12.564  62.979  0.00  0.00     0.030 H 
ATOM     31  H8  non d ame     -10.885  11.885  62.694  0.00  0.00     0.030 H 
ATOM     32  H9  non d ame     -12.210  10.827  63.236  0.00  0.00     0.030 H 
ENDBRANCH  13  29
ENDBRANCH  10  13
ENDBRANCH   7   9
BRANCH   7  33
ATOM     33  C11 non d ame      -7.051   9.780  63.816  0.00  0.00    -0.033 C 
ATOM     34  H12 non d ame      -6.267  10.533  63.881  0.00  0.00     0.042 H 
BRANCH  33  35
ATOM     35  C12 non d ame      -6.371   8.382  63.953  0.00  0.00    -0.071 C 
ATOM     36  H13 non d ame      -5.515   8.457  64.623  0.00  0.00     0.028 H 
ATOM     37  H14 non d ame      -7.088   7.668  64.357  0.00  0.00     0.028 H 
ATOM     38  H15 non d ame      -6.036   8.046  62.972  0.00  0.00     0.028 H 
ENDBRANCH  33  35
BRANCH  33  39
ATOM     39  C13 non d ame      -7.755   9.934  62.430  0.00  0.00    -0.071 C 
ATOM     40  H16 non d ame      -7.336   9.214  61.728  0.00  0.00     0.028 H 
ATOM     41  H17 non d ame      -8.824   9.751  62.543  0.00  0.00     0.028 H 
ATOM     42  H18 non d ame      -7.598  10.944  62.052  0.00  0.00     0.028 H 
ENDBRANCH  33  39
ENDBRANCH   7  33
ENDBRANCH   4   7
ENDBRANCH   1   3
BRANCH   1  43
ATOM     43  C15 non d ame      -7.423  10.015  69.916  0.00  0.00     0.240 C 
ATOM     44  O5  non d ame      -6.711  10.064  70.865  0.00  0.00    -0.271 OA
ATOM     45  N6  non d ame      -8.562   9.051  69.893  0.00  0.00    -0.355 N 
ATOM     46  H46 non d ame      -9.176   9.004  69.094  0.00  0.00     0.162 HD
BRANCH  45  47
ATOM     47  C20 non d ame      -8.789   8.159  71.049  0.00  0.00     0.013 C 
ATOM     48  H30 non d ame      -7.845   8.053  71.583  0.00  0.00     0.072 H 
BRANCH  47  49
ATOM     49  C21 non d ame      -9.255   6.808  70.555  0.00  0.00    -0.038 C 
ATOM     50  H31 non d ame      -8.494   6.098  70.877  0.00  0.00     0.036 H 
ATOM     51  H32 non d ame     -10.282   6.704  70.907  0.00  0.00     0.036 H 
BRANCH  49  52
ATOM     52  C22 non d ame      -9.310   6.721  69.014  0.00  0.00     0.018 C 
ATOM     53  H33 non d ame      -9.271   7.751  68.658  0.00  0.00     0.048 H 
ATOM     54  H34 non d ame      -8.529   6.017  68.730  0.00  0.00     0.048 H 
BRANCH  52  55
ATOM     55  C23 non d ame     -10.640   6.129  68.467  0.00  0.00     0.259 C 
ATOM     56  O7  non d ame     -11.614   6.108  69.146  0.00  0.00    -0.265 OA
BRANCH  55  57
ATOM     57  O8  non d ame     -10.676   5.600  67.148  0.00  0.00    -0.317 OA
BRANCH  57  58
ATOM     58  C29 non d ame      -9.558   4.766  66.825  0.00  0.00     0.052 C 
ATOM     59  H47 non d ame      -8.680   5.298  67.187  0.00  0.00     0.082 H 
ATOM     60  H48 non d ame      -9.802   3.781  67.222  0.00  0.00     0.082 H 
BRANCH  58  61
ATOM     61  C35 non d ame      -9.469   4.663  65.279  0.00  0.00    -0.034 A 
ATOM     62  C30 non d ame      -8.470   5.345  64.591  0.00  0.00    -0.075 A 
ATOM     63  C31 non d ame      -8.390   5.252  63.202  0.00  0.00    -0.082 A 
ATOM     64  H49 non d ame      -7.749   5.950  65.140  0.00  0.00     0.084 H 
ATOM     65  C32 non d ame      -9.317   4.477  62.500  0.00  0.00    -0.083 A 
ATOM     66  H50 non d ame      -7.604   5.785  62.667  0.00  0.00     0.083 H 
ATOM     67  C33 non d ame     -10.315   3.802  63.190  0.00  0.00    -0.082 A 
ATOM     68  H51 non d ame      -9.261   4.399  61.415  0.00  0.00     0.083 H 
ATOM     69  C34 non d ame     -10.397   3.890  64.579  0.00  0.00    -0.075 A 
ATOM     70  H52 non d ame     -11.038   3.199  62.639  0.00  0.00     0.083 H 
ATOM     71  H53 non d ame     -11.183   3.355  65.113  0.00  0.00     0.084 H 
ENDBRANCH  58  61
ENDBRANCH  57  58
ENDBRANCH  55  57
ENDBRANCH  52  55
ENDBRANCH  49  52
ENDBRANCH  47  49
BRANCH  47  72
ATOM     72  C24 non d ame      -9.852   8.762  71.965  0.00  0.00    -0.039 C 
ATOM     73  H35 non d ame      -9.905   8.094  72.826  0.00  0.00     0.036 H 
ATOM     74  H36 non d ame      -9.560   9.803  72.102  0.00  0.00     0.036 H 
BRANCH  72  75
ATOM     75  C25 non d ame     -11.298   8.762  71.277  0.00  0.00    -0.001 C 
ATOM     76  C26 non d ame     -11.766  10.306  70.959  0.00  0.00    -0.035 C 
ATOM     77  C27 non d ame     -13.008  10.498  71.466  0.00  0.00     0.085 C 
ATOM     78  H38 non d ame     -11.150  11.007  71.521  0.00  0.00     0.036 H 
ATOM     79  H39 non d ame     -11.905  10.442  69.887  0.00  0.00     0.036 H 
ATOM     80  N5  non d ame     -13.295   9.334  72.383  0.00  0.00    -0.049 N 
ATOM     81  H40 non d ame     -12.942  11.411  72.060  0.00  0.00     0.075 H 
ATOM     82  H41 non d ame     -13.681  10.452  70.611  0.00  0.00     0.075 H 
ATOM     83  C28 non d ame     -12.182   8.215  72.043  0.00  0.00     0.193 C 
ATOM     84  H42 non d ame     -13.141   9.666  73.324  0.00  0.00     0.280 HD
ATOM     85  H43 non d ame     -14.201   8.976  72.116  0.00  0.00     0.280 HD
ATOM     86  H44 non d ame     -12.441   7.337  71.452  0.00  0.00     0.129 H 
ATOM     87  H37 non d ame     -11.365   8.045  70.458  0.00  0.00     0.046 H 
BRANCH  83  88
ATOM     88  O6  non d ame     -11.608   7.708  73.249  0.00  0.00    -0.369 OA
ATOM     89  H45 non d ame     -11.941   6.822  73.414  0.00  0.00     0.212 HD
ENDBRANCH  83  88
ENDBRANCH  72  75
ENDBRANCH  47  72
ENDBRANCH  45  47
ENDBRANCH   1  43
BRANCH   1  90
ATOM     90  C16 non d ame      -7.703  12.349  69.026  0.00  0.00    -0.035 C 
ATOM     91  H21 non d ame      -8.489  12.532  68.292  0.00  0.00     0.037 H 
ATOM     92  H22 non d ame      -7.943  12.330  70.088  0.00  0.00     0.037 H 
BRANCH  90  93
ATOM     93  C17 non d ame      -6.648  13.484  68.833  0.00  0.00    -0.059 C 
ATOM     94  H23 non d ame      -6.742  14.169  69.675  0.00  0.00     0.038 H 
BRANCH  93  95
ATOM     95  C18 non d ame      -5.185  12.935  68.826  0.00  0.00    -0.073 C 
ATOM     96  H24 non d ame      -4.485  13.766  68.921  0.00  0.00     0.028 H 
ATOM     97  H25 non d ame      -5.051  12.250  69.662  0.00  0.00     0.028 H 
ATOM     98  H26 non d ame      -5.000  12.408  67.890  0.00  0.00     0.028 H 
ENDBRANCH  93  95
BRANCH  93  99
ATOM     99  C19 non d ame      -6.934  14.287  67.561  0.00  0.00    -0.073 C 
ATOM    100  H27 non d ame      -7.964  14.115  67.246  0.00  0.00     0.028 H 
ATOM    101  H28 non d ame      -6.788  15.349  67.762  0.00  0.00     0.028 H 
ATOM    102  H29 non d ame      -6.254  13.971  66.770  0.00  0.00     0.028 H 
ENDBRANCH  93  99
ENDBRANCH  90  93
ENDBRANCH   1  90
TORSDOF 26
ENDMDL
MODEL 9
REMARK VINA RESULT:      -6.5      3.598      7.570
REMARK  26 active torsions:
REMARK  status: ('A' for Active; 'I' for Inactive)
REMARK    1  A    between atoms: C2_2  and  C3_3 
REMARK    2  A    between atoms: C4_6  and  C5_7 
REMARK       I    between atoms: C5_7  and  N2_9 
REMARK    3  A    between atoms: N2_9  and  C6_10 
REMARK    4  A    between atoms: C6_10  and  C7_11 
REMARK    5  A    between atoms: C6_10  and  C8_13 
REMARK       I    between atoms: C7_11  and  N3_14 
REMARK    6  A    between atoms: N3_14  and  C9_15 
REMARK    7  A    between atoms: C9_15  and  C10_16 
REMARK    8  A    between atoms: C9_15  and  C11_18 
REMARK       I    between atoms: C10_16  and  N4_21 
REMARK    9  A    between atoms: C11_18  and  C12_19 
REMARK   10  A    between atoms: C11_18  and  C13_20 
REMARK   11  A    between atoms: N4_21  and  C14_22 
REMARK   12  A    between atoms: C14_22  and  C15_23 
REMARK   13  A    between atoms: C14_22  and  C16_25 
REMARK       I    between atoms: C15_23  and  N6_40 
REMARK   14  A    between atoms: C16_25  and  C17_26 
REMARK   15  A    between atoms: C17_26  and  C18_27 
REMARK   16  A    between atoms: C17_26  and  C19_28 
REMARK   17  A    between atoms: C20_29  and  C21_30 
REMARK   18  A    between atoms: C20_29  and  C24_33 
REMARK   19  A    between atoms: C20_29  and  N6_40 
REMARK   20  A    between atoms: C21_30  and  C22_31 
REMARK   21  A    between atoms: C22_31  and  C23_32 
REMARK   22  A    between atoms: C23_32  and  O8_43 
REMARK   23  A    between atoms: C24_33  and  C25_34 
REMARK   24  A    between atoms: C28_38  and  O6_39 
REMARK   25  A    between atoms: C29_42  and  O8_43 
REMARK   26  A    between atoms: C29_42  and  C35_49 
ROOT
ATOM      1  C14 non d ame     -10.584  10.655  67.976  0.00  0.00     0.089 C 
ATOM      2  H20 non d ame      -9.552  10.684  68.328  0.00  0.00     0.087 H 
ENDROOT
BRANCH   1   3
ATOM      3  N4  non d ame     -11.261   9.585  68.694  0.00  0.00    -0.346 N 
ATOM      4  C10 non d ame     -10.724   9.096  70.016  0.00  0.00     0.241 C 
ATOM      5  O4  non d ame      -9.743   9.577  70.481  0.00  0.00    -0.271 OA
ATOM      6  H19 non d ame     -12.093   9.187  68.281  0.00  0.00     0.163 HD
BRANCH   4   7
ATOM      7  C9  non d ame     -11.440   7.991  70.748  0.00  0.00     0.092 C 
ATOM      8  H11 non d ame     -12.399   7.804  70.266  0.00  0.00     0.088 H 
BRANCH   7   9
ATOM      9  N3  non d ame     -10.659   6.754  70.652  0.00  0.00    -0.346 N 
ATOM     10  C7  non d ame     -10.720   5.954  69.455  0.00  0.00     0.240 C 
ATOM     11  O3  non d ame     -11.394   6.289  68.558  0.00  0.00    -0.271 OA
ATOM     12  H10 non d ame     -10.074   6.451  71.418  0.00  0.00     0.163 HD
BRANCH  10  13
ATOM     13  C6  non d ame      -9.889   4.637  69.360  0.00  0.00     0.086 C 
ATOM     14  H6  non d ame     -10.426   3.834  68.855  0.00  0.00     0.086 H 
BRANCH  13  15
ATOM     15  N2  non d ame      -8.690   4.891  68.579  0.00  0.00    -0.343 N 
ATOM     16  C5  non d ame      -8.557   4.297  67.247  0.00  0.00     0.273 C 
ATOM     17  O2  non d ame      -9.418   3.613  66.815  0.00  0.00    -0.266 OA
ATOM     18  H5  non d ame      -7.957   5.475  68.957  0.00  0.00     0.163 HD
BRANCH  16  19
ATOM     19  C4  non d ame      -7.295   4.559  66.409  0.00  0.00     0.154 A 
ATOM     20  C1  non d ame      -7.169   5.439  65.288  0.00  0.00    -0.017 A 
ATOM     21  C2  non d ame      -5.821   5.318  64.882  0.00  0.00     0.077 A 
ATOM     22  H1  non d ame      -7.937   6.070  64.839  0.00  0.00     0.091 H 
ATOM     23  O1  non d ame      -5.249   4.468  65.683  0.00  0.00    -0.218 OA
ATOM     24  N1  non d ame      -6.089   4.011  66.583  0.00  0.00    -0.123 NA
BRANCH  21  25
ATOM     25  C3  non d ame      -5.161   6.051  63.721  0.00  0.00    -0.029 C 
ATOM     26  H2  non d ame      -4.186   6.425  64.034  0.00  0.00     0.036 H 
ATOM     27  H3  non d ame      -5.036   5.366  62.883  0.00  0.00     0.036 H 
ATOM     28  H4  non d ame      -5.790   6.889  63.415  0.00  0.00     0.036 H 
ENDBRANCH  21  25
ENDBRANCH  16  19
ENDBRANCH  13  15
BRANCH  13  29
ATOM     29  C8  non d ame      -9.513   4.175  70.745  0.00  0.00    -0.049 C 
ATOM     30  H7  non d ame      -9.356   5.043  71.387  0.00  0.00     0.030 H 
ATOM     31  H8  non d ame     -10.315   3.561  71.155  0.00  0.00     0.030 H 
ATOM     32  H9  non d ame      -8.595   3.590  70.697  0.00  0.00     0.030 H 
ENDBRANCH  13  29
ENDBRANCH  10  13
ENDBRANCH   7   9
BRANCH   7  33
ATOM     33  C11 non d ame     -11.605   8.384  72.246  0.00  0.00    -0.033 C 
ATOM     34  H12 non d ame     -11.018   9.285  72.416  0.00  0.00     0.042 H 
BRANCH  33  35
ATOM     35  C12 non d ame     -13.091   8.719  72.585  0.00  0.00    -0.071 C 
ATOM     36  H13 non d ame     -13.187   9.787  72.781  0.00  0.00     0.028 H 
ATOM     37  H14 non d ame     -13.726   8.445  71.744  0.00  0.00     0.028 H 
ATOM     38  H15 non d ame     -13.395   8.159  73.469  0.00  0.00     0.028 H 
ENDBRANCH  33  35
BRANCH  33  39
ATOM     39  C13 non d ame     -11.050   7.262  73.182  0.00  0.00    -0.071 C 
ATOM     40  H16 non d ame     -10.608   7.714  74.069  0.00  0.00     0.028 H 
ATOM     41  H17 non d ame     -11.865   6.600  73.479  0.00  0.00     0.028 H 
ATOM     42  H18 non d ame     -10.291   6.687  72.650  0.00  0.00     0.028 H 
ENDBRANCH  33  39
ENDBRANCH   7  33
ENDBRANCH   4   7
ENDBRANCH   1   3
BRANCH   1  43
ATOM     43  C15 non d ame     -11.336  11.988  68.251  0.00  0.00     0.240 C 
ATOM     44  O5  non d ame     -12.348  12.226  67.676  0.00  0.00    -0.271 OA
ATOM     45  N6  non d ame     -10.799  12.966  69.241  0.00  0.00    -0.355 N 
ATOM     46  H46 non d ame      -9.942  12.773  69.738  0.00  0.00     0.162 HD
BRANCH  45  47
ATOM     47  C20 non d ame     -11.526  14.228  69.492  0.00  0.00     0.013 C 
ATOM     48  H30 non d ame     -12.160  14.428  68.628  0.00  0.00     0.072 H 
BRANCH  47  49
ATOM     49  C21 non d ame     -10.530  15.352  69.671  0.00  0.00    -0.038 C 
ATOM     50  H31 non d ame     -10.857  15.896  70.557  0.00  0.00     0.036 H 
ATOM     51  H32 non d ame      -9.547  14.881  69.652  0.00  0.00     0.036 H 
BRANCH  49  52
ATOM     52  C22 non d ame     -10.552  16.364  68.504  0.00  0.00     0.018 C 
ATOM     53  H33 non d ame     -11.568  16.336  68.108  0.00  0.00     0.048 H 
ATOM     54  H34 non d ame     -10.152  17.292  68.910  0.00  0.00     0.048 H 
BRANCH  52  55
ATOM     55  C23 non d ame      -9.621  15.976  67.321  0.00  0.00     0.259 C 
ATOM     56  O7  non d ame      -8.727  16.689  67.000  0.00  0.00    -0.265 OA
BRANCH  55  57
ATOM     57  O8  non d ame      -9.859  14.765  66.616  0.00  0.00    -0.317 OA
BRANCH  57  58
ATOM     58  C29 non d ame      -9.861  14.911  65.192  0.00  0.00     0.052 C 
ATOM     59  H47 non d ame     -10.347  15.866  64.995  0.00  0.00     0.082 H 
ATOM     60  H48 non d ame      -8.831  14.749  64.878  0.00  0.00     0.082 H 
BRANCH  58  61
ATOM     61  C35 non d ame     -10.741  13.780  64.596  0.00  0.00    -0.034 A 
ATOM     62  C30 non d ame     -12.113  13.772  64.821  0.00  0.00    -0.075 A 
ATOM     63  C31 non d ame     -12.903  12.755  64.285  0.00  0.00    -0.082 A 
ATOM     64  H49 non d ame     -12.571  14.563  65.416  0.00  0.00     0.084 H 
ATOM     65  C32 non d ame     -12.313  11.741  63.525  0.00  0.00    -0.083 A 
ATOM     66  H50 non d ame     -13.979  12.754  64.460  0.00  0.00     0.083 H 
ATOM     67  C33 non d ame     -10.942  11.751  63.307  0.00  0.00    -0.082 A 
ATOM     68  H51 non d ame     -12.924  10.943  63.102  0.00  0.00     0.083 H 
ATOM     69  C34 non d ame     -10.150  12.767  63.838  0.00  0.00    -0.075 A 
ATOM     70  H52 non d ame     -10.486  10.957  62.715  0.00  0.00     0.083 H 
ATOM     71  H53 non d ame      -9.074  12.768  63.661  0.00  0.00     0.084 H 
ENDBRANCH  58  61
ENDBRANCH  57  58
ENDBRANCH  55  57
ENDBRANCH  52  55
ENDBRANCH  49  52
ENDBRANCH  47  49
BRANCH  47  72
ATOM     72  C24 non d ame     -12.375  14.092  70.754  0.00  0.00    -0.039 C 
ATOM     73  H35 non d ame     -13.398  13.961  70.402  0.00  0.00     0.036 H 
ATOM     74  H36 non d ame     -11.897  13.309  71.342  0.00  0.00     0.036 H 
BRANCH  72  75
ATOM     75  C25 non d ame     -12.346  15.430  71.636  0.00  0.00    -0.001 C 
ATOM     76  C26 non d ame     -11.693  15.112  73.111  0.00  0.00    -0.035 C 
ATOM     77  C27 non d ame     -12.530  15.582  74.068  0.00  0.00     0.085 C 
ATOM     78  H38 non d ame     -11.678  14.038  73.291  0.00  0.00     0.036 H 
ATOM     79  H39 non d ame     -10.788  15.702  73.254  0.00  0.00     0.036 H 
ATOM     80  N5  non d ame     -13.843  15.895  73.391  0.00  0.00    -0.049 N 
ATOM     81  H40 non d ame     -12.676  14.752  74.760  0.00  0.00     0.075 H 
ATOM     82  H41 non d ame     -12.081  16.510  74.417  0.00  0.00     0.075 H 
ATOM     83  C28 non d ame     -13.535  15.904  71.806  0.00  0.00     0.193 C 
ATOM     84  H42 non d ame     -14.461  15.123  73.594  0.00  0.00     0.280 HD
ATOM     85  H43 non d ame     -14.095  16.831  73.674  0.00  0.00     0.280 HD
ATOM     86  H44 non d ame     -13.453  16.845  71.262  0.00  0.00     0.129 H 
ATOM     87  H37 non d ame     -11.939  16.278  71.085  0.00  0.00     0.046 H 
BRANCH  83  88
ATOM     88  O6  non d ame     -14.523  15.144  71.107  0.00  0.00    -0.369 OA
ATOM     89  H45 non d ame     -15.186  14.835  71.728  0.00  0.00     0.212 HD
ENDBRANCH  83  88
ENDBRANCH  72  75
ENDBRANCH  47  72
ENDBRANCH  45  47
ENDBRANCH   1  43
BRANCH   1  90
ATOM     90  C16 non d ame     -10.612  10.349  66.488  0.00  0.00    -0.035 C 
ATOM     91  H21 non d ame     -11.365   9.568  66.368  0.00  0.00     0.037 H 
ATOM     92  H22 non d ame     -10.746  11.313  65.997  0.00  0.00     0.037 H 
BRANCH  90  93
ATOM     93  C17 non d ame      -9.273   9.758  65.943  0.00  0.00    -0.059 C 
ATOM     94  H23 non d ame      -9.333   9.752  64.855  0.00  0.00     0.038 H 
BRANCH  93  95
ATOM     95  C18 non d ame      -8.038  10.625  66.348  0.00  0.00    -0.073 C 
ATOM     96  H24 non d ame      -8.012  10.735  67.432  0.00  0.00     0.028 H 
ATOM     97  H25 non d ame      -7.125  10.135  66.010  0.00  0.00     0.028 H 
ATOM     98  H26 non d ame      -8.117  11.607  65.883  0.00  0.00     0.028 H 
ENDBRANCH  93  95
BRANCH  93  99
ATOM     99  C19 non d ame      -9.092   8.306  66.396  0.00  0.00    -0.073 C 
ATOM    100  H27 non d ame      -9.544   7.638  65.662  0.00  0.00     0.028 H 
ATOM    101  H28 non d ame      -8.028   8.085  66.483  0.00  0.00     0.028 H 
ATOM    102  H29 non d ame      -9.572   8.164  67.364  0.00  0.00     0.028 H 
ENDBRANCH  93  99
ENDBRANCH  90  93
ENDBRANCH   1  90
TORSDOF 26
ENDMDL
MODEL 10
REMARK VINA RESULT:      -6.5      2.135      6.852
REMARK  26 active torsions:
REMARK  status: ('A' for Active; 'I' for Inactive)
REMARK    1  A    between atoms: C2_2  and  C3_3 
REMARK    2  A    between atoms: C4_6  and  C5_7 
REMARK       I    between atoms: C5_7  and  N2_9 
REMARK    3  A    between atoms: N2_9  and  C6_10 
REMARK    4  A    between atoms: C6_10  and  C7_11 
REMARK    5  A    between atoms: C6_10  and  C8_13 
REMARK       I    between atoms: C7_11  and  N3_14 
REMARK    6  A    between atoms: N3_14  and  C9_15 
REMARK    7  A    between atoms: C9_15  and  C10_16 
REMARK    8  A    between atoms: C9_15  and  C11_18 
REMARK       I    between atoms: C10_16  and  N4_21 
REMARK    9  A    between atoms: C11_18  and  C12_19 
REMARK   10  A    between atoms: C11_18  and  C13_20 
REMARK   11  A    between atoms: N4_21  and  C14_22 
REMARK   12  A    between atoms: C14_22  and  C15_23 
REMARK   13  A    between atoms: C14_22  and  C16_25 
REMARK       I    between atoms: C15_23  and  N6_40 
REMARK   14  A    between atoms: C16_25  and  C17_26 
REMARK   15  A    between atoms: C17_26  and  C18_27 
REMARK   16  A    between atoms: C17_26  and  C19_28 
REMARK   17  A    between atoms: C20_29  and  C21_30 
REMARK   18  A    between atoms: C20_29  and  C24_33 
REMARK   19  A    between atoms: C20_29  and  N6_40 
REMARK   20  A    between atoms: C21_30  and  C22_31 
REMARK   21  A    between atoms: C22_31  and  C23_32 
REMARK   22  A    between atoms: C23_32  and  O8_43 
REMARK   23  A    between atoms: C24_33  and  C25_34 
REMARK   24  A    between atoms: C28_38  and  O6_39 
REMARK   25  A    between atoms: C29_42  and  O8_43 
REMARK   26  A    between atoms: C29_42  and  C35_49 
ROOT
ATOM      1  C14 non d ame      -6.725  11.234  67.705  0.00  0.00     0.089 C 
ATOM      2  H20 non d ame      -5.886  10.690  68.141  0.00  0.00     0.087 H 
ENDROOT
BRANCH   1   3
ATOM      3  N4  non d ame      -7.944  10.543  68.095  0.00  0.00    -0.346 N 
ATOM      4  C10 non d ame      -7.878   9.162  68.699  0.00  0.00     0.241 C 
ATOM      5  O4  non d ame      -6.830   8.626  68.859  0.00  0.00    -0.271 OA
ATOM      6  H19 non d ame      -8.826  11.014  67.948  0.00  0.00     0.163 HD
BRANCH   4   7
ATOM      7  C9  non d ame      -9.150   8.463  69.101  0.00  0.00     0.092 C 
ATOM      8  H11 non d ame      -9.026   8.038  70.097  0.00  0.00     0.088 H 
BRANCH   7   9
ATOM      9  N3  non d ame     -10.241   9.439  69.180  0.00  0.00    -0.346 N 
ATOM     10  C7  non d ame     -10.784   9.811  70.463  0.00  0.00     0.240 C 
ATOM     11  O3  non d ame     -10.357   9.333  71.442  0.00  0.00    -0.271 OA
ATOM     12  H10 non d ame     -10.621   9.859  68.343  0.00  0.00     0.163 HD
BRANCH  10  13
ATOM     13  C6  non d ame     -11.947  10.849  70.540  0.00  0.00     0.086 C 
ATOM     14  H6  non d ame     -11.672  11.751  71.085  0.00  0.00     0.086 H 
BRANCH  13  15
ATOM     15  N2  non d ame     -12.295  11.267  69.191  0.00  0.00    -0.343 N 
ATOM     16  C5  non d ame     -11.404  12.174  68.465  0.00  0.00     0.273 C 
ATOM     17  O2  non d ame     -10.412  12.564  68.975  0.00  0.00    -0.266 OA
ATOM     18  H5  non d ame     -13.147  10.931  68.765  0.00  0.00     0.163 HD
BRANCH  16  19
ATOM     19  C4  non d ame     -11.759  12.624  67.039  0.00  0.00     0.154 A 
ATOM     20  C1  non d ame     -11.496  11.922  65.820  0.00  0.00    -0.017 A 
ATOM     21  C2  non d ame     -12.016  12.752  64.803  0.00  0.00     0.077 A 
ATOM     22  H1  non d ame     -11.003  10.958  65.693  0.00  0.00     0.091 H 
ATOM     23  O1  non d ame     -12.519  13.804  65.380  0.00  0.00    -0.218 OA
ATOM     24  N1  non d ame     -12.381  13.752  66.686  0.00  0.00    -0.123 NA
BRANCH  21  25
ATOM     25  C3  non d ame     -11.994  12.467  63.307  0.00  0.00    -0.029 C 
ATOM     26  H2  non d ame     -12.968  12.091  62.994  0.00  0.00     0.036 H 
ATOM     27  H3  non d ame     -11.768  13.385  62.765  0.00  0.00     0.036 H 
ATOM     28  H4  non d ame     -11.229  11.720  63.091  0.00  0.00     0.036 H 
ENDBRANCH  21  25
ENDBRANCH  16  19
ENDBRANCH  13  15
BRANCH  13  29
ATOM     29  C8  non d ame     -13.142  10.220  71.209  0.00  0.00    -0.049 C 
ATOM     30  H7  non d ame     -13.901   9.994  70.460  0.00  0.00     0.030 H 
ATOM     31  H8  non d ame     -12.839   9.300  71.708  0.00  0.00     0.030 H 
ATOM     32  H9  non d ame     -13.554  10.913  71.943  0.00  0.00     0.030 H 
ENDBRANCH  13  29
ENDBRANCH  10  13
ENDBRANCH   7   9
BRANCH   7  33
ATOM     33  C11 non d ame      -9.503   7.378  68.041  0.00  0.00    -0.033 C 
ATOM     34  H12 non d ame      -8.572   6.909  67.728  0.00  0.00     0.042 H 
BRANCH  33  35
ATOM     35  C12 non d ame     -10.409   6.263  68.650  0.00  0.00    -0.071 C 
ATOM     36  H13 non d ame     -10.732   5.586  67.859  0.00  0.00     0.028 H 
ATOM     37  H14 non d ame      -9.847   5.706  69.398  0.00  0.00     0.028 H 
ATOM     38  H15 non d ame     -11.282   6.719  69.115  0.00  0.00     0.028 H 
ENDBRANCH  33  35
BRANCH  33  39
ATOM     39  C13 non d ame     -10.168   8.023  66.783  0.00  0.00    -0.071 C 
ATOM     40  H16 non d ame      -9.426   8.606  66.238  0.00  0.00     0.028 H 
ATOM     41  H17 non d ame     -10.559   7.236  66.135  0.00  0.00     0.028 H 
ATOM     42  H18 non d ame     -10.984   8.674  67.095  0.00  0.00     0.028 H 
ENDBRANCH  33  39
ENDBRANCH   7  33
ENDBRANCH   4   7
ENDBRANCH   1   3
BRANCH   1  43
ATOM     43  C15 non d ame      -6.803  12.701  68.216  0.00  0.00     0.240 C 
ATOM     44  O5  non d ame      -6.533  12.949  69.346  0.00  0.00    -0.271 OA
ATOM     45  N6  non d ame      -7.207  13.799  67.292  0.00  0.00    -0.355 N 
ATOM     46  H46 non d ame      -7.435  13.601  66.329  0.00  0.00     0.162 HD
BRANCH  45  47
ATOM     47  C20 non d ame      -7.276  15.189  67.793  0.00  0.00     0.013 C 
ATOM     48  H30 non d ame      -6.469  15.327  68.512  0.00  0.00     0.072 H 
BRANCH  47  49
ATOM     49  C21 non d ame      -8.611  15.412  68.467  0.00  0.00    -0.038 C 
ATOM     50  H31 non d ame      -8.990  14.419  68.707  0.00  0.00     0.036 H 
ATOM     51  H32 non d ame      -8.422  16.132  69.264  0.00  0.00     0.036 H 
BRANCH  49  52
ATOM     52  C22 non d ame      -9.653  16.062  67.530  0.00  0.00     0.018 C 
ATOM     53  H33 non d ame      -9.082  16.508  66.716  0.00  0.00     0.048 H 
ATOM     54  H34 non d ame     -10.386  15.284  67.319  0.00  0.00     0.048 H 
BRANCH  52  55
ATOM     55  C23 non d ame     -10.444  17.228  68.186  0.00  0.00     0.259 C 
ATOM     56  O7  non d ame     -10.441  18.310  67.694  0.00  0.00    -0.265 OA
BRANCH  55  57
ATOM     57  O8  non d ame     -11.161  16.993  69.391  0.00  0.00    -0.317 OA
BRANCH  57  58
ATOM     58  C29 non d ame     -12.022  15.851  69.342  0.00  0.00     0.052 C 
ATOM     59  H47 non d ame     -12.925  16.184  68.832  0.00  0.00     0.082 H 
ATOM     60  H48 non d ame     -11.421  15.047  68.917  0.00  0.00     0.082 H 
BRANCH  58  61
ATOM     61  C35 non d ame     -12.393  15.468  70.800  0.00  0.00    -0.034 A 
ATOM     62  C30 non d ame     -13.152  14.330  71.050  0.00  0.00    -0.075 A 
ATOM     63  C31 non d ame     -13.484  13.986  72.360  0.00  0.00    -0.082 A 
ATOM     64  H49 non d ame     -13.484  13.705  70.221  0.00  0.00     0.084 H 
ATOM     65  C32 non d ame     -13.059  14.790  73.421  0.00  0.00    -0.083 A 
ATOM     66  H50 non d ame     -14.076  13.091  72.553  0.00  0.00     0.083 H 
ATOM     67  C33 non d ame     -12.305  15.928  73.166  0.00  0.00    -0.082 A 
ATOM     68  H51 non d ame     -13.314  14.528  74.448  0.00  0.00     0.083 H 
ATOM     69  C34 non d ame     -11.968  16.272  71.859  0.00  0.00    -0.075 A 
ATOM     70  H52 non d ame     -11.976  16.553  73.997  0.00  0.00     0.083 H 
ATOM     71  H53 non d ame     -11.375  17.167  71.667  0.00  0.00     0.084 H 
ENDBRANCH  58  61
ENDBRANCH  57  58
ENDBRANCH  55  57
ENDBRANCH  52  55
ENDBRANCH  49  52
ENDBRANCH  47  49
BRANCH  47  72
ATOM     72  C24 non d ame      -7.123  16.165  66.628  0.00  0.00    -0.039 C 
ATOM     73  H35 non d ame      -6.477  15.659  65.910  0.00  0.00     0.036 H 
ATOM     74  H36 non d ame      -8.139  16.442  66.346  0.00  0.00     0.036 H 
BRANCH  72  75
ATOM     75  C25 non d ame      -6.373  17.508  67.074  0.00  0.00    -0.001 C 
ATOM     76  C26 non d ame      -6.335  17.609  68.715  0.00  0.00    -0.035 C 
ATOM     77  C27 non d ame      -6.804  18.825  69.088  0.00  0.00     0.085 C 
ATOM     78  H38 non d ame      -7.053  16.915  69.149  0.00  0.00     0.036 H 
ATOM     79  H39 non d ame      -5.303  17.616  69.066  0.00  0.00     0.036 H 
ATOM     80  N5  non d ame      -7.462  19.435  67.874  0.00  0.00    -0.049 N 
ATOM     81  H40 non d ame      -7.565  18.624  69.842  0.00  0.00     0.075 H 
ATOM     82  H41 non d ame      -5.922  19.410  69.345  0.00  0.00     0.075 H 
ATOM     83  C28 non d ame      -6.971  18.555  66.612  0.00  0.00     0.193 C 
ATOM     84  H42 non d ame      -8.456  19.303  67.991  0.00  0.00     0.280 HD
ATOM     85  H43 non d ame      -7.084  20.367  67.781  0.00  0.00     0.280 HD
ATOM     86  H44 non d ame      -6.209  18.936  65.933  0.00  0.00     0.129 H 
ATOM     87  H37 non d ame      -5.428  17.648  66.547  0.00  0.00     0.046 H 
BRANCH  83  88
ATOM     88  O6  non d ame      -8.085  18.216  65.784  0.00  0.00    -0.369 OA
ATOM     89  H45 non d ame      -7.785  17.669  65.054  0.00  0.00     0.212 HD
ENDBRANCH  83  88
ENDBRANCH  72  75
ENDBRANCH  47  72
ENDBRANCH  45  47
ENDBRANCH   1  43
BRANCH   1  90
ATOM     90  C16 non d ame      -6.612  11.225  66.190  0.00  0.00    -0.035 C 
ATOM     91  H21 non d ame      -7.181  12.093  65.853  0.00  0.00     0.037 H 
ATOM     92  H22 non d ame      -5.545  11.159  65.980  0.00  0.00     0.037 H 
BRANCH  90  93
ATOM     93  C17 non d ame      -7.272   9.979  65.519  0.00  0.00    -0.059 C 
ATOM     94  H23 non d ame      -7.828   9.445  66.289  0.00  0.00     0.038 H 
BRANCH  93  95
ATOM     95  C18 non d ame      -8.281  10.379  64.395  0.00  0.00    -0.073 C 
ATOM     96  H24 non d ame      -8.384  11.464  64.370  0.00  0.00     0.028 H 
ATOM     97  H25 non d ame      -7.910  10.027  63.433  0.00  0.00     0.028 H 
ATOM     98  H26 non d ame      -9.251   9.925  64.599  0.00  0.00     0.028 H 
ENDBRANCH  93  95
BRANCH  93  99
ATOM     99  C19 non d ame      -6.208   9.020  64.979  0.00  0.00    -0.073 C 
ATOM    100  H27 non d ame      -6.103   9.162  63.903  0.00  0.00     0.028 H 
ATOM    101  H28 non d ame      -5.255   9.224  65.468  0.00  0.00     0.028 H 
ATOM    102  H29 non d ame      -6.507   7.992  65.184  0.00  0.00     0.028 H 
ENDBRANCH  93  99
ENDBRANCH  90  93
ENDBRANCH   1  90
TORSDOF 26
ENDMDL
MODEL 11
REMARK VINA RESULT:      -6.5      4.129      9.905
REMARK  26 active torsions:
REMARK  status: ('A' for Active; 'I' for Inactive)
REMARK    1  A    between atoms: C2_2  and  C3_3 
REMARK    2  A    between atoms: C4_6  and  C5_7 
REMARK       I    between atoms: C5_7  and  N2_9 
REMARK    3  A    between atoms: N2_9  and  C6_10 
REMARK    4  A    between atoms: C6_10  and  C7_11 
REMARK    5  A    between atoms: C6_10  and  C8_13 
REMARK       I    between atoms: C7_11  and  N3_14 
REMARK    6  A    between atoms: N3_14  and  C9_15 
REMARK    7  A    between atoms: C9_15  and  C10_16 
REMARK    8  A    between atoms: C9_15  and  C11_18 
REMARK       I    between atoms: C10_16  and  N4_21 
REMARK    9  A    between atoms: C11_18  and  C12_19 
REMARK   10  A    between atoms: C11_18  and  C13_20 
REMARK   11  A    between atoms: N4_21  and  C14_22 
REMARK   12  A    between atoms: C14_22  and  C15_23 
REMARK   13  A    between atoms: C14_22  and  C16_25 
REMARK       I    between atoms: C15_23  and  N6_40 
REMARK   14  A    between atoms: C16_25  and  C17_26 
REMARK   15  A    between atoms: C17_26  and  C18_27 
REMARK   16  A    between atoms: C17_26  and  C19_28 
REMARK   17  A    between atoms: C20_29  and  C21_30 
REMARK   18  A    between atoms: C20_29  and  C24_33 
REMARK   19  A    between atoms: C20_29  and  N6_40 
REMARK   20  A    between atoms: C21_30  and  C22_31 
REMARK   21  A    between atoms: C22_31  and  C23_32 
REMARK   22  A    between atoms: C23_32  and  O8_43 
REMARK   23  A    between atoms: C24_33  and  C25_34 
REMARK   24  A    between atoms: C28_38  and  O6_39 
REMARK   25  A    between atoms: C29_42  and  O8_43 
REMARK   26  A    between atoms: C29_42  and  C35_49 
ROOT
ATOM      1  C14 non d ame      -8.170   6.163  63.960  0.00  0.00     0.089 C 
ATOM      2  H20 non d ame      -8.762   6.204  63.045  0.00  0.00     0.087 H 
ENDROOT
BRANCH   1   3
ATOM      3  N4  non d ame      -7.842   7.531  64.331  0.00  0.00    -0.346 N 
ATOM      4  C10 non d ame      -8.054   8.658  63.351  0.00  0.00     0.241 C 
ATOM      5  O4  non d ame      -8.489   8.438  62.268  0.00  0.00    -0.271 OA
ATOM      6  H19 non d ame      -7.471   7.698  65.255  0.00  0.00     0.163 HD
BRANCH   4   7
ATOM      7  C9  non d ame      -7.714  10.069  63.752  0.00  0.00     0.092 C 
ATOM      8  H11 non d ame      -7.509  10.658  62.858  0.00  0.00     0.088 H 
BRANCH   7   9
ATOM      9  N3  non d ame      -8.870  10.681  64.417  0.00  0.00    -0.346 N 
ATOM     10  C7  non d ame      -9.869  11.367  63.637  0.00  0.00     0.240 C 
ATOM     11  O3  non d ame      -9.761  11.438  62.473  0.00  0.00    -0.271 OA
ATOM     12  H10 non d ame      -8.977  10.628  65.420  0.00  0.00     0.163 HD
BRANCH  10  13
ATOM     13  C6  non d ame     -11.095  12.018  64.350  0.00  0.00     0.086 C 
ATOM     14  H6  non d ame     -11.254  11.629  65.356  0.00  0.00     0.086 H 
BRANCH  13  15
ATOM     15  N2  non d ame     -10.856  13.445  64.489  0.00  0.00    -0.343 N 
ATOM     16  C5  non d ame     -10.895  14.058  65.819  0.00  0.00     0.273 C 
ATOM     17  O2  non d ame     -11.122  13.394  66.769  0.00  0.00    -0.266 OA
ATOM     18  H5  non d ame     -10.665  14.005  63.670  0.00  0.00     0.163 HD
BRANCH  16  19
ATOM     19  C4  non d ame     -10.643  15.565  65.979  0.00  0.00     0.154 A 
ATOM     20  C1  non d ame     -10.493  16.291  67.204  0.00  0.00    -0.017 A 
ATOM     21  C2  non d ame     -10.281  17.630  66.808  0.00  0.00     0.077 A 
ATOM     22  H1  non d ame     -10.532  15.905  68.223  0.00  0.00     0.091 H 
ATOM     23  O1  non d ame     -10.306  17.659  65.508  0.00  0.00    -0.218 OA
ATOM     24  N1  non d ame     -10.515  16.465  65.001  0.00  0.00    -0.123 NA
BRANCH  21  25
ATOM     25  C3  non d ame     -10.063  18.820  67.734  0.00  0.00    -0.029 C 
ATOM     26  H2  non d ame     -10.671  19.659  67.398  0.00  0.00     0.036 H 
ATOM     27  H3  non d ame     -10.348  18.547  68.749  0.00  0.00     0.036 H 
ATOM     28  H4  non d ame      -9.010  19.105  67.717  0.00  0.00     0.036 H 
ENDBRANCH  21  25
ENDBRANCH  16  19
ENDBRANCH  13  15
BRANCH  13  29
ATOM     29  C8  non d ame     -12.340  11.780  63.534  0.00  0.00    -0.049 C 
ATOM     30  H7  non d ame     -12.738  10.790  63.759  0.00  0.00     0.030 H 
ATOM     31  H8  non d ame     -13.086  12.536  63.778  0.00  0.00     0.030 H 
ATOM     32  H9  non d ame     -12.095  11.840  62.473  0.00  0.00     0.030 H 
ENDBRANCH  13  29
ENDBRANCH  10  13
ENDBRANCH   7   9
BRANCH   7  33
ATOM     33  C11 non d ame      -6.505  10.052  64.732  0.00  0.00    -0.033 C 
ATOM     34  H12 non d ame      -6.301   9.012  64.985  0.00  0.00     0.042 H 
BRANCH  33  35
ATOM     35  C12 non d ame      -5.221  10.633  64.061  0.00  0.00    -0.071 C 
ATOM     36  H13 non d ame      -4.414  10.672  64.793  0.00  0.00     0.028 H 
ATOM     37  H14 non d ame      -4.926   9.995  63.229  0.00  0.00     0.028 H 
ATOM     38  H15 non d ame      -5.428  11.638  63.695  0.00  0.00     0.028 H 
ENDBRANCH  33  35
BRANCH  33  39
ATOM     39  C13 non d ame      -6.845  10.812  66.054  0.00  0.00    -0.071 C 
ATOM     40  H16 non d ame      -6.475  11.835  65.991  0.00  0.00     0.028 H 
ATOM     41  H17 non d ame      -7.927  10.825  66.198  0.00  0.00     0.028 H 
ATOM     42  H18 non d ame      -6.374  10.306  66.897  0.00  0.00     0.028 H 
ENDBRANCH  33  39
ENDBRANCH   7  33
ENDBRANCH   4   7
ENDBRANCH   1   3
BRANCH   1  43
ATOM     43  C15 non d ame      -8.949   5.506  65.135  0.00  0.00     0.240 C 
ATOM     44  O5  non d ame      -9.738   4.646  64.914  0.00  0.00    -0.271 OA
ATOM     45  N6  non d ame      -8.703   5.943  66.539  0.00  0.00    -0.355 N 
ATOM     46  H46 non d ame      -8.031   6.669  66.739  0.00  0.00     0.162 HD
BRANCH  45  47
ATOM     47  C20 non d ame      -9.450   5.308  67.646  0.00  0.00     0.013 C 
ATOM     48  H30 non d ame     -10.077   4.523  67.221  0.00  0.00     0.072 H 
BRANCH  47  49
ATOM     49  C21 non d ame     -10.314   6.345  68.326  0.00  0.00    -0.038 C 
ATOM     50  H31 non d ame     -11.076   5.785  68.868  0.00  0.00     0.036 H 
ATOM     51  H32 non d ame      -9.625   6.993  68.868  0.00  0.00     0.036 H 
BRANCH  49  52
ATOM     52  C22 non d ame     -11.067   7.248  67.325  0.00  0.00     0.018 C 
ATOM     53  H33 non d ame     -10.908   6.799  66.344  0.00  0.00     0.048 H 
ATOM     54  H34 non d ame     -12.077   7.350  67.720  0.00  0.00     0.048 H 
BRANCH  52  55
ATOM     55  C23 non d ame     -10.496   8.691  67.231  0.00  0.00     0.259 C 
ATOM     56  O7  non d ame      -9.475   8.899  66.659  0.00  0.00    -0.265 OA
BRANCH  55  57
ATOM     57  O8  non d ame     -11.201   9.761  67.848  0.00  0.00    -0.317 OA
BRANCH  57  58
ATOM     58  C29 non d ame     -10.459  10.433  68.870  0.00  0.00     0.052 C 
ATOM     59  H47 non d ame      -9.417  10.391  68.554  0.00  0.00     0.082 H 
ATOM     60  H48 non d ame     -10.949  11.398  69.004  0.00  0.00     0.082 H 
BRANCH  58  61
ATOM     61  C35 non d ame     -10.609   9.621  70.184  0.00  0.00    -0.034 A 
ATOM     62  C30 non d ame     -11.868   9.420  70.740  0.00  0.00    -0.075 A 
ATOM     63  C31 non d ame     -12.002   8.690  71.920  0.00  0.00    -0.082 A 
ATOM     64  H49 non d ame     -12.750   9.833  70.250  0.00  0.00     0.084 H 
ATOM     65  C32 non d ame     -10.870   8.163  72.547  0.00  0.00    -0.083 A 
ATOM     66  H50 non d ame     -12.991   8.531  72.351  0.00  0.00     0.083 H 
ATOM     67  C33 non d ame      -9.614   8.369  71.990  0.00  0.00    -0.082 A 
ATOM     68  H51 non d ame     -10.966   7.590  73.469  0.00  0.00     0.083 H 
ATOM     69  C34 non d ame      -9.476   9.096  70.810  0.00  0.00    -0.075 A 
ATOM     70  H52 non d ame      -8.733   7.958  72.483  0.00  0.00     0.083 H 
ATOM     71  H53 non d ame      -8.487   9.252  70.378  0.00  0.00     0.084 H 
ENDBRANCH  58  61
ENDBRANCH  57  58
ENDBRANCH  55  57
ENDBRANCH  52  55
ENDBRANCH  49  52
ENDBRANCH  47  49
BRANCH  47  72
ATOM     72  C24 non d ame      -8.471   4.716  68.657  0.00  0.00    -0.039 C 
ATOM     73  H35 non d ame      -8.103   3.797  68.201  0.00  0.00     0.036 H 
ATOM     74  H36 non d ame      -7.776   5.522  68.894  0.00  0.00     0.036 H 
BRANCH  72  75
ATOM     75  C25 non d ame      -9.202   4.306  70.022  0.00  0.00    -0.001 C 
ATOM     76  C26 non d ame      -8.440   5.010  71.298  0.00  0.00    -0.035 C 
ATOM     77  C27 non d ame      -8.164   4.057  72.220  0.00  0.00     0.085 C 
ATOM     78  H38 non d ame      -7.456   5.366  70.996  0.00  0.00     0.036 H 
ATOM     79  H39 non d ame      -9.125   5.678  71.820  0.00  0.00     0.036 H 
ATOM     80  N5  non d ame      -8.372   2.720  71.549  0.00  0.00    -0.049 N 
ATOM     81  H40 non d ame      -7.105   4.176  72.454  0.00  0.00     0.075 H 
ATOM     82  H41 non d ame      -8.912   4.182  73.002  0.00  0.00     0.075 H 
ATOM     83  C28 non d ame      -9.193   3.027  70.193  0.00  0.00     0.193 C 
ATOM     84  H42 non d ame      -7.455   2.379  71.301  0.00  0.00     0.280 HD
ATOM     85  H43 non d ame      -8.962   2.179  72.166  0.00  0.00     0.280 HD
ATOM     86  H44 non d ame     -10.258   2.809  70.129  0.00  0.00     0.129 H 
ATOM     87  H37 non d ame     -10.284   4.427  69.962  0.00  0.00     0.046 H 
BRANCH  83  88
ATOM     88  O6  non d ame      -8.596   2.341  69.090  0.00  0.00    -0.369 OA
ATOM     89  H45 non d ame      -9.021   1.487  68.977  0.00  0.00     0.212 HD
ENDBRANCH  83  88
ENDBRANCH  72  75
ENDBRANCH  47  72
ENDBRANCH  45  47
ENDBRANCH   1  43
BRANCH   1  90
ATOM     90  C16 non d ame      -6.883   5.395  63.707  0.00  0.00    -0.035 C 
ATOM     91  H21 non d ame      -7.008   4.443  64.224  0.00  0.00     0.037 H 
ATOM     92  H22 non d ame      -6.744   5.414  62.626  0.00  0.00     0.037 H 
BRANCH  90  93
ATOM     93  C17 non d ame      -5.618   6.070  64.326  0.00  0.00    -0.059 C 
ATOM     94  H23 non d ame      -5.958   6.785  65.075  0.00  0.00     0.038 H 
BRANCH  93  95
ATOM     95  C18 non d ame      -4.690   5.037  65.042  0.00  0.00    -0.073 C 
ATOM     96  H24 non d ame      -3.895   5.567  65.568  0.00  0.00     0.028 H 
ATOM     97  H25 non d ame      -5.274   4.457  65.756  0.00  0.00     0.028 H 
ATOM     98  H26 non d ame      -4.252   4.368  64.301  0.00  0.00     0.028 H 
ENDBRANCH  93  95
BRANCH  93  99
ATOM     99  C19 non d ame      -4.842   6.857  63.266  0.00  0.00    -0.073 C 
ATOM    100  H27 non d ame      -3.795   6.552  63.282  0.00  0.00     0.028 H 
ATOM    101  H28 non d ame      -5.266   6.654  62.283  0.00  0.00     0.028 H 
ATOM    102  H29 non d ame      -4.915   7.923  63.479  0.00  0.00     0.028 H 
ENDBRANCH  93  99
ENDBRANCH  90  93
ENDBRANCH   1  90
TORSDOF 26
ENDMDL
MODEL 12
REMARK VINA RESULT:      -6.4      3.015      8.472
REMARK  26 active torsions:
REMARK  status: ('A' for Active; 'I' for Inactive)
REMARK    1  A    between atoms: C2_2  and  C3_3 
REMARK    2  A    between atoms: C4_6  and  C5_7 
REMARK       I    between atoms: C5_7  and  N2_9 
REMARK    3  A    between atoms: N2_9  and  C6_10 
REMARK    4  A    between atoms: C6_10  and  C7_11 
REMARK    5  A    between atoms: C6_10  and  C8_13 
REMARK       I    between atoms: C7_11  and  N3_14 
REMARK    6  A    between atoms: N3_14  and  C9_15 
REMARK    7  A    between atoms: C9_15  and  C10_16 
REMARK    8  A    between atoms: C9_15  and  C11_18 
REMARK       I    between atoms: C10_16  and  N4_21 
REMARK    9  A    between atoms: C11_18  and  C12_19 
REMARK   10  A    between atoms: C11_18  and  C13_20 
REMARK   11  A    between atoms: N4_21  and  C14_22 
REMARK   12  A    between atoms: C14_22  and  C15_23 
REMARK   13  A    between atoms: C14_22  and  C16_25 
REMARK       I    between atoms: C15_23  and  N6_40 
REMARK   14  A    between atoms: C16_25  and  C17_26 
REMARK   15  A    between atoms: C17_26  and  C18_27 
REMARK   16  A    between atoms: C17_26  and  C19_28 
REMARK   17  A    between atoms: C20_29  and  C21_30 
REMARK   18  A    between atoms: C20_29  and  C24_33 
REMARK   19  A    between atoms: C20_29  and  N6_40 
REMARK   20  A    between atoms: C21_30  and  C22_31 
REMARK   21  A    between atoms: C22_31  and  C23_32 
REMARK   22  A    between atoms: C23_32  and  O8_43 
REMARK   23  A    between atoms: C24_33  and  C25_34 
REMARK   24  A    between atoms: C28_38  and  O6_39 
REMARK   25  A    between atoms: C29_42  and  O8_43 
REMARK   26  A    between atoms: C29_42  and  C35_49 
ROOT
ATOM      1  C14 non d ame      -9.240   9.552  69.406  0.00  0.00     0.089 C 
ATOM      2  H20 non d ame      -8.646   8.638  69.389  0.00  0.00     0.087 H 
ENDROOT
BRANCH   1   3
ATOM      3  N4  non d ame      -8.325  10.667  69.598  0.00  0.00    -0.346 N 
ATOM      4  C10 non d ame      -6.912  10.591  69.074  0.00  0.00     0.241 C 
ATOM      5  O4  non d ame      -6.534   9.620  68.504  0.00  0.00    -0.271 OA
ATOM      6  H19 non d ame      -8.664  11.483  70.088  0.00  0.00     0.163 HD
BRANCH   4   7
ATOM      7  C9  non d ame      -5.978  11.756  69.277  0.00  0.00     0.092 C 
ATOM      8  H11 non d ame      -5.362  11.881  68.386  0.00  0.00     0.088 H 
BRANCH   7   9
ATOM      9  N3  non d ame      -6.760  12.986  69.438  0.00  0.00    -0.346 N 
ATOM     10  C7  non d ame      -6.826  13.944  68.363  0.00  0.00     0.240 C 
ATOM     11  O3  non d ame      -6.256  13.743  67.361  0.00  0.00    -0.271 OA
ATOM     12  H10 non d ame      -7.257  13.174  70.298  0.00  0.00     0.163 HD
BRANCH  10  13
ATOM     13  C6  non d ame      -7.657  15.253  68.543  0.00  0.00     0.086 C 
ATOM     14  H6  non d ame      -8.057  15.631  67.602  0.00  0.00     0.086 H 
BRANCH  13  15
ATOM     15  N2  non d ame      -8.799  14.972  69.397  0.00  0.00    -0.343 N 
ATOM     16  C5  non d ame     -10.141  15.366  68.960  0.00  0.00     0.273 C 
ATOM     17  O2  non d ame     -10.290  15.910  67.922  0.00  0.00    -0.266 OA
ATOM     18  H5  non d ame      -8.662  14.509  70.284  0.00  0.00     0.163 HD
BRANCH  16  19
ATOM     19  C4  non d ame     -11.357  15.074  69.853  0.00  0.00     0.154 A 
ATOM     20  C1  non d ame     -11.845  15.871  70.937  0.00  0.00    -0.017 A 
ATOM     21  C2  non d ame     -12.973  15.172  71.423  0.00  0.00     0.077 A 
ATOM     22  H1  non d ame     -11.443  16.812  71.313  0.00  0.00     0.091 H 
ATOM     23  O1  non d ame     -13.109  14.103  70.695  0.00  0.00    -0.218 OA
ATOM     24  N1  non d ame     -12.178  14.023  69.772  0.00  0.00    -0.123 NA
BRANCH  21  25
ATOM     25  C3  non d ame     -13.864  15.595  72.583  0.00  0.00    -0.029 C 
ATOM     26  H2  non d ame     -13.483  16.520  73.016  0.00  0.00     0.036 H 
ATOM     27  H3  non d ame     -14.880  15.754  72.221  0.00  0.00     0.036 H 
ATOM     28  H4  non d ame     -13.868  14.813  73.343  0.00  0.00     0.036 H 
ENDBRANCH  21  25
ENDBRANCH  16  19
ENDBRANCH  13  15
BRANCH  13  29
ATOM     29  C8  non d ame      -6.794  16.318  69.169  0.00  0.00    -0.049 C 
ATOM     30  H7  non d ame      -7.224  17.300  68.967  0.00  0.00     0.030 H 
ATOM     31  H8  non d ame      -6.741  16.159  70.245  0.00  0.00     0.030 H 
ATOM     32  H9  non d ame      -5.791  16.268  68.745  0.00  0.00     0.030 H 
ENDBRANCH  13  29
ENDBRANCH  10  13
ENDBRANCH   7   9
BRANCH   7  33
ATOM     33  C11 non d ame      -5.121  11.517  70.554  0.00  0.00    -0.033 C 
ATOM     34  H12 non d ame      -5.580  10.701  71.110  0.00  0.00     0.042 H 
BRANCH  33  35
ATOM     35  C12 non d ame      -3.668  11.079  70.189  0.00  0.00    -0.071 C 
ATOM     36  H13 non d ame      -2.989  11.367  70.992  0.00  0.00     0.028 H 
ATOM     37  H14 non d ame      -3.637   9.998  70.058  0.00  0.00     0.028 H 
ATOM     38  H15 non d ame      -3.364  11.567  69.264  0.00  0.00     0.028 H 
ENDBRANCH  33  35
BRANCH  33  39
ATOM     39  C13 non d ame      -5.117  12.784  71.469  0.00  0.00    -0.071 C 
ATOM     40  H16 non d ame      -5.214  13.677  70.853  0.00  0.00     0.028 H 
ATOM     41  H17 non d ame      -5.953  12.730  72.167  0.00  0.00     0.028 H 
ATOM     42  H18 non d ame      -4.181  12.826  72.026  0.00  0.00     0.028 H 
ENDBRANCH  33  39
ENDBRANCH   7  33
ENDBRANCH   4   7
ENDBRANCH   1   3
BRANCH   1  43
ATOM     43  C15 non d ame     -10.016   9.773  68.076  0.00  0.00     0.240 C 
ATOM     44  O5  non d ame     -11.199   9.886  68.093  0.00  0.00    -0.271 OA
ATOM     45  N6  non d ame      -9.282   9.854  66.781  0.00  0.00    -0.355 N 
ATOM     46  H46 non d ame      -8.277   9.764  66.755  0.00  0.00     0.162 HD
BRANCH  45  47
ATOM     47  C20 non d ame     -10.033  10.065  65.525  0.00  0.00     0.013 C 
ATOM     48  H30 non d ame     -11.045   9.687  65.671  0.00  0.00     0.072 H 
BRANCH  47  49
ATOM     49  C21 non d ame      -9.358   9.308  64.404  0.00  0.00    -0.038 C 
ATOM     50  H31 non d ame      -8.820   8.490  64.883  0.00  0.00     0.036 H 
ATOM     51  H32 non d ame     -10.143   9.094  63.678  0.00  0.00     0.036 H 
BRANCH  49  52
ATOM     52  C22 non d ame      -8.298  10.154  63.664  0.00  0.00     0.018 C 
ATOM     53  H33 non d ame      -8.746  10.417  62.706  0.00  0.00     0.048 H 
ATOM     54  H34 non d ame      -8.006  10.938  64.362  0.00  0.00     0.048 H 
BRANCH  52  55
ATOM     55  C23 non d ame      -6.997   9.373  63.328  0.00  0.00     0.259 C 
ATOM     56  O7  non d ame      -6.282   9.741  62.453  0.00  0.00    -0.265 OA
BRANCH  55  57
ATOM     57  O8  non d ame      -6.676   8.202  64.069  0.00  0.00    -0.317 OA
BRANCH  57  58
ATOM     58  C29 non d ame      -6.493   7.035  63.262  0.00  0.00     0.052 C 
ATOM     59  H47 non d ame      -6.597   7.370  62.231  0.00  0.00     0.082 H 
ATOM     60  H48 non d ame      -5.557   6.588  63.598  0.00  0.00     0.082 H 
BRANCH  58  61
ATOM     61  C35 non d ame      -7.649   6.049  63.577  0.00  0.00    -0.034 A 
ATOM     62  C30 non d ame      -8.317   5.403  62.542  0.00  0.00    -0.075 A 
ATOM     63  C31 non d ame      -9.355   4.517  62.827  0.00  0.00    -0.082 A 
ATOM     64  H49 non d ame      -8.026   5.589  61.508  0.00  0.00     0.084 H 
ATOM     65  C32 non d ame      -9.728   4.281  64.153  0.00  0.00    -0.083 A 
ATOM     66  H50 non d ame      -9.874   4.010  62.013  0.00  0.00     0.083 H 
ATOM     67  C33 non d ame      -9.061   4.931  65.183  0.00  0.00    -0.082 A 
ATOM     68  H51 non d ame     -10.538   3.590  64.384  0.00  0.00     0.083 H 
ATOM     69  C34 non d ame      -8.021   5.815  64.903  0.00  0.00    -0.075 A 
ATOM     70  H52 non d ame      -9.355   4.746  66.216  0.00  0.00     0.083 H 
ATOM     71  H53 non d ame      -7.501   6.321  65.718  0.00  0.00     0.084 H 
ENDBRANCH  58  61
ENDBRANCH  57  58
ENDBRANCH  55  57
ENDBRANCH  52  55
ENDBRANCH  49  52
ENDBRANCH  47  49
BRANCH  47  72
ATOM     72  C24 non d ame     -10.067  11.554  65.188  0.00  0.00    -0.039 C 
ATOM     73  H35 non d ame      -9.477  12.041  65.966  0.00  0.00     0.036 H 
ATOM     74  H36 non d ame      -9.755  11.623  64.146  0.00  0.00     0.036 H 
BRANCH  72  75
ATOM     75  C25 non d ame     -11.551  12.150  65.278  0.00  0.00    -0.001 C 
ATOM     76  C26 non d ame     -11.842  13.123  63.984  0.00  0.00    -0.035 C 
ATOM     77  C27 non d ame     -12.312  14.312  64.431  0.00  0.00     0.085 C 
ATOM     78  H38 non d ame     -10.905  13.387  63.496  0.00  0.00     0.036 H 
ATOM     79  H39 non d ame     -12.670  12.726  63.397  0.00  0.00     0.036 H 
ATOM     80  N5  non d ame     -12.059  14.357  65.919  0.00  0.00    -0.049 N 
ATOM     81  H40 non d ame     -11.698  15.070  63.943  0.00  0.00     0.075 H 
ATOM     82  H41 non d ame     -13.387  14.285  64.254  0.00  0.00     0.075 H 
ATOM     83  C28 non d ame     -11.714  12.842  66.356  0.00  0.00     0.193 C 
ATOM     84  H42 non d ame     -11.236  14.926  66.052  0.00  0.00     0.280 HD
ATOM     85  H43 non d ame     -12.933  14.624  66.350  0.00  0.00     0.280 HD
ATOM     86  H44 non d ame     -12.453  12.232  66.873  0.00  0.00     0.129 H 
ATOM     87  H37 non d ame     -12.292  11.381  65.496  0.00  0.00     0.046 H 
BRANCH  83  88
ATOM     88  O6  non d ame     -10.553  12.821  67.189  0.00  0.00    -0.369 OA
ATOM     89  H45 non d ame     -10.803  13.034  68.091  0.00  0.00     0.212 HD
ENDBRANCH  83  88
ENDBRANCH  72  75
ENDBRANCH  47  72
ENDBRANCH  45  47
ENDBRANCH   1  43
BRANCH   1  90
ATOM     90  C16 non d ame     -10.219   9.509  70.568  0.00  0.00    -0.035 C 
ATOM     91  H21 non d ame      -9.767  10.122  71.349  0.00  0.00     0.037 H 
ATOM     92  H22 non d ame     -11.183   9.791  70.145  0.00  0.00     0.037 H 
BRANCH  90  93
ATOM     93  C17 non d ame     -10.405   8.084  71.179  0.00  0.00    -0.059 C 
ATOM     94  H23 non d ame      -9.746   7.404  70.638  0.00  0.00     0.038 H 
BRANCH  93  95
ATOM     95  C18 non d ame     -10.007   8.033  72.689  0.00  0.00    -0.073 C 
ATOM     96  H24 non d ame     -10.545   7.221  73.179  0.00  0.00     0.028 H 
ATOM     97  H25 non d ame      -8.934   7.861  72.775  0.00  0.00     0.028 H 
ATOM     98  H26 non d ame     -10.263   8.980  73.164  0.00  0.00     0.028 H 
ENDBRANCH  93  95
BRANCH  93  99
ATOM     99  C19 non d ame     -11.838   7.584  70.976  0.00  0.00    -0.073 C 
ATOM    100  H27 non d ame     -12.540   8.375  71.245  0.00  0.00     0.028 H 
ATOM    101  H28 non d ame     -11.981   7.310  69.931  0.00  0.00     0.028 H 
ATOM    102  H29 non d ame     -12.012   6.713  71.607  0.00  0.00     0.028 H 
ENDBRANCH  93  99
ENDBRANCH  90  93
ENDBRANCH   1  90
TORSDOF 26
ENDMDL
MODEL 13
REMARK VINA RESULT:      -6.4      2.143      6.785
REMARK  26 active torsions:
REMARK  status: ('A' for Active; 'I' for Inactive)
REMARK    1  A    between atoms: C2_2  and  C3_3 
REMARK    2  A    between atoms: C4_6  and  C5_7 
REMARK       I    between atoms: C5_7  and  N2_9 
REMARK    3  A    between atoms: N2_9  and  C6_10 
REMARK    4  A    between atoms: C6_10  and  C7_11 
REMARK    5  A    between atoms: C6_10  and  C8_13 
REMARK       I    between atoms: C7_11  and  N3_14 
REMARK    6  A    between atoms: N3_14  and  C9_15 
REMARK    7  A    between atoms: C9_15  and  C10_16 
REMARK    8  A    between atoms: C9_15  and  C11_18 
REMARK       I    between atoms: C10_16  and  N4_21 
REMARK    9  A    between atoms: C11_18  and  C12_19 
REMARK   10  A    between atoms: C11_18  and  C13_20 
REMARK   11  A    between atoms: N4_21  and  C14_22 
REMARK   12  A    between atoms: C14_22  and  C15_23 
REMARK   13  A    between atoms: C14_22  and  C16_25 
REMARK       I    between atoms: C15_23  and  N6_40 
REMARK   14  A    between atoms: C16_25  and  C17_26 
REMARK   15  A    between atoms: C17_26  and  C18_27 
REMARK   16  A    between atoms: C17_26  and  C19_28 
REMARK   17  A    between atoms: C20_29  and  C21_30 
REMARK   18  A    between atoms: C20_29  and  C24_33 
REMARK   19  A    between atoms: C20_29  and  N6_40 
REMARK   20  A    between atoms: C21_30  and  C22_31 
REMARK   21  A    between atoms: C22_31  and  C23_32 
REMARK   22  A    between atoms: C23_32  and  O8_43 
REMARK   23  A    between atoms: C24_33  and  C25_34 
REMARK   24  A    between atoms: C28_38  and  O6_39 
REMARK   25  A    between atoms: C29_42  and  O8_43 
REMARK   26  A    between atoms: C29_42  and  C35_49 
ROOT
ATOM      1  C14 non d ame      -8.835  16.343  67.085  0.00  0.00     0.089 C 
ATOM      2  H20 non d ame      -9.427  16.551  67.977  0.00  0.00     0.087 H 
ENDROOT
BRANCH   1   3
ATOM      3  N4  non d ame      -7.772  15.427  67.468  0.00  0.00    -0.346 N 
ATOM      4  C10 non d ame      -7.412  15.243  68.922  0.00  0.00     0.241 C 
ATOM      5  O4  non d ame      -7.991  15.846  69.764  0.00  0.00    -0.271 OA
ATOM      6  H19 non d ame      -7.288  14.925  66.736  0.00  0.00     0.163 HD
BRANCH   4   7
ATOM      7  C9  non d ame      -6.312  14.287  69.302  0.00  0.00     0.092 C 
ATOM      8  H11 non d ame      -6.112  14.375  70.370  0.00  0.00     0.088 H 
BRANCH   7   9
ATOM      9  N3  non d ame      -6.754  12.910  69.057  0.00  0.00    -0.346 N 
ATOM     10  C7  non d ame      -6.342  11.853  69.945  0.00  0.00     0.240 C 
ATOM     11  O3  non d ame      -5.654  12.089  70.862  0.00  0.00    -0.271 OA
ATOM     12  H10 non d ame      -7.347  12.690  68.269  0.00  0.00     0.163 HD
BRANCH  10  13
ATOM     13  C6  non d ame      -6.814  10.389  69.677  0.00  0.00     0.086 C 
ATOM     14  H6  non d ame      -6.199   9.647  70.188  0.00  0.00     0.086 H 
BRANCH  13  15
ATOM     15  N2  non d ame      -8.166  10.229  70.186  0.00  0.00    -0.343 N 
ATOM     16  C5  non d ame      -8.541   8.986  70.863  0.00  0.00     0.273 C 
ATOM     17  O2  non d ame      -7.747   8.120  70.991  0.00  0.00    -0.266 OA
ATOM     18  H5  non d ame      -8.838  10.974  70.069  0.00  0.00     0.163 HD
BRANCH  16  19
ATOM     19  C4  non d ame      -9.966   8.805  71.406  0.00  0.00     0.154 A 
ATOM     20  C1  non d ame     -11.166   9.401  70.903  0.00  0.00    -0.017 A 
ATOM     21  C2  non d ame     -12.192   8.918  71.744  0.00  0.00     0.077 A 
ATOM     22  H1  non d ame     -11.275  10.080  70.057  0.00  0.00     0.091 H 
ATOM     23  O1  non d ame     -11.638   8.135  72.622  0.00  0.00    -0.218 OA
ATOM     24  N1  non d ame     -10.339   8.053  72.446  0.00  0.00    -0.123 NA
BRANCH  21  25
ATOM     25  C3  non d ame     -13.675   9.251  71.640  0.00  0.00    -0.029 C 
ATOM     26  H2  non d ame     -13.909  10.082  72.306  0.00  0.00     0.036 H 
ATOM     27  H3  non d ame     -13.913   9.530  70.614  0.00  0.00     0.036 H 
ATOM     28  H4  non d ame     -14.265   8.379  71.926  0.00  0.00     0.036 H 
ENDBRANCH  21  25
ENDBRANCH  16  19
ENDBRANCH  13  15
BRANCH  13  29
ATOM     29  C8  non d ame      -6.783  10.111  68.196  0.00  0.00    -0.049 C 
ATOM     30  H7  non d ame      -7.620   9.465  67.930  0.00  0.00     0.030 H 
ATOM     31  H8  non d ame      -6.859  11.049  67.647  0.00  0.00     0.030 H 
ATOM     32  H9  non d ame      -5.847   9.615  67.939  0.00  0.00     0.030 H 
ENDBRANCH  13  29
ENDBRANCH  10  13
ENDBRANCH   7   9
BRANCH   7  33
ATOM     33  C11 non d ame      -5.048  14.584  68.443  0.00  0.00    -0.033 C 
ATOM     34  H12 non d ame      -5.301  15.385  67.751  0.00  0.00     0.042 H 
BRANCH  33  35
ATOM     35  C12 non d ame      -3.864  15.085  69.329  0.00  0.00    -0.071 C 
ATOM     36  H13 non d ame      -2.944  14.590  69.019  0.00  0.00     0.028 H 
ATOM     37  H14 non d ame      -3.754  16.163  69.212  0.00  0.00     0.028 H 
ATOM     38  H15 non d ame      -4.069  14.851  70.373  0.00  0.00     0.028 H 
ENDBRANCH  33  35
BRANCH  33  39
ATOM     39  C13 non d ame      -4.635  13.332  67.604  0.00  0.00    -0.071 C 
ATOM     40  H16 non d ame      -5.334  12.519  67.796  0.00  0.00     0.028 H 
ATOM     41  H17 non d ame      -4.653  13.584  66.543  0.00  0.00     0.028 H 
ATOM     42  H18 non d ame      -3.629  13.021  67.886  0.00  0.00     0.028 H 
ENDBRANCH  33  39
ENDBRANCH   7  33
ENDBRANCH   4   7
ENDBRANCH   1   3
BRANCH   1  43
ATOM     43  C15 non d ame      -9.680  15.677  65.961  0.00  0.00     0.240 C 
ATOM     44  O5  non d ame     -10.146  16.345  65.097  0.00  0.00    -0.271 OA
ATOM     45  N6  non d ame      -9.899  14.202  65.958  0.00  0.00    -0.355 N 
ATOM     46  H46 non d ame      -9.505  13.624  66.685  0.00  0.00     0.162 HD
BRANCH  45  47
ATOM     47  C20 non d ame     -10.704  13.584  64.883  0.00  0.00     0.013 C 
ATOM     48  H30 non d ame     -11.021  14.375  64.203  0.00  0.00     0.072 H 
BRANCH  47  49
ATOM     49  C21 non d ame     -11.913  12.907  65.488  0.00  0.00    -0.038 C 
ATOM     50  H31 non d ame     -12.754  13.185  64.854  0.00  0.00     0.036 H 
ATOM     51  H32 non d ame     -11.638  11.858  65.601  0.00  0.00     0.036 H 
BRANCH  49  52
ATOM     52  C22 non d ame     -12.244  13.427  66.904  0.00  0.00     0.018 C 
ATOM     53  H33 non d ame     -11.653  14.335  67.031  0.00  0.00     0.048 H 
ATOM     54  H34 non d ame     -13.331  13.474  66.955  0.00  0.00     0.048 H 
BRANCH  52  55
ATOM     55  C23 non d ame     -11.802  12.466  68.043  0.00  0.00     0.259 C 
ATOM     56  O7  non d ame     -11.986  11.296  67.950  0.00  0.00    -0.265 OA
BRANCH  55  57
ATOM     57  O8  non d ame     -11.186  13.003  69.207  0.00  0.00    -0.317 OA
BRANCH  57  58
ATOM     58  C29 non d ame     -11.350  14.417  69.353  0.00  0.00     0.052 C 
ATOM     59  H47 non d ame     -10.344  14.835  69.330  0.00  0.00     0.082 H 
ATOM     60  H48 non d ame     -12.078  14.708  68.596  0.00  0.00     0.082 H 
BRANCH  58  61
ATOM     61  C35 non d ame     -11.963  14.686  70.753  0.00  0.00    -0.034 A 
ATOM     62  C30 non d ame     -12.835  13.763  71.321  0.00  0.00    -0.075 A 
ATOM     63  C31 non d ame     -13.386  14.005  72.579  0.00  0.00    -0.082 A 
ATOM     64  H49 non d ame     -13.086  12.850  70.782  0.00  0.00     0.084 H 
ATOM     65  C32 non d ame     -13.064  15.178  73.267  0.00  0.00    -0.083 A 
ATOM     66  H50 non d ame     -14.066  13.278  73.023  0.00  0.00     0.083 H 
ATOM     67  C33 non d ame     -12.196  16.099  72.695  0.00  0.00    -0.082 A 
ATOM     68  H51 non d ame     -13.489  15.375  74.252  0.00  0.00     0.083 H 
ATOM     69  C34 non d ame     -11.642  15.859  71.439  0.00  0.00    -0.075 A 
ATOM     70  H52 non d ame     -11.949  17.013  73.234  0.00  0.00     0.083 H 
ATOM     71  H53 non d ame     -10.960  16.586  70.997  0.00  0.00     0.084 H 
ENDBRANCH  58  61
ENDBRANCH  57  58
ENDBRANCH  55  57
ENDBRANCH  52  55
ENDBRANCH  49  52
ENDBRANCH  47  49
BRANCH  47  72
ATOM     72  C24 non d ame      -9.861  12.551  64.137  0.00  0.00    -0.039 C 
ATOM     73  H35 non d ame     -10.053  12.729  63.079  0.00  0.00     0.036 H 
ATOM     74  H36 non d ame      -8.851  12.660  64.533  0.00  0.00     0.036 H 
BRANCH  72  75
ATOM     75  C25 non d ame     -10.335  11.054  64.458  0.00  0.00    -0.001 C 
ATOM     76  C26 non d ame      -9.517  10.476  65.762  0.00  0.00    -0.035 C 
ATOM     77  C27 non d ame      -8.984   9.271  65.442  0.00  0.00     0.085 C 
ATOM     78  H38 non d ame      -8.643  11.096  65.960  0.00  0.00     0.036 H 
ATOM     79  H39 non d ame     -10.213  10.241  66.566  0.00  0.00     0.036 H 
ATOM     80  N5  non d ame      -9.087   9.127  63.943  0.00  0.00    -0.049 N 
ATOM     81  H40 non d ame      -7.932   9.335  65.722  0.00  0.00     0.075 H 
ATOM     82  H41 non d ame      -9.631   8.533  65.915  0.00  0.00     0.075 H 
ATOM     83  C28 non d ame     -10.119  10.269  63.456  0.00  0.00     0.193 C 
ATOM     84  H42 non d ame      -8.173   9.340  63.572  0.00  0.00     0.280 HD
ATOM     85  H43 non d ame      -9.505   8.224  63.770  0.00  0.00     0.280 HD
ATOM     86  H44 non d ame     -11.141  10.013  63.181  0.00  0.00     0.129 H 
ATOM     87  H37 non d ame     -11.421  10.960  64.473  0.00  0.00     0.046 H 
BRANCH  83  88
ATOM     88  O6  non d ame      -9.585  10.969  62.330  0.00  0.00    -0.369 OA
ATOM     89  H45 non d ame      -9.866  11.886  62.361  0.00  0.00     0.212 HD
ENDBRANCH  83  88
ENDBRANCH  72  75
ENDBRANCH  47  72
ENDBRANCH  45  47
ENDBRANCH   1  43
BRANCH   1  90
ATOM     90  C16 non d ame      -8.217  17.631  66.565  0.00  0.00    -0.035 C 
ATOM     91  H21 non d ame      -7.217  17.667  67.000  0.00  0.00     0.037 H 
ATOM     92  H22 non d ame      -8.339  17.593  65.483  0.00  0.00     0.037 H 
BRANCH  90  93
ATOM     93  C17 non d ame      -8.955  18.920  67.049  0.00  0.00    -0.059 C 
ATOM     94  H23 non d ame      -9.698  19.178  66.294  0.00  0.00     0.038 H 
BRANCH  93  95
ATOM     95  C18 non d ame      -9.706  18.698  68.400  0.00  0.00    -0.073 C 
ATOM     96  H24 non d ame      -8.985  18.687  69.218  0.00  0.00     0.028 H 
ATOM     97  H25 non d ame     -10.420  19.506  68.556  0.00  0.00     0.028 H 
ATOM     98  H26 non d ame     -10.236  17.746  68.369  0.00  0.00     0.028 H 
ENDBRANCH  93  95
BRANCH  93  99
ATOM     99  C19 non d ame      -7.985  20.100  67.152  0.00  0.00    -0.073 C 
ATOM    100  H27 non d ame      -8.267  20.866  66.429  0.00  0.00     0.028 H 
ATOM    101  H28 non d ame      -8.027  20.516  68.159  0.00  0.00     0.028 H 
ATOM    102  H29 non d ame      -6.971  19.757  66.943  0.00  0.00     0.028 H 
ENDBRANCH  93  99
ENDBRANCH  90  93
ENDBRANCH   1  90
TORSDOF 26
ENDMDL
MODEL 14
REMARK VINA RESULT:      -6.4      4.121      8.362
REMARK  26 active torsions:
REMARK  status: ('A' for Active; 'I' for Inactive)
REMARK    1  A    between atoms: C2_2  and  C3_3 
REMARK    2  A    between atoms: C4_6  and  C5_7 
REMARK       I    between atoms: C5_7  and  N2_9 
REMARK    3  A    between atoms: N2_9  and  C6_10 
REMARK    4  A    between atoms: C6_10  and  C7_11 
REMARK    5  A    between atoms: C6_10  and  C8_13 
REMARK       I    between atoms: C7_11  and  N3_14 
REMARK    6  A    between atoms: N3_14  and  C9_15 
REMARK    7  A    between atoms: C9_15  and  C10_16 
REMARK    8  A    between atoms: C9_15  and  C11_18 
REMARK       I    between atoms: C10_16  and  N4_21 
REMARK    9  A    between atoms: C11_18  and  C12_19 
REMARK   10  A    between atoms: C11_18  and  C13_20 
REMARK   11  A    between atoms: N4_21  and  C14_22 
REMARK   12  A    between atoms: C14_22  and  C15_23 
REMARK   13  A    between atoms: C14_22  and  C16_25 
REMARK       I    between atoms: C15_23  and  N6_40 
REMARK   14  A    between atoms: C16_25  and  C17_26 
REMARK   15  A    between atoms: C17_26  and  C18_27 
REMARK   16  A    between atoms: C17_26  and  C19_28 
REMARK   17  A    between atoms: C20_29  and  C21_30 
REMARK   18  A    between atoms: C20_29  and  C24_33 
REMARK   19  A    between atoms: C20_29  and  N6_40 
REMARK   20  A    between atoms: C21_30  and  C22_31 
REMARK   21  A    between atoms: C22_31  and  C23_32 
REMARK   22  A    between atoms: C23_32  and  O8_43 
REMARK   23  A    between atoms: C24_33  and  C25_34 
REMARK   24  A    between atoms: C28_38  and  O6_39 
REMARK   25  A    between atoms: C29_42  and  O8_43 
REMARK   26  A    between atoms: C29_42  and  C35_49 
ROOT
ATOM      1  C14 non d ame      -8.584   6.223  67.991  0.00  0.00     0.089 C 
ATOM      2  H20 non d ame      -9.103   5.319  67.668  0.00  0.00     0.087 H 
ENDROOT
BRANCH   1   3
ATOM      3  N4  non d ame      -7.470   6.437  67.080  0.00  0.00    -0.346 N 
ATOM      4  C10 non d ame      -6.859   5.275  66.337  0.00  0.00     0.241 C 
ATOM      5  O4  non d ame      -7.281   4.176  66.491  0.00  0.00    -0.271 OA
ATOM      6  H19 non d ame      -7.123   7.379  66.965  0.00  0.00     0.163 HD
BRANCH   4   7
ATOM      7  C9  non d ame      -5.709   5.515  65.394  0.00  0.00     0.092 C 
ATOM      8  H11 non d ame      -5.731   4.766  64.602  0.00  0.00     0.088 H 
BRANCH   7   9
ATOM      9  N3  non d ame      -5.866   6.825  64.755  0.00  0.00    -0.346 N 
ATOM     10  C7  non d ame      -5.414   7.026  63.401  0.00  0.00     0.240 C 
ATOM     11  O3  non d ame      -4.920   6.144  62.810  0.00  0.00    -0.271 OA
ATOM     12  H10 non d ame      -6.290   7.596  65.253  0.00  0.00     0.163 HD
BRANCH  10  13
ATOM     13  C6  non d ame      -5.581   8.424  62.728  0.00  0.00     0.086 C 
ATOM     14  H6  non d ame      -5.870   8.355  61.679  0.00  0.00     0.086 H 
BRANCH  13  15
ATOM     15  N2  non d ame      -6.644   9.149  63.405  0.00  0.00    -0.343 N 
ATOM     16  C5  non d ame      -7.948   9.293  62.754  0.00  0.00     0.273 C 
ATOM     17  O2  non d ame      -8.130   8.825  61.685  0.00  0.00    -0.266 OA
ATOM     18  H5  non d ame      -6.477   9.548  64.318  0.00  0.00     0.163 HD
BRANCH  16  19
ATOM     19  C4  non d ame      -9.080  10.056  63.459  0.00  0.00     0.154 A 
ATOM     20  C1  non d ame      -9.736  11.244  63.005  0.00  0.00    -0.017 A 
ATOM     21  C2  non d ame     -10.690  11.536  64.004  0.00  0.00     0.077 A 
ATOM     22  H1  non d ame      -9.548  11.807  62.091  0.00  0.00     0.091 H 
ATOM     23  O1  non d ame     -10.588  10.617  64.919  0.00  0.00    -0.218 OA
ATOM     24  N1  non d ame      -9.655   9.742  64.623  0.00  0.00    -0.123 NA
BRANCH  21  25
ATOM     25  C3  non d ame     -11.661  12.710  64.008  0.00  0.00    -0.029 C 
ATOM     26  H2  non d ame     -11.272  13.506  63.372  0.00  0.00     0.036 H 
ATOM     27  H3  non d ame     -12.628  12.383  63.629  0.00  0.00     0.036 H 
ATOM     28  H4  non d ame     -11.777  13.083  65.026  0.00  0.00     0.036 H 
ENDBRANCH  21  25
ENDBRANCH  16  19
ENDBRANCH  13  15
BRANCH  13  29
ATOM     29  C8  non d ame      -4.288   9.191  62.827  0.00  0.00    -0.049 C 
ATOM     30  H7  non d ame      -3.687   9.007  61.936  0.00  0.00     0.030 H 
ATOM     31  H8  non d ame      -4.501  10.256  62.909  0.00  0.00     0.030 H 
ATOM     32  H9  non d ame      -3.737   8.862  63.709  0.00  0.00     0.030 H 
ENDBRANCH  13  29
ENDBRANCH  10  13
ENDBRANCH   7   9
BRANCH   7  33
ATOM     33  C11 non d ame      -4.372   5.486  66.190  0.00  0.00    -0.033 C 
ATOM     34  H12 non d ame      -4.587   5.088  67.181  0.00  0.00     0.042 H 
BRANCH  33  35
ATOM     35  C12 non d ame      -3.331   4.536  65.519  0.00  0.00    -0.071 C 
ATOM     36  H13 non d ame      -3.717   3.516  65.519  0.00  0.00     0.028 H 
ATOM     37  H14 non d ame      -3.155   4.857  64.493  0.00  0.00     0.028 H 
ATOM     38  H15 non d ame      -2.397   4.570  66.077  0.00  0.00     0.028 H 
ENDBRANCH  33  35
BRANCH  33  39
ATOM     39  C13 non d ame      -3.792   6.927  66.363  0.00  0.00    -0.071 C 
ATOM     40  H16 non d ame      -4.587   7.658  66.220  0.00  0.00     0.028 H 
ATOM     41  H17 non d ame      -3.377   7.034  67.366  0.00  0.00     0.028 H 
ATOM     42  H18 non d ame      -3.007   7.094  65.626  0.00  0.00     0.028 H 
ENDBRANCH  33  39
ENDBRANCH   7  33
ENDBRANCH   4   7
ENDBRANCH   1   3
BRANCH   1  43
ATOM     43  C15 non d ame      -9.505   7.475  67.949  0.00  0.00     0.240 C 
ATOM     44  O5  non d ame     -10.494   7.461  67.290  0.00  0.00    -0.271 OA
ATOM     45  N6  non d ame      -9.157   8.692  68.738  0.00  0.00    -0.355 N 
ATOM     46  H46 non d ame      -8.322   8.714  69.304  0.00  0.00     0.162 HD
BRANCH  45  47
ATOM     47  C20 non d ame     -10.043   9.875  68.688  0.00  0.00     0.013 C 
ATOM     48  H30 non d ame     -10.836   9.671  67.968  0.00  0.00     0.072 H 
BRANCH  47  49
ATOM     49  C21 non d ame      -9.244  11.081  68.247  0.00  0.00    -0.038 C 
ATOM     50  H31 non d ame      -8.672  11.390  69.121  0.00  0.00     0.036 H 
ATOM     51  H32 non d ame      -8.727  10.774  67.337  0.00  0.00     0.036 H 
BRANCH  49  52
ATOM     52  C22 non d ame     -10.135  12.281  67.860  0.00  0.00     0.018 C 
ATOM     53  H33 non d ame     -10.157  12.294  66.770  0.00  0.00     0.048 H 
ATOM     54  H34 non d ame     -11.060  12.156  68.422  0.00  0.00     0.048 H 
BRANCH  52  55
ATOM     55  C23 non d ame      -9.554  13.657  68.292  0.00  0.00     0.259 C 
ATOM     56  O7  non d ame      -8.427  13.939  68.047  0.00  0.00    -0.265 OA
BRANCH  55  57
ATOM     57  O8  non d ame     -10.383  14.572  68.998  0.00  0.00    -0.317 OA
BRANCH  57  58
ATOM     58  C29 non d ame     -11.731  14.123  69.170  0.00  0.00     0.052 C 
ATOM     59  H47 non d ame     -12.324  14.690  68.454  0.00  0.00     0.082 H 
ATOM     60  H48 non d ame     -11.690  13.036  69.103  0.00  0.00     0.082 H 
BRANCH  58  61
ATOM     61  C35 non d ame     -12.185  14.509  70.603  0.00  0.00    -0.034 A 
ATOM     62  C30 non d ame     -11.702  15.670  71.198  0.00  0.00    -0.075 A 
ATOM     63  C31 non d ame     -12.111  16.017  72.485  0.00  0.00    -0.082 A 
ATOM     64  H49 non d ame     -11.005  16.309  70.656  0.00  0.00     0.084 H 
ATOM     65  C32 non d ame     -13.003  15.195  73.179  0.00  0.00    -0.083 A 
ATOM     66  H50 non d ame     -11.733  16.929  72.947  0.00  0.00     0.083 H 
ATOM     67  C33 non d ame     -13.479  14.035  72.583  0.00  0.00    -0.082 A 
ATOM     68  H51 non d ame     -13.328  15.459  74.185  0.00  0.00     0.083 H 
ATOM     69  C34 non d ame     -13.075  13.687  71.295  0.00  0.00    -0.075 A 
ATOM     70  H52 non d ame     -14.174  13.396  73.128  0.00  0.00     0.083 H 
ATOM     71  H53 non d ame     -13.456  12.774  70.833  0.00  0.00     0.084 H 
ENDBRANCH  58  61
ENDBRANCH  57  58
ENDBRANCH  55  57
ENDBRANCH  52  55
ENDBRANCH  49  52
ENDBRANCH  47  49
BRANCH  47  72
ATOM     72  C24 non d ame     -10.636  10.134  70.071  0.00  0.00    -0.039 C 
ATOM     73  H35 non d ame      -9.827   9.938  70.775  0.00  0.00     0.036 H 
ATOM     74  H36 non d ame     -11.080  11.128  70.015  0.00  0.00     0.036 H 
BRANCH  72  75
ATOM     75  C25 non d ame     -11.818   9.108  70.412  0.00  0.00    -0.001 C 
ATOM     76  C26 non d ame     -13.102   9.921  71.040  0.00  0.00    -0.035 C 
ATOM     77  C27 non d ame     -13.473   9.322  72.198  0.00  0.00     0.085 C 
ATOM     78  H38 non d ame     -12.795  10.917  71.356  0.00  0.00     0.036 H 
ATOM     79  H39 non d ame     -13.974   9.796  70.399  0.00  0.00     0.036 H 
ATOM     80  N5  non d ame     -12.358   8.378  72.583  0.00  0.00    -0.049 N 
ATOM     81  H40 non d ame     -13.530  10.124  72.935  0.00  0.00     0.075 H 
ATOM     82  H41 non d ame     -14.361   8.742  71.953  0.00  0.00     0.075 H 
ATOM     83  C28 non d ame     -11.436   8.220  71.268  0.00  0.00     0.193 C 
ATOM     84  H42 non d ame     -11.822   8.846  73.299  0.00  0.00     0.280 HD
ATOM     85  H43 non d ame     -12.793   7.488  72.779  0.00  0.00     0.280 HD
ATOM     86  H44 non d ame     -11.489   7.319  70.658  0.00  0.00     0.129 H 
ATOM     87  H37 non d ame     -12.020   8.423  69.588  0.00  0.00     0.046 H 
BRANCH  83  88
ATOM     88  O6  non d ame     -10.056   8.365  71.613  0.00  0.00    -0.369 OA
ATOM     89  H45 non d ame      -9.528   7.776  71.070  0.00  0.00     0.212 HD
ENDBRANCH  83  88
ENDBRANCH  72  75
ENDBRANCH  47  72
ENDBRANCH  45  47
ENDBRANCH   1  43
BRANCH   1  90
ATOM     90  C16 non d ame      -8.045   6.031  69.399  0.00  0.00    -0.035 C 
ATOM     91  H21 non d ame      -7.114   5.475  69.278  0.00  0.00     0.037 H 
ATOM     92  H22 non d ame      -8.030   7.028  69.840  0.00  0.00     0.037 H 
BRANCH  90  93
ATOM     93  C17 non d ame      -8.965   5.158  70.310  0.00  0.00    -0.059 C 
ATOM     94  H23 non d ame      -9.712   5.817  70.752  0.00  0.00     0.038 H 
BRANCH  93  95
ATOM     95  C18 non d ame      -9.721   4.056  69.501  0.00  0.00    -0.073 C 
ATOM     96  H24 non d ame     -10.149   4.496  68.600  0.00  0.00     0.028 H 
ATOM     97  H25 non d ame      -9.022   3.267  69.223  0.00  0.00     0.028 H 
ATOM     98  H26 non d ame     -10.518   3.637  70.116  0.00  0.00     0.028 H 
ENDBRANCH  93  95
BRANCH  93  99
ATOM     99  C19 non d ame      -8.167   4.539  71.461  0.00  0.00    -0.073 C 
ATOM    100  H27 non d ame      -8.609   3.580  71.733  0.00  0.00     0.028 H 
ATOM    101  H28 non d ame      -7.135   4.389  71.146  0.00  0.00     0.028 H 
ATOM    102  H29 non d ame      -8.190   5.208  72.321  0.00  0.00     0.028 H 
ENDBRANCH  93  99
ENDBRANCH  90  93
ENDBRANCH   1  90
TORSDOF 26
ENDMDL
MODEL 15
REMARK VINA RESULT:      -6.4      4.301     10.070
REMARK  26 active torsions:
REMARK  status: ('A' for Active; 'I' for Inactive)
REMARK    1  A    between atoms: C2_2  and  C3_3 
REMARK    2  A    between atoms: C4_6  and  C5_7 
REMARK       I    between atoms: C5_7  and  N2_9 
REMARK    3  A    between atoms: N2_9  and  C6_10 
REMARK    4  A    between atoms: C6_10  and  C7_11 
REMARK    5  A    between atoms: C6_10  and  C8_13 
REMARK       I    between atoms: C7_11  and  N3_14 
REMARK    6  A    between atoms: N3_14  and  C9_15 
REMARK    7  A    between atoms: C9_15  and  C10_16 
REMARK    8  A    between atoms: C9_15  and  C11_18 
REMARK       I    between atoms: C10_16  and  N4_21 
REMARK    9  A    between atoms: C11_18  and  C12_19 
REMARK   10  A    between atoms: C11_18  and  C13_20 
REMARK   11  A    between atoms: N4_21  and  C14_22 
REMARK   12  A    between atoms: C14_22  and  C15_23 
REMARK   13  A    between atoms: C14_22  and  C16_25 
REMARK       I    between atoms: C15_23  and  N6_40 
REMARK   14  A    between atoms: C16_25  and  C17_26 
REMARK   15  A    between atoms: C17_26  and  C18_27 
REMARK   16  A    between atoms: C17_26  and  C19_28 
REMARK   17  A    between atoms: C20_29  and  C21_30 
REMARK   18  A    between atoms: C20_29  and  C24_33 
REMARK   19  A    between atoms: C20_29  and  N6_40 
REMARK   20  A    between atoms: C21_30  and  C22_31 
REMARK   21  A    between atoms: C22_31  and  C23_32 
REMARK   22  A    between atoms: C23_32  and  O8_43 
REMARK   23  A    between atoms: C24_33  and  C25_34 
REMARK   24  A    between atoms: C28_38  and  O6_39 
REMARK   25  A    between atoms: C29_42  and  O8_43 
REMARK   26  A    between atoms: C29_42  and  C35_49 
ROOT
ATOM      1  C14 non d ame      -8.190   6.040  63.689  0.00  0.00     0.089 C 
ATOM      2  H20 non d ame      -8.765   6.114  62.766  0.00  0.00     0.087 H 
ENDROOT
BRANCH   1   3
ATOM      3  N4  non d ame      -7.982   7.393  64.184  0.00  0.00    -0.346 N 
ATOM      4  C10 non d ame      -8.033   8.567  63.238  0.00  0.00     0.241 C 
ATOM      5  O4  non d ame      -8.239   8.397  62.081  0.00  0.00    -0.271 OA
ATOM      6  H19 non d ame      -7.805   7.517  65.171  0.00  0.00     0.163 HD
BRANCH   4   7
ATOM      7  C9  non d ame      -7.821   9.961  63.768  0.00  0.00     0.092 C 
ATOM      8  H11 non d ame      -7.676  10.645  62.932  0.00  0.00     0.088 H 
BRANCH   7   9
ATOM      9  N3  non d ame      -9.024  10.400  64.482  0.00  0.00    -0.346 N 
ATOM     10  C7  non d ame     -10.042  11.148  63.788  0.00  0.00     0.240 C 
ATOM     11  O3  non d ame      -9.910  11.407  62.654  0.00  0.00    -0.271 OA
ATOM     12  H10 non d ame      -9.151  10.185  65.461  0.00  0.00     0.163 HD
BRANCH  10  13
ATOM     13  C6  non d ame     -11.318  11.616  64.555  0.00  0.00     0.086 C 
ATOM     14  H6  non d ame     -11.798  10.808  65.107  0.00  0.00     0.086 H 
BRANCH  13  15
ATOM     15  N2  non d ame     -10.938  12.621  65.534  0.00  0.00    -0.343 N 
ATOM     16  C5  non d ame     -11.551  12.601  66.864  0.00  0.00     0.273 C 
ATOM     17  O2  non d ame     -12.351  11.775  67.134  0.00  0.00    -0.266 OA
ATOM     18  H5  non d ame     -10.255  13.325  65.293  0.00  0.00     0.163 HD
BRANCH  16  19
ATOM     19  C4  non d ame     -11.157  13.657  67.908  0.00  0.00     0.154 A 
ATOM     20  C1  non d ame     -11.958  14.144  68.990  0.00  0.00    -0.017 A 
ATOM     21  C2  non d ame     -11.142  15.092  69.647  0.00  0.00     0.077 A 
ATOM     22  H1  non d ame     -12.974  13.853  69.258  0.00  0.00     0.091 H 
ATOM     23  O1  non d ame     -10.008  15.135  69.012  0.00  0.00    -0.218 OA
ATOM     24  N1  non d ame      -9.993  14.306  67.993  0.00  0.00    -0.123 NA
BRANCH  21  25
ATOM     25  C3  non d ame     -11.521  15.910  70.875  0.00  0.00    -0.029 C 
ATOM     26  H2  non d ame     -10.617  16.218  71.401  0.00  0.00     0.036 H 
ATOM     27  H3  non d ame     -12.080  16.792  70.566  0.00  0.00     0.036 H 
ATOM     28  H4  non d ame     -12.139  15.303  71.540  0.00  0.00     0.036 H 
ENDBRANCH  21  25
ENDBRANCH  16  19
ENDBRANCH  13  15
BRANCH  13  29
ATOM     29  C8  non d ame     -12.310  12.195  63.579  0.00  0.00    -0.049 C 
ATOM     30  H7  non d ame     -13.117  12.682  64.128  0.00  0.00     0.030 H 
ATOM     31  H8  non d ame     -11.811  12.925  62.942  0.00  0.00     0.030 H 
ATOM     32  H9  non d ame     -12.722  11.396  62.963  0.00  0.00     0.030 H 
ENDBRANCH  13  29
ENDBRANCH  10  13
ENDBRANCH   7   9
BRANCH   7  33
ATOM     33  C11 non d ame      -6.609   9.965  64.745  0.00  0.00    -0.033 C 
ATOM     34  H12 non d ame      -6.368   8.928  64.974  0.00  0.00     0.042 H 
BRANCH  33  35
ATOM     35  C12 non d ame      -5.349  10.606  64.085  0.00  0.00    -0.071 C 
ATOM     36  H13 non d ame      -4.758  11.115  64.847  0.00  0.00     0.028 H 
ATOM     37  H14 non d ame      -4.747   9.827  63.619  0.00  0.00     0.028 H 
ATOM     38  H15 non d ame      -5.663  11.325  63.329  0.00  0.00     0.028 H 
ENDBRANCH  33  35
BRANCH  33  39
ATOM     39  C13 non d ame      -6.973  10.684  66.084  0.00  0.00    -0.071 C 
ATOM     40  H16 non d ame      -7.964  10.367  66.409  0.00  0.00     0.028 H 
ATOM     41  H17 non d ame      -6.240  10.424  66.848  0.00  0.00     0.028 H 
ATOM     42  H18 non d ame      -6.969  11.763  65.930  0.00  0.00     0.028 H 
ENDBRANCH  33  39
ENDBRANCH   7  33
ENDBRANCH   4   7
ENDBRANCH   1   3
BRANCH   1  43
ATOM     43  C15 non d ame      -8.935   5.223  64.782  0.00  0.00     0.240 C 
ATOM     44  O5  non d ame      -9.657   4.334  64.467  0.00  0.00    -0.271 OA
ATOM     45  N6  non d ame      -8.740   5.544  66.226  0.00  0.00    -0.355 N 
ATOM     46  H46 non d ame      -8.126   6.294  66.506  0.00  0.00     0.162 HD
BRANCH  45  47
ATOM     47  C20 non d ame      -9.455   4.757  67.253  0.00  0.00     0.013 C 
ATOM     48  H30 non d ame     -10.070   4.015  66.742  0.00  0.00     0.072 H 
BRANCH  47  49
ATOM     49  C21 non d ame     -10.332   5.679  68.070  0.00  0.00    -0.038 C 
ATOM     50  H31 non d ame     -11.077   5.037  68.540  0.00  0.00     0.036 H 
ATOM     51  H32 non d ame      -9.650   6.265  68.686  0.00  0.00     0.036 H 
BRANCH  49  52
ATOM     52  C22 non d ame     -11.112   6.689  67.200  0.00  0.00     0.018 C 
ATOM     53  H33 non d ame     -11.071   6.297  66.183  0.00  0.00     0.048 H 
ATOM     54  H34 non d ame     -12.075   6.821  67.693  0.00  0.00     0.048 H 
BRANCH  52  55
ATOM     55  C23 non d ame     -10.462   8.099  67.142  0.00  0.00     0.259 C 
ATOM     56  O7  non d ame      -9.518   8.300  66.450  0.00  0.00    -0.265 OA
BRANCH  55  57
ATOM     57  O8  non d ame     -11.001   9.147  67.939  0.00  0.00    -0.317 OA
BRANCH  57  58
ATOM     58  C29 non d ame     -10.376   9.285  69.219  0.00  0.00     0.052 C 
ATOM     59  H47 non d ame      -9.749   8.402  69.337  0.00  0.00     0.082 H 
ATOM     60  H48 non d ame      -9.926  10.278  69.221  0.00  0.00     0.082 H 
BRANCH  58  61
ATOM     61  C35 non d ame     -11.488   9.248  70.300  0.00  0.00    -0.034 A 
ATOM     62  C30 non d ame     -12.104  10.426  70.709  0.00  0.00    -0.075 A 
ATOM     63  C31 non d ame     -13.104  10.392  71.680  0.00  0.00    -0.082 A 
ATOM     64  H49 non d ame     -11.805  11.377  70.266  0.00  0.00     0.084 H 
ATOM     65  C32 non d ame     -13.484   9.173  72.247  0.00  0.00    -0.083 A 
ATOM     66  H50 non d ame     -13.586  11.317  71.995  0.00  0.00     0.083 H 
ATOM     67  C33 non d ame     -12.863   7.999  71.840  0.00  0.00    -0.082 A 
ATOM     68  H51 non d ame     -14.264   9.137  73.007  0.00  0.00     0.083 H 
ATOM     69  C34 non d ame     -11.866   8.029  70.867  0.00  0.00    -0.075 A 
ATOM     70  H52 non d ame     -13.162   7.050  72.286  0.00  0.00     0.083 H 
ATOM     71  H53 non d ame     -11.385   7.102  70.551  0.00  0.00     0.084 H 
ENDBRANCH  58  61
ENDBRANCH  57  58
ENDBRANCH  55  57
ENDBRANCH  52  55
ENDBRANCH  49  52
ENDBRANCH  47  49
BRANCH  47  72
ATOM     72  C24 non d ame      -8.446   4.068  68.170  0.00  0.00    -0.039 C 
ATOM     73  H35 non d ame      -8.491   4.615  69.113  0.00  0.00     0.036 H 
ATOM     74  H36 non d ame      -8.705   3.009  68.143  0.00  0.00     0.036 H 
BRANCH  72  75
ATOM     75  C25 non d ame      -6.950   4.204  67.615  0.00  0.00    -0.001 C 
ATOM     76  C26 non d ame      -6.346   2.715  67.264  0.00  0.00    -0.035 C 
ATOM     77  C27 non d ame      -5.142   2.580  67.869  0.00  0.00     0.085 C 
ATOM     78  H38 non d ame      -6.956   1.944  67.733  0.00  0.00     0.036 H 
ATOM     79  H39 non d ame      -6.106   2.650  66.203  0.00  0.00     0.036 H 
ATOM     80  N5  non d ame      -5.019   3.708  68.865  0.00  0.00    -0.049 N 
ATOM     81  H40 non d ame      -5.192   1.634  68.409  0.00  0.00     0.075 H 
ATOM     82  H41 non d ame      -4.403   2.720  67.082  0.00  0.00     0.075 H 
ATOM     83  C28 non d ame      -6.177   4.766  68.483  0.00  0.00     0.193 C 
ATOM     84  H42 non d ame      -5.229   3.315  69.771  0.00  0.00     0.280 HD
ATOM     85  H43 non d ame      -4.122   4.141  68.698  0.00  0.00     0.280 HD
ATOM     86  H44 non d ame      -5.933   5.691  67.962  0.00  0.00     0.129 H 
ATOM     87  H37 non d ame      -6.865   4.969  66.842  0.00  0.00     0.046 H 
BRANCH  83  88
ATOM     88  O6  non d ame      -6.887   5.166  69.657  0.00  0.00    -0.369 OA
ATOM     89  H45 non d ame      -6.500   4.740  70.425  0.00  0.00     0.212 HD
ENDBRANCH  83  88
ENDBRANCH  72  75
ENDBRANCH  47  72
ENDBRANCH  45  47
ENDBRANCH   1  43
BRANCH   1  90
ATOM     90  C16 non d ame      -6.839   5.404  63.406  0.00  0.00    -0.035 C 
ATOM     91  H21 non d ame      -6.909   4.389  63.802  0.00  0.00     0.037 H 
ATOM     92  H22 non d ame      -6.663   5.562  62.342  0.00  0.00     0.037 H 
BRANCH  90  93
ATOM     93  C17 non d ame      -5.653   6.089  64.156  0.00  0.00    -0.059 C 
ATOM     94  H23 non d ame      -6.077   6.743  64.918  0.00  0.00     0.038 H 
BRANCH  93  95
ATOM     95  C18 non d ame      -4.734   5.051  64.878  0.00  0.00    -0.073 C 
ATOM     96  H24 non d ame      -4.612   5.339  65.922  0.00  0.00     0.028 H 
ATOM     97  H25 non d ame      -5.190   4.063  64.824  0.00  0.00     0.028 H 
ATOM     98  H26 non d ame      -3.759   5.029  64.390  0.00  0.00     0.028 H 
ENDBRANCH  93  95
BRANCH  93  99
ATOM     99  C19 non d ame      -4.838   6.969  63.205  0.00  0.00    -0.073 C 
ATOM    100  H27 non d ame      -5.374   7.076  62.261  0.00  0.00     0.028 H 
ATOM    101  H28 non d ame      -4.694   7.951  63.655  0.00  0.00     0.028 H 
ATOM    102  H29 non d ame      -3.868   6.507  63.023  0.00  0.00     0.028 H 
ENDBRANCH  93  99
ENDBRANCH  90  93
ENDBRANCH   1  90
TORSDOF 26
ENDMDL
MODEL 16
REMARK VINA RESULT:      -6.4      3.417      9.731
REMARK  26 active torsions:
REMARK  status: ('A' for Active; 'I' for Inactive)
REMARK    1  A    between atoms: C2_2  and  C3_3 
REMARK    2  A    between atoms: C4_6  and  C5_7 
REMARK       I    between atoms: C5_7  and  N2_9 
REMARK    3  A    between atoms: N2_9  and  C6_10 
REMARK    4  A    between atoms: C6_10  and  C7_11 
REMARK    5  A    between atoms: C6_10  and  C8_13 
REMARK       I    between atoms: C7_11  and  N3_14 
REMARK    6  A    between atoms: N3_14  and  C9_15 
REMARK    7  A    between atoms: C9_15  and  C10_16 
REMARK    8  A    between atoms: C9_15  and  C11_18 
REMARK       I    between atoms: C10_16  and  N4_21 
REMARK    9  A    between atoms: C11_18  and  C12_19 
REMARK   10  A    between atoms: C11_18  and  C13_20 
REMARK   11  A    between atoms: N4_21  and  C14_22 
REMARK   12  A    between atoms: C14_22  and  C15_23 
REMARK   13  A    between atoms: C14_22  and  C16_25 
REMARK       I    between atoms: C15_23  and  N6_40 
REMARK   14  A    between atoms: C16_25  and  C17_26 
REMARK   15  A    between atoms: C17_26  and  C18_27 
REMARK   16  A    between atoms: C17_26  and  C19_28 
REMARK   17  A    between atoms: C20_29  and  C21_30 
REMARK   18  A    between atoms: C20_29  and  C24_33 
REMARK   19  A    between atoms: C20_29  and  N6_40 
REMARK   20  A    between atoms: C21_30  and  C22_31 
REMARK   21  A    between atoms: C22_31  and  C23_32 
REMARK   22  A    between atoms: C23_32  and  O8_43 
REMARK   23  A    between atoms: C24_33  and  C25_34 
REMARK   24  A    between atoms: C28_38  and  O6_39 
REMARK   25  A    between atoms: C29_42  and  O8_43 
REMARK   26  A    between atoms: C29_42  and  C35_49 
ROOT
ATOM      1  C14 non d ame      -7.103  12.651  68.358  0.00  0.00     0.089 C 
ATOM      2  H20 non d ame      -6.307  12.366  67.668  0.00  0.00     0.087 H 
ENDROOT
BRANCH   1   3
ATOM      3  N4  non d ame      -7.225  14.100  68.312  0.00  0.00    -0.346 N 
ATOM      4  C10 non d ame      -6.106  14.941  67.746  0.00  0.00     0.241 C 
ATOM      5  O4  non d ame      -5.118  14.427  67.337  0.00  0.00    -0.271 OA
ATOM      6  H19 non d ame      -8.073  14.519  68.667  0.00  0.00     0.163 HD
BRANCH   4   7
ATOM      7  C9  non d ame      -6.250  16.439  67.702  0.00  0.00     0.092 C 
ATOM      8  H11 non d ame      -6.021  16.792  66.696  0.00  0.00     0.088 H 
BRANCH   7   9
ATOM      9  N3  non d ame      -7.643  16.806  67.981  0.00  0.00    -0.346 N 
ATOM     10  C7  non d ame      -8.494  17.269  66.914  0.00  0.00     0.240 C 
ATOM     11  O3  non d ame      -8.076  17.355  65.824  0.00  0.00    -0.271 OA
ATOM     12  H10 non d ame      -8.018  16.737  68.917  0.00  0.00     0.163 HD
BRANCH  10  13
ATOM     13  C6  non d ame      -9.974  17.660  67.219  0.00  0.00     0.086 C 
ATOM     14  H6  non d ame     -10.679  17.231  66.507  0.00  0.00     0.086 H 
BRANCH  13  15
ATOM     15  N2  non d ame     -10.338  17.143  68.528  0.00  0.00    -0.343 N 
ATOM     16  C5  non d ame     -11.221  15.978  68.623  0.00  0.00     0.273 C 
ATOM     17  O2  non d ame     -11.635  15.467  67.642  0.00  0.00    -0.266 OA
ATOM     18  H5  non d ame      -9.982  17.588  69.362  0.00  0.00     0.163 HD
BRANCH  16  19
ATOM     19  C4  non d ame     -11.613  15.420  70.000  0.00  0.00     0.154 A 
ATOM     20  C1  non d ame     -11.685  16.138  71.236  0.00  0.00    -0.017 A 
ATOM     21  C2  non d ame     -12.089  15.179  72.191  0.00  0.00     0.077 A 
ATOM     22  H1  non d ame     -11.477  17.194  71.412  0.00  0.00     0.091 H 
ATOM     23  O1  non d ame     -12.231  14.047  71.566  0.00  0.00    -0.218 OA
ATOM     24  N1  non d ame     -11.959  14.162  70.287  0.00  0.00    -0.123 NA
BRANCH  21  25
ATOM     25  C3  non d ame     -12.317  15.426  73.676  0.00  0.00    -0.029 C 
ATOM     26  H2  non d ame     -12.716  16.430  73.820  0.00  0.00     0.036 H 
ATOM     27  H3  non d ame     -13.026  14.695  74.062  0.00  0.00     0.036 H 
ATOM     28  H4  non d ame     -11.370  15.332  74.210  0.00  0.00     0.036 H 
ENDBRANCH  21  25
ENDBRANCH  16  19
ENDBRANCH  13  15
BRANCH  13  29
ATOM     29  C8  non d ame     -10.115  19.161  67.200  0.00  0.00    -0.049 C 
ATOM     30  H7  non d ame     -11.018  19.448  67.740  0.00  0.00     0.030 H 
ATOM     31  H8  non d ame      -9.246  19.614  67.677  0.00  0.00     0.030 H 
ATOM     32  H9  non d ame     -10.184  19.506  66.168  0.00  0.00     0.030 H 
ENDBRANCH  13  29
ENDBRANCH  10  13
ENDBRANCH   7   9
BRANCH   7  33
ATOM     33  C11 non d ame      -5.322  17.082  68.774  0.00  0.00    -0.033 C 
ATOM     34  H12 non d ame      -4.354  16.587  68.710  0.00  0.00     0.042 H 
BRANCH  33  35
ATOM     35  C12 non d ame      -5.093  18.600  68.491  0.00  0.00    -0.071 C 
ATOM     36  H13 non d ame      -5.727  18.915  67.662  0.00  0.00     0.028 H 
ATOM     37  H14 non d ame      -5.345  19.176  69.380  0.00  0.00     0.028 H 
ATOM     38  H15 non d ame      -4.048  18.766  68.233  0.00  0.00     0.028 H 
ENDBRANCH  33  35
BRANCH  33  39
ATOM     39  C13 non d ame      -5.888  16.853  70.212  0.00  0.00    -0.071 C 
ATOM     40  H16 non d ame      -5.078  16.563  70.880  0.00  0.00     0.028 H 
ATOM     41  H17 non d ame      -6.344  17.776  70.574  0.00  0.00     0.028 H 
ATOM     42  H18 non d ame      -6.639  16.064  70.187  0.00  0.00     0.028 H 
ENDBRANCH  33  39
ENDBRANCH   7  33
ENDBRANCH   4   7
ENDBRANCH   1   3
BRANCH   1  43
ATOM     43  C15 non d ame      -8.473  12.028  67.964  0.00  0.00     0.240 C 
ATOM     44  O5  non d ame      -9.480  12.510  68.368  0.00  0.00    -0.271 OA
ATOM     45  N6  non d ame      -8.528  10.833  67.073  0.00  0.00    -0.355 N 
ATOM     46  H46 non d ame      -7.679  10.417  66.720  0.00  0.00     0.162 HD
BRANCH  45  47
ATOM     47  C20 non d ame      -9.838  10.253  66.707  0.00  0.00     0.013 C 
ATOM     48  H30 non d ame     -10.612  10.815  67.229  0.00  0.00     0.072 H 
BRANCH  47  49
ATOM     49  C21 non d ame      -9.879   8.802  67.131  0.00  0.00    -0.038 C 
ATOM     50  H31 non d ame      -9.296   8.747  68.050  0.00  0.00     0.036 H 
ATOM     51  H32 non d ame     -10.934   8.527  67.138  0.00  0.00     0.036 H 
BRANCH  49  52
ATOM     52  C22 non d ame      -9.188   7.863  66.119  0.00  0.00     0.018 C 
ATOM     53  H33 non d ame      -9.493   8.215  65.133  0.00  0.00     0.048 H 
ATOM     54  H34 non d ame      -8.134   7.856  66.393  0.00  0.00     0.048 H 
BRANCH  52  55
ATOM     55  C23 non d ame      -9.664   6.386  66.210  0.00  0.00     0.259 C 
ATOM     56  O7  non d ame     -10.699   6.116  66.728  0.00  0.00    -0.265 OA
BRANCH  55  57
ATOM     57  O8  non d ame      -8.840   5.355  65.678  0.00  0.00    -0.317 OA
BRANCH  57  58
ATOM     58  C29 non d ame      -8.466   5.556  64.312  0.00  0.00     0.052 C 
ATOM     59  H47 non d ame      -8.765   6.575  64.071  0.00  0.00     0.082 H 
ATOM     60  H48 non d ame      -7.417   5.267  64.249  0.00  0.00     0.082 H 
BRANCH  58  61
ATOM     61  C35 non d ame      -9.297   4.578  63.439  0.00  0.00    -0.034 A 
ATOM     62  C30 non d ame      -8.986   4.407  62.094  0.00  0.00    -0.075 A 
ATOM     63  C31 non d ame      -9.733   3.529  61.311  0.00  0.00    -0.082 A 
ATOM     64  H49 non d ame      -8.155   4.959  61.655  0.00  0.00     0.084 H 
ATOM     65  C32 non d ame     -10.799   2.824  61.876  0.00  0.00    -0.083 A 
ATOM     66  H50 non d ame      -9.484   3.394  60.258  0.00  0.00     0.083 H 
ATOM     67  C33 non d ame     -11.109   3.001  63.218  0.00  0.00    -0.082 A 
ATOM     68  H51 non d ame     -11.388   2.134  61.271  0.00  0.00     0.083 H 
ATOM     69  C34 non d ame     -10.363   3.876  64.005  0.00  0.00    -0.075 A 
ATOM     70  H52 non d ame     -11.942   2.450  63.655  0.00  0.00     0.083 H 
ATOM     71  H53 non d ame     -10.612   4.008  65.059  0.00  0.00     0.084 H 
ENDBRANCH  58  61
ENDBRANCH  57  58
ENDBRANCH  55  57
ENDBRANCH  52  55
ENDBRANCH  49  52
ENDBRANCH  47  49
BRANCH  47  72
ATOM     72  C24 non d ame     -10.041  10.349  65.196  0.00  0.00    -0.039 C 
ATOM     73  H35 non d ame      -9.102  10.012  64.756  0.00  0.00     0.036 H 
ATOM     74  H36 non d ame     -10.963   9.805  64.992  0.00  0.00     0.036 H 
BRANCH  72  75
ATOM     75  C25 non d ame     -10.268  11.862  64.723  0.00  0.00    -0.001 C 
ATOM     76  C26 non d ame     -11.540  12.517  65.534  0.00  0.00    -0.035 C 
ATOM     77  C27 non d ame     -12.395  13.063  64.637  0.00  0.00     0.085 C 
ATOM     78  H38 non d ame     -12.130  11.730  66.002  0.00  0.00     0.036 H 
ATOM     79  H39 non d ame     -11.208  13.372  66.123  0.00  0.00     0.036 H 
ATOM     80  N5  non d ame     -11.988  12.555  63.274  0.00  0.00    -0.049 N 
ATOM     81  H40 non d ame     -13.377  12.661  64.887  0.00  0.00     0.075 H 
ATOM     82  H41 non d ame     -12.218  14.137  64.682  0.00  0.00     0.075 H 
ATOM     83  C28 non d ame     -10.513  11.925  63.457  0.00  0.00     0.193 C 
ATOM     84  H42 non d ame     -12.630  11.811  63.043  0.00  0.00     0.280 HD
ATOM     85  H43 non d ame     -11.919  13.366  62.675  0.00  0.00     0.280 HD
ATOM     86  H44 non d ame      -9.633  12.465  63.111  0.00  0.00     0.129 H 
ATOM     87  H37 non d ame      -9.340  12.434  64.710  0.00  0.00     0.046 H 
BRANCH  83  88
ATOM     88  O6  non d ame     -10.444  10.642  62.831  0.00  0.00    -0.369 OA
ATOM     89  H45 non d ame     -10.917  10.000  63.365  0.00  0.00     0.212 HD
ENDBRANCH  83  88
ENDBRANCH  72  75
ENDBRANCH  47  72
ENDBRANCH  45  47
ENDBRANCH   1  43
BRANCH   1  90
ATOM     90  C16 non d ame      -6.737  12.229  69.771  0.00  0.00    -0.035 C 
ATOM     91  H21 non d ame      -7.129  13.015  70.418  0.00  0.00     0.037 H 
ATOM     92  H22 non d ame      -7.104  11.208  69.871  0.00  0.00     0.037 H 
BRANCH  90  93
ATOM     93  C17 non d ame      -5.197  12.172  70.029  0.00  0.00    -0.059 C 
ATOM     94  H23 non d ame      -4.699  12.198  69.060  0.00  0.00     0.038 H 
BRANCH  93  95
ATOM     95  C18 non d ame      -4.693  13.397  70.857  0.00  0.00    -0.073 C 
ATOM     96  H24 non d ame      -5.376  13.580  71.687  0.00  0.00     0.028 H 
ATOM     97  H25 non d ame      -3.697  13.186  71.246  0.00  0.00     0.028 H 
ATOM     98  H26 non d ame      -4.654  14.278  70.216  0.00  0.00     0.028 H 
ENDBRANCH  93  95
BRANCH  93  99
ATOM     99  C19 non d ame      -4.804  10.857  70.707  0.00  0.00    -0.073 C 
ATOM    100  H27 non d ame      -4.837  10.983  71.790  0.00  0.00     0.028 H 
ATOM    101  H28 non d ame      -5.502  10.073  70.410  0.00  0.00     0.028 H 
ATOM    102  H29 non d ame      -3.795  10.578  70.403  0.00  0.00     0.028 H 
ENDBRANCH  93  99
ENDBRANCH  90  93
ENDBRANCH   1  90
TORSDOF 26
ENDMDL
MODEL 17
REMARK VINA RESULT:      -6.4      3.536      6.805
REMARK  26 active torsions:
REMARK  status: ('A' for Active; 'I' for Inactive)
REMARK    1  A    between atoms: C2_2  and  C3_3 
REMARK    2  A    between atoms: C4_6  and  C5_7 
REMARK       I    between atoms: C5_7  and  N2_9 
REMARK    3  A    between atoms: N2_9  and  C6_10 
REMARK    4  A    between atoms: C6_10  and  C7_11 
REMARK    5  A    between atoms: C6_10  and  C8_13 
REMARK       I    between atoms: C7_11  and  N3_14 
REMARK    6  A    between atoms: N3_14  and  C9_15 
REMARK    7  A    between atoms: C9_15  and  C10_16 
REMARK    8  A    between atoms: C9_15  and  C11_18 
REMARK       I    between atoms: C10_16  and  N4_21 
REMARK    9  A    between atoms: C11_18  and  C12_19 
REMARK   10  A    between atoms: C11_18  and  C13_20 
REMARK   11  A    between atoms: N4_21  and  C14_22 
REMARK   12  A    between atoms: C14_22  and  C15_23 
REMARK   13  A    between atoms: C14_22  and  C16_25 
REMARK       I    between atoms: C15_23  and  N6_40 
REMARK   14  A    between atoms: C16_25  and  C17_26 
REMARK   15  A    between atoms: C17_26  and  C18_27 
REMARK   16  A    between atoms: C17_26  and  C19_28 
REMARK   17  A    between atoms: C20_29  and  C21_30 
REMARK   18  A    between atoms: C20_29  and  C24_33 
REMARK   19  A    between atoms: C20_29  and  N6_40 
REMARK   20  A    between atoms: C21_30  and  C22_31 
REMARK   21  A    between atoms: C22_31  and  C23_32 
REMARK   22  A    between atoms: C23_32  and  O8_43 
REMARK   23  A    between atoms: C24_33  and  C25_34 
REMARK   24  A    between atoms: C28_38  and  O6_39 
REMARK   25  A    between atoms: C29_42  and  O8_43 
REMARK   26  A    between atoms: C29_42  and  C35_49 
ROOT
ATOM      1  C14 non d ame     -10.837   9.301  69.284  0.00  0.00     0.089 C 
ATOM      2  H20 non d ame     -11.695   8.651  69.108  0.00  0.00     0.087 H 
ENDROOT
BRANCH   1   3
ATOM      3  N4  non d ame      -9.664   8.636  68.735  0.00  0.00    -0.346 N 
ATOM      4  C10 non d ame      -9.811   7.354  67.954  0.00  0.00     0.241 C 
ATOM      5  O4  non d ame     -10.884   6.876  67.782  0.00  0.00    -0.271 OA
ATOM      6  H19 non d ame      -8.760   9.057  68.894  0.00  0.00     0.163 HD
BRANCH   4   7
ATOM      7  C9  non d ame      -8.588   6.682  67.388  0.00  0.00     0.092 C 
ATOM      8  H11 non d ame      -8.708   5.601  67.457  0.00  0.00     0.088 H 
BRANCH   7   9
ATOM      9  N3  non d ame      -8.462   7.013  65.965  0.00  0.00    -0.346 N 
ATOM     10  C7  non d ame      -8.367   5.959  64.986  0.00  0.00     0.240 C 
ATOM     11  O3  non d ame      -8.390   4.839  65.324  0.00  0.00    -0.271 OA
ATOM     12  H10 non d ame      -8.440   7.975  65.658  0.00  0.00     0.163 HD
BRANCH  10  13
ATOM     13  C6  non d ame      -8.230   6.318  63.473  0.00  0.00     0.086 C 
ATOM     14  H6  non d ame      -8.954   7.066  63.149  0.00  0.00     0.086 H 
BRANCH  13  15
ATOM     15  N2  non d ame      -6.913   6.889  63.242  0.00  0.00    -0.343 N 
ATOM     16  C5  non d ame      -6.733   8.341  63.306  0.00  0.00     0.273 C 
ATOM     17  O2  non d ame      -7.656   9.041  63.541  0.00  0.00    -0.266 OA
ATOM     18  H5  non d ame      -6.131   6.282  63.039  0.00  0.00     0.163 HD
BRANCH  16  19
ATOM     19  C4  non d ame      -5.347   8.957  63.065  0.00  0.00     0.154 A 
ATOM     20  C1  non d ame      -4.902  10.262  63.447  0.00  0.00    -0.017 A 
ATOM     21  C2  non d ame      -3.564  10.335  62.999  0.00  0.00     0.077 A 
ATOM     22  H1  non d ame      -5.463  11.037  63.969  0.00  0.00     0.091 H 
ATOM     23  O1  non d ame      -3.283   9.200  62.431  0.00  0.00    -0.218 OA
ATOM     24  N1  non d ame      -4.307   8.379  62.457  0.00  0.00    -0.123 NA
BRANCH  21  25
ATOM     25  C3  non d ame      -2.625  11.524  63.156  0.00  0.00    -0.029 C 
ATOM     26  H2  non d ame      -2.804  12.005  64.118  0.00  0.00     0.036 H 
ATOM     27  H3  non d ame      -1.592  11.181  63.108  0.00  0.00     0.036 H 
ATOM     28  H4  non d ame      -2.807  12.240  62.353  0.00  0.00     0.036 H 
ENDBRANCH  21  25
ENDBRANCH  16  19
ENDBRANCH  13  15
BRANCH  13  29
ATOM     29  C8  non d ame      -8.407   5.075  62.640  0.00  0.00    -0.049 C 
ATOM     30  H7  non d ame      -8.347   4.196  63.283  0.00  0.00     0.030 H 
ATOM     31  H8  non d ame      -9.380   5.100  62.150  0.00  0.00     0.030 H 
ATOM     32  H9  non d ame      -7.621   5.027  61.887  0.00  0.00     0.030 H 
ENDBRANCH  13  29
ENDBRANCH  10  13
ENDBRANCH   7   9
BRANCH   7  33
ATOM     33  C11 non d ame      -7.325   7.180  68.149  0.00  0.00    -0.033 C 
ATOM     34  H12 non d ame      -7.664   7.772  68.997  0.00  0.00     0.042 H 
BRANCH  33  35
ATOM     35  C12 non d ame      -6.492   5.986  68.711  0.00  0.00    -0.071 C 
ATOM     36  H13 non d ame      -6.684   5.880  69.779  0.00  0.00     0.028 H 
ATOM     37  H14 non d ame      -6.779   5.069  68.198  0.00  0.00     0.028 H 
ATOM     38  H15 non d ame      -5.432   6.177  68.551  0.00  0.00     0.028 H 
ENDBRANCH  33  35
BRANCH  33  39
ATOM     39  C13 non d ame      -6.450   8.099  67.237  0.00  0.00    -0.071 C 
ATOM     40  H16 non d ame      -7.097   8.692  66.591  0.00  0.00     0.028 H 
ATOM     41  H17 non d ame      -5.851   8.765  67.860  0.00  0.00     0.028 H 
ATOM     42  H18 non d ame      -5.790   7.484  66.625  0.00  0.00     0.028 H 
ENDBRANCH  33  39
ENDBRANCH   7  33
ENDBRANCH   4   7
ENDBRANCH   1   3
BRANCH   1  43
ATOM     43  C15 non d ame     -10.993  10.683  68.588  0.00  0.00     0.240 C 
ATOM     44  O5  non d ame     -11.634  10.774  67.592  0.00  0.00    -0.271 OA
ATOM     45  N6  non d ame     -10.349  11.896  69.169  0.00  0.00    -0.355 N 
ATOM     46  H46 non d ame      -9.805  11.831  70.017  0.00  0.00     0.162 HD
BRANCH  45  47
ATOM     47  C20 non d ame     -10.507  13.202  68.495  0.00  0.00     0.013 C 
ATOM     48  H30 non d ame     -10.416  13.040  67.421  0.00  0.00     0.072 H 
BRANCH  47  49
ATOM     49  C21 non d ame      -9.422  14.144  68.968  0.00  0.00    -0.038 C 
ATOM     50  H31 non d ame      -9.916  14.851  69.634  0.00  0.00     0.036 H 
ATOM     51  H32 non d ame      -8.623  13.506  69.346  0.00  0.00     0.036 H 
BRANCH  49  52
ATOM     52  C22 non d ame      -8.810  14.977  67.821  0.00  0.00     0.018 C 
ATOM     53  H33 non d ame      -7.792  15.209  68.135  0.00  0.00     0.048 H 
ATOM     54  H34 non d ame      -8.982  14.401  66.913  0.00  0.00     0.048 H 
BRANCH  52  55
ATOM     55  C23 non d ame      -9.511  16.346  67.599  0.00  0.00     0.259 C 
ATOM     56  O7  non d ame      -9.058  17.339  68.069  0.00  0.00    -0.265 OA
BRANCH  55  57
ATOM     57  O8  non d ame     -10.712  16.399  66.838  0.00  0.00    -0.317 OA
BRANCH  57  58
ATOM     58  C29 non d ame     -10.524  16.168  65.438  0.00  0.00     0.052 C 
ATOM     59  H47 non d ame     -11.182  16.873  64.932  0.00  0.00     0.082 H 
ATOM     60  H48 non d ame      -9.447  16.214  65.274  0.00  0.00     0.082 H 
BRANCH  58  61
ATOM     61  C35 non d ame     -11.008  14.728  65.121  0.00  0.00    -0.034 A 
ATOM     62  C30 non d ame     -12.353  14.400  65.254  0.00  0.00    -0.075 A 
ATOM     63  C31 non d ame     -12.788  13.106  64.969  0.00  0.00    -0.082 A 
ATOM     64  H49 non d ame     -13.067  15.156  65.580  0.00  0.00     0.084 H 
ATOM     65  C32 non d ame     -11.870  12.138  64.553  0.00  0.00    -0.083 A 
ATOM     66  H50 non d ame     -13.843  12.853  65.070  0.00  0.00     0.083 H 
ATOM     67  C33 non d ame     -10.527  12.469  64.426  0.00  0.00    -0.082 A 
ATOM     68  H51 non d ame     -12.202  11.124  64.327  0.00  0.00     0.083 H 
ATOM     69  C34 non d ame     -10.090  13.761  64.707  0.00  0.00    -0.075 A 
ATOM     70  H52 non d ame      -9.814  11.710  64.103  0.00  0.00     0.083 H 
ATOM     71  H53 non d ame      -9.034  14.014  64.604  0.00  0.00     0.084 H 
ENDBRANCH  58  61
ENDBRANCH  57  58
ENDBRANCH  55  57
ENDBRANCH  52  55
ENDBRANCH  49  52
ENDBRANCH  47  49
BRANCH  47  72
ATOM     72  C24 non d ame     -11.875  13.792  68.829  0.00  0.00    -0.039 C 
ATOM     73  H35 non d ame     -11.979  14.666  68.184  0.00  0.00     0.036 H 
ATOM     74  H36 non d ame     -12.578  12.964  68.740  0.00  0.00     0.036 H 
BRANCH  72  75
ATOM     75  C25 non d ame     -11.946  14.311  70.343  0.00  0.00    -0.001 C 
ATOM     76  C26 non d ame     -12.966  13.360  71.213  0.00  0.00    -0.035 C 
ATOM     77  C27 non d ame     -13.857  14.152  71.857  0.00  0.00     0.085 C 
ATOM     78  H38 non d ame     -13.588  12.767  70.544  0.00  0.00     0.036 H 
ATOM     79  H39 non d ame     -12.424  12.875  72.025  0.00  0.00     0.036 H 
ATOM     80  N5  non d ame     -13.745  15.529  71.247  0.00  0.00    -0.049 N 
ATOM     81  H40 non d ame     -14.838  13.738  71.620  0.00  0.00     0.075 H 
ATOM     82  H41 non d ame     -13.518  14.192  72.890  0.00  0.00     0.075 H 
ATOM     83  C28 non d ame     -12.370  15.529  70.402  0.00  0.00     0.193 C 
ATOM     84  H42 non d ame     -14.518  15.621  70.605  0.00  0.00     0.280 HD
ATOM     85  H43 non d ame     -13.648  16.175  72.017  0.00  0.00     0.280 HD
ATOM     86  H44 non d ame     -11.482  16.030  70.786  0.00  0.00     0.129 H 
ATOM     87  H37 non d ame     -10.956  14.492  70.763  0.00  0.00     0.046 H 
BRANCH  83  88
ATOM     88  O6  non d ame     -12.589  16.086  69.104  0.00  0.00    -0.369 OA
ATOM     89  H45 non d ame     -13.529  16.078  68.907  0.00  0.00     0.212 HD
ENDBRANCH  83  88
ENDBRANCH  72  75
ENDBRANCH  47  72
ENDBRANCH  45  47
ENDBRANCH   1  43
BRANCH   1  90
ATOM     90  C16 non d ame     -10.640   9.500  70.778  0.00  0.00    -0.035 C 
ATOM     91  H21 non d ame      -9.651   9.948  70.882  0.00  0.00     0.037 H 
ATOM     92  H22 non d ame     -11.522  10.044  71.115  0.00  0.00     0.037 H 
BRANCH  90  93
ATOM     93  C17 non d ame     -10.607   8.166  71.589  0.00  0.00    -0.059 C 
ATOM     94  H23 non d ame     -10.391   7.359  70.890  0.00  0.00     0.038 H 
BRANCH  93  95
ATOM     95  C18 non d ame      -9.486   8.166  72.678  0.00  0.00    -0.073 C 
ATOM     96  H24 non d ame      -9.278   9.191  72.985  0.00  0.00     0.028 H 
ATOM     97  H25 non d ame      -9.818   7.588  73.540  0.00  0.00     0.028 H 
ATOM     98  H26 non d ame      -8.581   7.718  72.266  0.00  0.00     0.028 H 
ENDBRANCH  93  95
BRANCH  93  99
ATOM     99  C19 non d ame     -11.973   7.871  72.215  0.00  0.00    -0.073 C 
ATOM    100  H27 non d ame     -12.701   8.601  71.857  0.00  0.00     0.028 H 
ATOM    101  H28 non d ame     -12.293   6.868  71.930  0.00  0.00     0.028 H 
ATOM    102  H29 non d ame     -11.897   7.933  73.300  0.00  0.00     0.028 H 
ENDBRANCH  93  99
ENDBRANCH  90  93
ENDBRANCH   1  90
TORSDOF 26
ENDMDL
MODEL 18
REMARK VINA RESULT:      -6.3      3.850      8.499
REMARK  26 active torsions:
REMARK  status: ('A' for Active; 'I' for Inactive)
REMARK    1  A    between atoms: C2_2  and  C3_3 
REMARK    2  A    between atoms: C4_6  and  C5_7 
REMARK       I    between atoms: C5_7  and  N2_9 
REMARK    3  A    between atoms: N2_9  and  C6_10 
REMARK    4  A    between atoms: C6_10  and  C7_11 
REMARK    5  A    between atoms: C6_10  and  C8_13 
REMARK       I    between atoms: C7_11  and  N3_14 
REMARK    6  A    between atoms: N3_14  and  C9_15 
REMARK    7  A    between atoms: C9_15  and  C10_16 
REMARK    8  A    between atoms: C9_15  and  C11_18 
REMARK       I    between atoms: C10_16  and  N4_21 
REMARK    9  A    between atoms: C11_18  and  C12_19 
REMARK   10  A    between atoms: C11_18  and  C13_20 
REMARK   11  A    between atoms: N4_21  and  C14_22 
REMARK   12  A    between atoms: C14_22  and  C15_23 
REMARK   13  A    between atoms: C14_22  and  C16_25 
REMARK       I    between atoms: C15_23  and  N6_40 
REMARK   14  A    between atoms: C16_25  and  C17_26 
REMARK   15  A    between atoms: C17_26  and  C18_27 
REMARK   16  A    between atoms: C17_26  and  C19_28 
REMARK   17  A    between atoms: C20_29  and  C21_30 
REMARK   18  A    between atoms: C20_29  and  C24_33 
REMARK   19  A    between atoms: C20_29  and  N6_40 
REMARK   20  A    between atoms: C21_30  and  C22_31 
REMARK   21  A    between atoms: C22_31  and  C23_32 
REMARK   22  A    between atoms: C23_32  and  O8_43 
REMARK   23  A    between atoms: C24_33  and  C25_34 
REMARK   24  A    between atoms: C28_38  and  O6_39 
REMARK   25  A    between atoms: C29_42  and  O8_43 
REMARK   26  A    between atoms: C29_42  and  C35_49 
ROOT
ATOM      1  C14 non d ame      -8.870   6.406  66.789  0.00  0.00     0.089 C 
ATOM      2  H20 non d ame      -9.536   5.695  66.298  0.00  0.00     0.087 H 
ENDROOT
BRANCH   1   3
ATOM      3  N4  non d ame      -7.981   6.947  65.772  0.00  0.00    -0.346 N 
ATOM      4  C10 non d ame      -7.978   6.371  64.377  0.00  0.00     0.241 C 
ATOM      5  O4  non d ame      -8.700   5.470  64.099  0.00  0.00    -0.271 OA
ATOM      6  H19 non d ame      -7.373   7.712  66.029  0.00  0.00     0.163 HD
BRANCH   4   7
ATOM      7  C9  non d ame      -7.055   6.946  63.335  0.00  0.00     0.092 C 
ATOM      8  H11 non d ame      -6.820   6.177  62.600  0.00  0.00     0.088 H 
BRANCH   7   9
ATOM      9  N3  non d ame      -7.738   8.031  62.623  0.00  0.00    -0.346 N 
ATOM     10  C7  non d ame      -8.052   9.259  63.309  0.00  0.00     0.240 C 
ATOM     11  O3  non d ame      -7.764   9.393  64.436  0.00  0.00    -0.271 OA
ATOM     12  H10 non d ame      -7.993   7.931  61.650  0.00  0.00     0.163 HD
BRANCH  10  13
ATOM     13  C6  non d ame      -8.781  10.408  62.546  0.00  0.00     0.086 C 
ATOM     14  H6  non d ame      -9.700  10.077  62.063  0.00  0.00     0.086 H 
BRANCH  13  15
ATOM     15  N2  non d ame      -9.160  11.440  63.497  0.00  0.00    -0.343 N 
ATOM     16  C5  non d ame     -10.558  11.870  63.578  0.00  0.00     0.273 C 
ATOM     17  O2  non d ame     -11.369  11.381  62.871  0.00  0.00    -0.266 OA
ATOM     18  H5  non d ame      -8.459  11.854  64.096  0.00  0.00     0.163 HD
BRANCH  16  19
ATOM     19  C4  non d ame     -10.972  12.958  64.580  0.00  0.00     0.154 A 
ATOM     20  C1  non d ame     -10.119  13.908  65.227  0.00  0.00    -0.017 A 
ATOM     21  C2  non d ame     -10.982  14.676  66.040  0.00  0.00     0.077 A 
ATOM     22  H1  non d ame      -9.040  14.023  65.122  0.00  0.00     0.091 H 
ATOM     23  O1  non d ame     -12.186  14.215  65.871  0.00  0.00    -0.218 OA
ATOM     24  N1  non d ame     -12.206  13.212  65.024  0.00  0.00    -0.123 NA
BRANCH  21  25
ATOM     25  C3  non d ame     -10.575  15.832  66.945  0.00  0.00    -0.029 C 
ATOM     26  H2  non d ame     -11.336  16.611  66.904  0.00  0.00     0.036 H 
ATOM     27  H3  non d ame     -10.476  15.475  67.969  0.00  0.00     0.036 H 
ATOM     28  H4  non d ame      -9.621  16.239  66.608  0.00  0.00     0.036 H 
ENDBRANCH  21  25
ENDBRANCH  16  19
ENDBRANCH  13  15
BRANCH  13  29
ATOM     29  C8  non d ame      -7.861  10.984  61.500  0.00  0.00    -0.049 C 
ATOM     30  H7  non d ame      -7.842  12.071  61.591  0.00  0.00     0.030 H 
ATOM     31  H8  non d ame      -6.855  10.590  61.643  0.00  0.00     0.030 H 
ATOM     32  H9  non d ame      -8.221  10.710  60.508  0.00  0.00     0.030 H 
ENDBRANCH  13  29
ENDBRANCH  10  13
ENDBRANCH   7   9
BRANCH   7  33
ATOM     33  C11 non d ame      -5.778   7.506  64.027  0.00  0.00    -0.033 C 
ATOM     34  H12 non d ame      -6.098   8.238  64.767  0.00  0.00     0.042 H 
BRANCH  33  35
ATOM     35  C12 non d ame      -5.001   6.383  64.782  0.00  0.00    -0.071 C 
ATOM     36  H13 non d ame      -3.965   6.367  64.445  0.00  0.00     0.028 H 
ATOM     37  H14 non d ame      -5.032   6.577  65.853  0.00  0.00     0.028 H 
ATOM     38  H15 non d ame      -5.465   5.419  64.573  0.00  0.00     0.028 H 
ENDBRANCH  33  35
BRANCH  33  39
ATOM     39  C13 non d ame      -4.857   8.234  62.995  0.00  0.00    -0.071 C 
ATOM     40  H16 non d ame      -3.829   8.222  63.354  0.00  0.00     0.028 H 
ATOM     41  H17 non d ame      -4.912   7.722  62.034  0.00  0.00     0.028 H 
ATOM     42  H18 non d ame      -5.189   9.266  62.876  0.00  0.00     0.028 H 
ENDBRANCH  33  39
ENDBRANCH   7  33
ENDBRANCH   4   7
ENDBRANCH   1   3
BRANCH   1  43
ATOM     43  C15 non d ame      -9.648   7.584  67.442  0.00  0.00     0.240 C 
ATOM     44  O5  non d ame     -10.660   7.968  66.953  0.00  0.00    -0.271 OA
ATOM     45  N6  non d ame      -9.134   8.227  68.686  0.00  0.00    -0.355 N 
ATOM     46  H46 non d ame      -8.278   7.906  69.113  0.00  0.00     0.162 HD
BRANCH  45  47
ATOM     47  C20 non d ame      -9.885   9.345  69.296  0.00  0.00     0.013 C 
ATOM     48  H30 non d ame     -10.819   9.463  68.745  0.00  0.00     0.072 H 
BRANCH  47  49
ATOM     49  C21 non d ame      -9.065  10.611  69.198  0.00  0.00    -0.038 C 
ATOM     50  H31 non d ame      -9.160  11.099  70.168  0.00  0.00     0.036 H 
ATOM     51  H32 non d ame      -8.084  10.300  68.838  0.00  0.00     0.036 H 
BRANCH  49  52
ATOM     52  C22 non d ame      -9.619  11.604  68.153  0.00  0.00     0.018 C 
ATOM     53  H33 non d ame      -9.045  12.522  68.284  0.00  0.00     0.048 H 
ATOM     54  H34 non d ame      -9.592  11.076  67.200  0.00  0.00     0.048 H 
BRANCH  52  55
ATOM     55  C23 non d ame     -11.106  11.993  68.385  0.00  0.00     0.259 C 
ATOM     56  O7  non d ame     -11.979  11.369  67.875  0.00  0.00    -0.265 OA
BRANCH  55  57
ATOM     57  O8  non d ame     -11.413  13.115  69.204  0.00  0.00    -0.317 OA
BRANCH  57  58
ATOM     58  C29 non d ame     -12.353  12.834  70.246  0.00  0.00     0.052 C 
ATOM     59  H47 non d ame     -13.325  12.781  69.759  0.00  0.00     0.082 H 
ATOM     60  H48 non d ame     -11.958  11.965  70.772  0.00  0.00     0.082 H 
BRANCH  58  61
ATOM     61  C35 non d ame     -12.357  14.039  71.224  0.00  0.00    -0.034 A 
ATOM     62  C30 non d ame     -13.107  13.985  72.394  0.00  0.00    -0.075 A 
ATOM     63  C31 non d ame     -13.110  15.068  73.273  0.00  0.00    -0.082 A 
ATOM     64  H49 non d ame     -13.692  13.094  72.624  0.00  0.00     0.084 H 
ATOM     65  C32 non d ame     -12.362  16.210  72.975  0.00  0.00    -0.083 A 
ATOM     66  H50 non d ame     -13.697  15.021  74.190  0.00  0.00     0.083 H 
ATOM     67  C33 non d ame     -11.618  16.261  71.804  0.00  0.00    -0.082 A 
ATOM     68  H51 non d ame     -12.359  17.061  73.656  0.00  0.00     0.083 H 
ATOM     69  C34 non d ame     -11.610  15.180  70.925  0.00  0.00    -0.075 A 
ATOM     70  H52 non d ame     -11.037  17.155  71.574  0.00  0.00     0.083 H 
ATOM     71  H53 non d ame     -11.021  15.228  70.008  0.00  0.00     0.084 H 
ENDBRANCH  58  61
ENDBRANCH  57  58
ENDBRANCH  55  57
ENDBRANCH  52  55
ENDBRANCH  49  52
ENDBRANCH  47  49
BRANCH  47  72
ATOM     72  C24 non d ame     -10.171   9.034  70.764  0.00  0.00    -0.039 C 
ATOM     73  H35 non d ame      -9.420   8.300  71.056  0.00  0.00     0.036 H 
ATOM     74  H36 non d ame     -10.210  10.002  71.263  0.00  0.00     0.036 H 
BRANCH  72  75
ATOM     75  C25 non d ame     -11.605   8.346  70.956  0.00  0.00    -0.001 C 
ATOM     76  C26 non d ame     -12.784   9.492  70.928  0.00  0.00    -0.035 C 
ATOM     77  C27 non d ame     -13.571   9.334  72.020  0.00  0.00     0.085 C 
ATOM     78  H38 non d ame     -12.349  10.480  71.069  0.00  0.00     0.036 H 
ATOM     79  H39 non d ame     -13.464   9.309  70.096  0.00  0.00     0.036 H 
ATOM     80  N5  non d ame     -12.845   8.398  72.956  0.00  0.00    -0.049 N 
ATOM     81  H40 non d ame     -13.631  10.321  72.480  0.00  0.00     0.075 H 
ATOM     82  H41 non d ame     -14.475   8.844  71.659  0.00  0.00     0.075 H 
ATOM     83  C28 non d ame     -11.674   7.714  72.080  0.00  0.00     0.193 C 
ATOM     84  H42 non d ame     -12.420   8.976  73.666  0.00  0.00     0.280 HD
ATOM     85  H43 non d ame     -13.509   7.683  73.218  0.00  0.00     0.280 HD
ATOM     86  H44 non d ame     -11.774   6.688  71.725  0.00  0.00     0.129 H 
ATOM     87  H37 non d ame     -11.738   7.481  70.306  0.00  0.00     0.046 H 
BRANCH  83  88
ATOM     88  O6  non d ame     -10.437   7.751  72.795  0.00  0.00    -0.369 OA
ATOM     89  H45 non d ame     -10.486   7.157  73.549  0.00  0.00     0.212 HD
ENDBRANCH  83  88
ENDBRANCH  72  75
ENDBRANCH  47  72
ENDBRANCH  45  47
ENDBRANCH   1  43
BRANCH   1  90
ATOM     90  C16 non d ame      -8.041   5.692  67.843  0.00  0.00    -0.035 C 
ATOM     91  H21 non d ame      -7.015   6.026  67.679  0.00  0.00     0.037 H 
ATOM     92  H22 non d ame      -8.537   5.902  68.791  0.00  0.00     0.037 H 
BRANCH  90  93
ATOM     93  C17 non d ame      -8.029   4.138  67.686  0.00  0.00    -0.059 C 
ATOM     94  H23 non d ame      -7.993   3.705  68.686  0.00  0.00     0.038 H 
BRANCH  93  95
ATOM     95  C18 non d ame      -9.319   3.607  66.983  0.00  0.00    -0.073 C 
ATOM     96  H24 non d ame      -9.371   4.006  65.970  0.00  0.00     0.028 H 
ATOM     97  H25 non d ame      -9.288   2.518  66.944  0.00  0.00     0.028 H 
ATOM     98  H26 non d ame     -10.197   3.926  67.546  0.00  0.00     0.028 H 
ENDBRANCH  93  95
BRANCH  93  99
ATOM     99  C19 non d ame      -6.773   3.673  66.944  0.00  0.00    -0.073 C 
ATOM    100  H27 non d ame      -5.921   3.694  67.625  0.00  0.00     0.028 H 
ATOM    101  H28 non d ame      -6.924   2.656  66.580  0.00  0.00     0.028 H 
ATOM    102  H29 non d ame      -6.583   4.335  66.100  0.00  0.00     0.028 H 
ENDBRANCH  93  99
ENDBRANCH  90  93
ENDBRANCH   1  90
TORSDOF 26
ENDMDL
MODEL 19
REMARK VINA RESULT:      -6.3      2.104      8.858
REMARK  26 active torsions:
REMARK  status: ('A' for Active; 'I' for Inactive)
REMARK    1  A    between atoms: C2_2  and  C3_3 
REMARK    2  A    between atoms: C4_6  and  C5_7 
REMARK       I    between atoms: C5_7  and  N2_9 
REMARK    3  A    between atoms: N2_9  and  C6_10 
REMARK    4  A    between atoms: C6_10  and  C7_11 
REMARK    5  A    between atoms: C6_10  and  C8_13 
REMARK       I    between atoms: C7_11  and  N3_14 
REMARK    6  A    between atoms: N3_14  and  C9_15 
REMARK    7  A    between atoms: C9_15  and  C10_16 
REMARK    8  A    between atoms: C9_15  and  C11_18 
REMARK       I    between atoms: C10_16  and  N4_21 
REMARK    9  A    between atoms: C11_18  and  C12_19 
REMARK   10  A    between atoms: C11_18  and  C13_20 
REMARK   11  A    between atoms: N4_21  and  C14_22 
REMARK   12  A    between atoms: C14_22  and  C15_23 
REMARK   13  A    between atoms: C14_22  and  C16_25 
REMARK       I    between atoms: C15_23  and  N6_40 
REMARK   14  A    between atoms: C16_25  and  C17_26 
REMARK   15  A    between atoms: C17_26  and  C18_27 
REMARK   16  A    between atoms: C17_26  and  C19_28 
REMARK   17  A    between atoms: C20_29  and  C21_30 
REMARK   18  A    between atoms: C20_29  and  C24_33 
REMARK   19  A    between atoms: C20_29  and  N6_40 
REMARK   20  A    between atoms: C21_30  and  C22_31 
REMARK   21  A    between atoms: C22_31  and  C23_32 
REMARK   22  A    between atoms: C23_32  and  O8_43 
REMARK   23  A    between atoms: C24_33  and  C25_34 
REMARK   24  A    between atoms: C28_38  and  O6_39 
REMARK   25  A    between atoms: C29_42  and  O8_43 
REMARK   26  A    between atoms: C29_42  and  C35_49 
ROOT
ATOM      1  C14 non d ame      -7.160  13.219  68.074  0.00  0.00     0.089 C 
ATOM      2  H20 non d ame      -6.450  13.007  67.275  0.00  0.00     0.087 H 
ENDROOT
BRANCH   1   3
ATOM      3  N4  non d ame      -7.320  14.664  68.146  0.00  0.00    -0.346 N 
ATOM      4  C10 non d ame      -6.195  15.577  67.723  0.00  0.00     0.241 C 
ATOM      5  O4  non d ame      -5.171  15.124  67.330  0.00  0.00    -0.271 OA
ATOM      6  H19 non d ame      -8.198  15.030  68.485  0.00  0.00     0.163 HD
BRANCH   4   7
ATOM      7  C9  non d ame      -6.379  17.069  67.799  0.00  0.00     0.092 C 
ATOM      8  H11 non d ame      -6.106  17.514  66.842  0.00  0.00     0.088 H 
BRANCH   7   9
ATOM      9  N3  non d ame      -7.794  17.377  68.031  0.00  0.00    -0.346 N 
ATOM     10  C7  non d ame      -8.652  17.702  66.919  0.00  0.00     0.240 C 
ATOM     11  O3  non d ame      -8.223  17.722  65.831  0.00  0.00    -0.271 OA
ATOM     12  H10 non d ame      -8.180  17.364  68.965  0.00  0.00     0.163 HD
BRANCH  10  13
ATOM     13  C6  non d ame     -10.157  18.031  67.173  0.00  0.00     0.086 C 
ATOM     14  H6  non d ame     -10.818  17.582  66.432  0.00  0.00     0.086 H 
BRANCH  13  15
ATOM     15  N2  non d ame     -10.547  17.485  68.463  0.00  0.00    -0.343 N 
ATOM     16  C5  non d ame     -11.242  16.197  68.522  0.00  0.00     0.273 C 
ATOM     17  O2  non d ame     -11.484  15.610  67.526  0.00  0.00    -0.266 OA
ATOM     18  H5  non d ame     -10.338  17.996  69.309  0.00  0.00     0.163 HD
BRANCH  16  19
ATOM     19  C4  non d ame     -11.659  15.609  69.878  0.00  0.00     0.154 A 
ATOM     20  C1  non d ame     -11.657  16.272  71.146  0.00  0.00    -0.017 A 
ATOM     21  C2  non d ame     -12.124  15.305  72.063  0.00  0.00     0.077 A 
ATOM     22  H1  non d ame     -11.363  17.299  71.367  0.00  0.00     0.091 H 
ATOM     23  O1  non d ame     -12.365  14.218  71.391  0.00  0.00    -0.218 OA
ATOM     24  N1  non d ame     -12.101  14.370  70.113  0.00  0.00    -0.123 NA
BRANCH  21  25
ATOM     25  C3  non d ame     -12.313  15.501  73.562  0.00  0.00    -0.029 C 
ATOM     26  H2  non d ame     -13.374  15.612  73.783  0.00  0.00     0.036 H 
ATOM     27  H3  non d ame     -11.920  14.635  74.094  0.00  0.00     0.036 H 
ATOM     28  H4  non d ame     -11.779  16.396  73.882  0.00  0.00     0.036 H 
ENDBRANCH  21  25
ENDBRANCH  16  19
ENDBRANCH  13  15
BRANCH  13  29
ATOM     29  C8  non d ame     -10.356  19.525  67.163  0.00  0.00    -0.049 C 
ATOM     30  H7  non d ame      -9.476  20.006  66.734  0.00  0.00     0.030 H 
ATOM     31  H8  non d ame     -11.233  19.772  66.566  0.00  0.00     0.030 H 
ATOM     32  H9  non d ame     -10.500  19.879  68.184  0.00  0.00     0.030 H 
ENDBRANCH  13  29
ENDBRANCH  10  13
ENDBRANCH   7   9
BRANCH   7  33
ATOM     33  C11 non d ame      -5.528  17.637  68.972  0.00  0.00    -0.033 C 
ATOM     34  H12 non d ame      -5.428  16.850  69.717  0.00  0.00     0.042 H 
BRANCH  33  35
ATOM     35  C12 non d ame      -4.091  18.021  68.498  0.00  0.00    -0.071 C 
ATOM     36  H13 non d ame      -4.083  19.059  68.168  0.00  0.00     0.028 H 
ATOM     37  H14 non d ame      -3.392  17.896  69.324  0.00  0.00     0.028 H 
ATOM     38  H15 non d ame      -3.798  17.375  67.672  0.00  0.00     0.028 H 
ENDBRANCH  33  35
BRANCH  33  39
ATOM     39  C13 non d ame      -6.244  18.852  69.645  0.00  0.00    -0.071 C 
ATOM     40  H16 non d ame      -6.348  19.659  68.921  0.00  0.00     0.028 H 
ATOM     41  H17 non d ame      -7.232  18.545  69.992  0.00  0.00     0.028 H 
ATOM     42  H18 non d ame      -5.654  19.198  70.493  0.00  0.00     0.028 H 
ENDBRANCH  33  39
ENDBRANCH   7  33
ENDBRANCH   4   7
ENDBRANCH   1   3
BRANCH   1  43
ATOM     43  C15 non d ame      -8.553  12.581  67.808  0.00  0.00     0.240 C 
ATOM     44  O5  non d ame      -9.524  13.049  68.307  0.00  0.00    -0.271 OA
ATOM     45  N6  non d ame      -8.678  11.389  66.920  0.00  0.00    -0.355 N 
ATOM     46  H46 non d ame      -7.861  10.985  66.486  0.00  0.00     0.162 HD
BRANCH  45  47
ATOM     47  C20 non d ame     -10.010  10.794  66.675  0.00  0.00     0.013 C 
ATOM     48  H30 non d ame     -10.757  11.444  67.131  0.00  0.00     0.072 H 
BRANCH  47  49
ATOM     49  C21 non d ame     -10.067   9.421  67.305  0.00  0.00    -0.038 C 
ATOM     50  H31 non d ame     -10.067   9.590  68.381  0.00  0.00     0.036 H 
ATOM     51  H32 non d ame     -10.910   8.916  66.832  0.00  0.00     0.036 H 
BRANCH  49  52
ATOM     52  C22 non d ame      -8.818   8.568  66.996  0.00  0.00     0.018 C 
ATOM     53  H33 non d ame      -8.514   8.843  65.985  0.00  0.00     0.048 H 
ATOM     54  H34 non d ame      -8.137   8.728  67.831  0.00  0.00     0.048 H 
BRANCH  52  55
ATOM     55  C23 non d ame      -9.096   7.039  66.957  0.00  0.00     0.259 C 
ATOM     56  O7  non d ame      -8.560   6.349  66.152  0.00  0.00    -0.265 OA
BRANCH  55  57
ATOM     57  O8  non d ame     -10.013   6.474  67.887  0.00  0.00    -0.317 OA
BRANCH  57  58
ATOM     58  C29 non d ame      -9.455   6.239  69.183  0.00  0.00     0.052 C 
ATOM     59  H47 non d ame      -9.550   5.167  69.354  0.00  0.00     0.082 H 
ATOM     60  H48 non d ame      -8.470   6.704  69.169  0.00  0.00     0.082 H 
BRANCH  58  61
ATOM     61  C35 non d ame     -10.334   6.983  70.224  0.00  0.00    -0.034 A 
ATOM     62  C30 non d ame      -9.833   8.097  70.890  0.00  0.00    -0.075 A 
ATOM     63  C31 non d ame     -10.623   8.765  71.825  0.00  0.00    -0.082 A 
ATOM     64  H49 non d ame      -8.823   8.448  70.678  0.00  0.00     0.084 H 
ATOM     65  C32 non d ame     -11.916   8.312  72.096  0.00  0.00    -0.083 A 
ATOM     66  H50 non d ame     -10.229   9.640  72.342  0.00  0.00     0.083 H 
ATOM     67  C33 non d ame     -12.411   7.196  71.433  0.00  0.00    -0.082 A 
ATOM     68  H51 non d ame     -12.540   8.829  72.825  0.00  0.00     0.083 H 
ATOM     69  C34 non d ame     -11.625   6.528  70.496  0.00  0.00    -0.075 A 
ATOM     70  H52 non d ame     -13.420   6.845  71.649  0.00  0.00     0.083 H 
ATOM     71  H53 non d ame     -12.022   5.653  69.977  0.00  0.00     0.084 H 
ENDBRANCH  58  61
ENDBRANCH  57  58
ENDBRANCH  55  57
ENDBRANCH  52  55
ENDBRANCH  49  52
ENDBRANCH  47  49
BRANCH  47  72
ATOM     72  C24 non d ame     -10.254  10.678  65.172  0.00  0.00    -0.039 C 
ATOM     73  H35 non d ame      -9.398  10.128  64.781  0.00  0.00     0.036 H 
ATOM     74  H36 non d ame     -11.258  10.264  65.073  0.00  0.00     0.036 H 
BRANCH  72  75
ATOM     75  C25 non d ame     -10.262  12.112  64.459  0.00  0.00    -0.001 C 
ATOM     76  C26 non d ame     -11.301  13.119  65.239  0.00  0.00    -0.035 C 
ATOM     77  C27 non d ame     -12.139  13.671  64.329  0.00  0.00     0.085 C 
ATOM     78  H38 non d ame     -11.967  12.545  65.883  0.00  0.00     0.036 H 
ATOM     79  H39 non d ame     -10.761  13.977  65.640  0.00  0.00     0.036 H 
ATOM     80  N5  non d ame     -11.980  12.885  63.049  0.00  0.00    -0.049 N 
ATOM     81  H40 non d ame     -13.144  13.510  64.722  0.00  0.00     0.075 H 
ATOM     82  H41 non d ame     -11.771  14.684  64.171  0.00  0.00     0.075 H 
ATOM     83  C28 non d ame     -10.629  12.020  63.225  0.00  0.00     0.193 C 
ATOM     84  H42 non d ame     -12.764  12.252  63.003  0.00  0.00     0.280 HD
ATOM     85  H43 non d ame     -11.834  13.562  62.314  0.00  0.00     0.280 HD
ATOM     86  H44 non d ame      -9.710  12.319  62.721  0.00  0.00     0.129 H 
ATOM     87  H37 non d ame      -9.254  12.486  64.274  0.00  0.00     0.046 H 
BRANCH  83  88
ATOM     88  O6  non d ame     -10.856  10.665  62.831  0.00  0.00    -0.369 OA
ATOM     89  H45 non d ame     -10.921  10.112  63.613  0.00  0.00     0.212 HD
ENDBRANCH  83  88
ENDBRANCH  72  75
ENDBRANCH  47  72
ENDBRANCH  45  47
ENDBRANCH   1  43
BRANCH   1  90
ATOM     90  C16 non d ame      -6.611  12.714  69.399  0.00  0.00    -0.035 C 
ATOM     91  H21 non d ame      -5.800  13.398  69.654  0.00  0.00     0.037 H 
ATOM     92  H22 non d ame      -7.477  12.627  70.055  0.00  0.00     0.037 H 
BRANCH  90  93
ATOM     93  C17 non d ame      -5.977  11.290  69.313  0.00  0.00    -0.059 C 
ATOM     94  H23 non d ame      -5.924  11.015  68.259  0.00  0.00     0.038 H 
BRANCH  93  95
ATOM     95  C18 non d ame      -4.524  11.256  69.887  0.00  0.00    -0.073 C 
ATOM     96  H24 non d ame      -3.818  11.075  69.076  0.00  0.00     0.028 H 
ATOM     97  H25 non d ame      -4.299  12.211  70.360  0.00  0.00     0.028 H 
ATOM     98  H26 non d ame      -4.444  10.457  70.624  0.00  0.00     0.028 H 
ENDBRANCH  93  95
BRANCH  93  99
ATOM     99  C19 non d ame      -6.862  10.253  70.009  0.00  0.00    -0.073 C 
ATOM    100  H27 non d ame      -7.278   9.573  69.265  0.00  0.00     0.028 H 
ATOM    101  H28 non d ame      -6.265   9.688  70.725  0.00  0.00     0.028 H 
ATOM    102  H29 non d ame      -7.673  10.760  70.533  0.00  0.00     0.028 H 
ENDBRANCH  93  99
ENDBRANCH  90  93
ENDBRANCH   1  90
TORSDOF 26
ENDMDL
MODEL 20
REMARK VINA RESULT:      -6.3      4.261      6.764
REMARK  26 active torsions:
REMARK  status: ('A' for Active; 'I' for Inactive)
REMARK    1  A    between atoms: C2_2  and  C3_3 
REMARK    2  A    between atoms: C4_6  and  C5_7 
REMARK       I    between atoms: C5_7  and  N2_9 
REMARK    3  A    between atoms: N2_9  and  C6_10 
REMARK    4  A    between atoms: C6_10  and  C7_11 
REMARK    5  A    between atoms: C6_10  and  C8_13 
REMARK       I    between atoms: C7_11  and  N3_14 
REMARK    6  A    between atoms: N3_14  and  C9_15 
REMARK    7  A    between atoms: C9_15  and  C10_16 
REMARK    8  A    between atoms: C9_15  and  C11_18 
REMARK       I    between atoms: C10_16  and  N4_21 
REMARK    9  A    between atoms: C11_18  and  C12_19 
REMARK   10  A    between atoms: C11_18  and  C13_20 
REMARK   11  A    between atoms: N4_21  and  C14_22 
REMARK   12  A    between atoms: C14_22  and  C15_23 
REMARK   13  A    between atoms: C14_22  and  C16_25 
REMARK       I    between atoms: C15_23  and  N6_40 
REMARK   14  A    between atoms: C16_25  and  C17_26 
REMARK   15  A    between atoms: C17_26  and  C18_27 
REMARK   16  A    between atoms: C17_26  and  C19_28 
REMARK   17  A    between atoms: C20_29  and  C21_30 
REMARK   18  A    between atoms: C20_29  and  C24_33 
REMARK   19  A    between atoms: C20_29  and  N6_40 
REMARK   20  A    between atoms: C21_30  and  C22_31 
REMARK   21  A    between atoms: C22_31  and  C23_32 
REMARK   22  A    between atoms: C23_32  and  O8_43 
REMARK   23  A    between atoms: C24_33  and  C25_34 
REMARK   24  A    between atoms: C28_38  and  O6_39 
REMARK   25  A    between atoms: C29_42  and  O8_43 
REMARK   26  A    between atoms: C29_42  and  C35_49 
ROOT
ATOM      1  C14 non d ame     -10.527   8.410  69.131  0.00  0.00     0.089 C 
ATOM      2  H20 non d ame     -11.501   8.105  68.746  0.00  0.00     0.087 H 
ENDROOT
BRANCH   1   3
ATOM      3  N4  non d ame      -9.787   7.200  69.457  0.00  0.00    -0.346 N 
ATOM      4  C10 non d ame     -10.065   5.914  68.718  0.00  0.00     0.241 C 
ATOM      5  O4  non d ame     -10.892   5.878  67.866  0.00  0.00    -0.271 OA
ATOM      6  H19 non d ame      -9.090   7.250  70.186  0.00  0.00     0.163 HD
BRANCH   4   7
ATOM      7  C9  non d ame      -9.286   4.672  69.064  0.00  0.00     0.092 C 
ATOM      8  H11 non d ame      -9.738   3.814  68.566  0.00  0.00     0.088 H 
BRANCH   7   9
ATOM      9  N3  non d ame      -7.917   4.796  68.554  0.00  0.00    -0.346 N 
ATOM     10  C7  non d ame      -7.485   3.984  67.444  0.00  0.00     0.240 C 
ATOM     11  O3  non d ame      -8.226   3.225  66.947  0.00  0.00    -0.271 OA
ATOM     12  H10 non d ame      -7.266   5.446  68.972  0.00  0.00     0.163 HD
BRANCH  10  13
ATOM     13  C6  non d ame      -6.026   4.118  66.908  0.00  0.00     0.086 C 
ATOM     14  H6  non d ame      -5.737   3.292  66.258  0.00  0.00     0.086 H 
BRANCH  13  15
ATOM     15  N2  non d ame      -5.926   5.329  66.109  0.00  0.00    -0.343 N 
ATOM     16  C5  non d ame      -4.952   5.396  65.018  0.00  0.00     0.273 C 
ATOM     17  O2  non d ame      -4.250   4.472  64.793  0.00  0.00    -0.266 OA
ATOM     18  H5  non d ame      -6.528   6.115  66.311  0.00  0.00     0.163 HD
BRANCH  16  19
ATOM     19  C4  non d ame      -4.837   6.669  64.166  0.00  0.00     0.154 A 
ATOM     20  C1  non d ame      -4.597   8.002  64.629  0.00  0.00    -0.017 A 
ATOM     21  C2  non d ame      -4.581   8.795  63.461  0.00  0.00     0.077 A 
ATOM     22  H1  non d ame      -4.456   8.341  65.656  0.00  0.00     0.091 H 
ATOM     23  O1  non d ame      -4.786   8.002  62.451  0.00  0.00    -0.218 OA
ATOM     24  N1  non d ame      -4.938   6.756  62.837  0.00  0.00    -0.123 NA
BRANCH  21  25
ATOM     25  C3  non d ame      -4.361  10.301  63.398  0.00  0.00    -0.029 C 
ATOM     26  H2  non d ame      -4.672  10.673  62.421  0.00  0.00     0.036 H 
ATOM     27  H3  non d ame      -4.949  10.787  64.175  0.00  0.00     0.036 H 
ATOM     28  H4  non d ame      -3.304  10.522  63.550  0.00  0.00     0.036 H 
ENDBRANCH  21  25
ENDBRANCH  16  19
ENDBRANCH  13  15
BRANCH  13  29
ATOM     29  C8  non d ame      -5.065   4.185  68.068  0.00  0.00    -0.049 C 
ATOM     30  H7  non d ame      -5.069   3.231  68.597  0.00  0.00     0.030 H 
ATOM     31  H8  non d ame      -4.062   4.392  67.699  0.00  0.00     0.030 H 
ATOM     32  H9  non d ame      -5.374   4.978  68.749  0.00  0.00     0.030 H 
ENDBRANCH  13  29
ENDBRANCH  10  13
ENDBRANCH   7   9
BRANCH   7  33
ATOM     33  C11 non d ame      -9.248   4.498  70.610  0.00  0.00    -0.033 C 
ATOM     34  H12 non d ame      -9.943   5.219  71.039  0.00  0.00     0.042 H 
BRANCH  33  35
ATOM     35  C12 non d ame      -9.727   3.075  71.034  0.00  0.00    -0.071 C 
ATOM     36  H13 non d ame     -10.712   3.144  71.495  0.00  0.00     0.028 H 
ATOM     37  H14 non d ame      -9.781   2.433  70.155  0.00  0.00     0.028 H 
ATOM     38  H15 non d ame      -9.021   2.654  71.749  0.00  0.00     0.028 H 
ENDBRANCH  33  35
BRANCH  33  39
ATOM     39  C13 non d ame      -7.823   4.807  71.172  0.00  0.00    -0.071 C 
ATOM     40  H16 non d ame      -7.137   4.013  70.880  0.00  0.00     0.028 H 
ATOM     41  H17 non d ame      -7.471   5.757  70.770  0.00  0.00     0.028 H 
ATOM     42  H18 non d ame      -7.867   4.867  72.260  0.00  0.00     0.028 H 
ENDBRANCH  33  39
ENDBRANCH   7  33
ENDBRANCH   4   7
ENDBRANCH   1   3
BRANCH   1  43
ATOM     43  C15 non d ame      -9.710   9.222  68.087  0.00  0.00     0.240 C 
ATOM     44  O5  non d ame      -8.538   9.052  67.990  0.00  0.00    -0.271 OA
ATOM     45  N6  non d ame     -10.392  10.207  67.199  0.00  0.00    -0.355 N 
ATOM     46  H46 non d ame     -11.387  10.357  67.269  0.00  0.00     0.162 HD
BRANCH  45  47
ATOM     47  C20 non d ame      -9.602  10.972  66.210  0.00  0.00     0.013 C 
ATOM     48  H30 non d ame      -8.559  10.955  66.527  0.00  0.00     0.072 H 
BRANCH  47  49
ATOM     49  C21 non d ame     -10.103  12.397  66.162  0.00  0.00    -0.038 C 
ATOM     50  H31 non d ame      -9.211  13.023  66.166  0.00  0.00     0.036 H 
ATOM     51  H32 non d ame     -10.795  12.438  65.321  0.00  0.00     0.036 H 
BRANCH  49  52
ATOM     52  C22 non d ame     -10.916  12.788  67.416  0.00  0.00     0.018 C 
ATOM     53  H33 non d ame     -11.541  11.925  67.644  0.00  0.00     0.048 H 
ATOM     54  H34 non d ame     -10.185  13.139  68.144  0.00  0.00     0.048 H 
BRANCH  52  55
ATOM     55  C23 non d ame     -11.893  13.974  67.184  0.00  0.00     0.259 C 
ATOM     56  O7  non d ame     -12.577  14.011  66.213  0.00  0.00    -0.265 OA
BRANCH  55  57
ATOM     57  O8  non d ame     -11.951  15.026  68.140  0.00  0.00    -0.317 OA
BRANCH  57  58
ATOM     58  C29 non d ame     -11.012  14.891  69.211  0.00  0.00     0.052 C 
ATOM     59  H47 non d ame     -10.550  13.913  69.077  0.00  0.00     0.082 H 
ATOM     60  H48 non d ame     -10.399  15.792  69.181  0.00  0.00     0.082 H 
BRANCH  58  61
ATOM     61  C35 non d ame     -11.805  14.882  70.545  0.00  0.00    -0.034 A 
ATOM     62  C30 non d ame     -12.710  13.860  70.812  0.00  0.00    -0.075 A 
ATOM     63  C31 non d ame     -13.422  13.852  72.010  0.00  0.00    -0.082 A 
ATOM     64  H49 non d ame     -12.860  13.063  70.082  0.00  0.00     0.084 H 
ATOM     65  C32 non d ame     -13.230  14.875  72.942  0.00  0.00    -0.083 A 
ATOM     66  H50 non d ame     -14.128  13.047  72.217  0.00  0.00     0.083 H 
ATOM     67  C33 non d ame     -12.329  15.896  72.670  0.00  0.00    -0.082 A 
ATOM     68  H51 non d ame     -13.782  14.876  73.882  0.00  0.00     0.083 H 
ATOM     69  C34 non d ame     -11.613  15.905  71.475  0.00  0.00    -0.075 A 
ATOM     70  H52 non d ame     -12.183  16.694  73.400  0.00  0.00     0.083 H 
ATOM     71  H53 non d ame     -10.906  16.710  71.270  0.00  0.00     0.084 H 
ENDBRANCH  58  61
ENDBRANCH  57  58
ENDBRANCH  55  57
ENDBRANCH  52  55
ENDBRANCH  49  52
ENDBRANCH  47  49
BRANCH  47  72
ATOM     72  C24 non d ame      -9.746  10.333  64.830  0.00  0.00    -0.039 C 
ATOM     73  H35 non d ame     -10.373   9.454  64.981  0.00  0.00     0.036 H 
ATOM     74  H36 non d ame     -10.084  11.136  64.173  0.00  0.00     0.036 H 
BRANCH  72  75
ATOM     75  C25 non d ame      -8.339   9.819  64.263  0.00  0.00    -0.001 C 
ATOM     76  C26 non d ame      -8.212  10.184  62.665  0.00  0.00    -0.035 C 
ATOM     77  C27 non d ame      -7.867   9.063  61.988  0.00  0.00     0.085 C 
ATOM     78  H38 non d ame      -9.191  10.435  62.260  0.00  0.00     0.036 H 
ATOM     79  H39 non d ame      -7.366  10.852  62.500  0.00  0.00     0.036 H 
ATOM     80  N5  non d ame      -8.067   7.899  62.929  0.00  0.00    -0.049 N 
ATOM     81  H40 non d ame      -8.583   8.985  61.169  0.00  0.00     0.075 H 
ATOM     82  H41 non d ame      -6.804   9.168  61.774  0.00  0.00     0.075 H 
ATOM     83  C28 non d ame      -8.217   8.541  64.403  0.00  0.00     0.193 C 
ATOM     84  H42 non d ame      -8.945   7.472  62.673  0.00  0.00     0.280 HD
ATOM     85  H43 non d ame      -7.215   7.358  62.900  0.00  0.00     0.280 HD
ATOM     86  H44 non d ame      -7.392   8.497  65.113  0.00  0.00     0.129 H 
ATOM     87  H37 non d ame      -7.506  10.106  64.905  0.00  0.00     0.046 H 
BRANCH  83  88
ATOM     88  O6  non d ame      -9.335   7.964  65.080  0.00  0.00    -0.369 OA
ATOM     89  H45 non d ame      -9.735   8.622  65.653  0.00  0.00     0.212 HD
ENDBRANCH  83  88
ENDBRANCH  72  75
ENDBRANCH  47  72
ENDBRANCH  45  47
ENDBRANCH   1  43
BRANCH   1  90
ATOM     90  C16 non d ame     -10.707   9.235  70.394  0.00  0.00    -0.035 C 
ATOM     91  H21 non d ame      -9.865   8.971  71.035  0.00  0.00     0.037 H 
ATOM     92  H22 non d ame     -10.829  10.263  70.052  0.00  0.00     0.037 H 
BRANCH  90  93
ATOM     93  C17 non d ame     -12.000   8.881  71.196  0.00  0.00    -0.059 C 
ATOM     94  H23 non d ame     -12.646   8.299  70.540  0.00  0.00     0.038 H 
BRANCH  93  95
ATOM     95  C18 non d ame     -11.692   8.010  72.456  0.00  0.00    -0.073 C 
ATOM     96  H24 non d ame     -12.582   7.445  72.733  0.00  0.00     0.028 H 
ATOM     97  H25 non d ame     -10.879   7.320  72.230  0.00  0.00     0.028 H 
ATOM     98  H26 non d ame     -11.400   8.658  73.283  0.00  0.00     0.028 H 
ENDBRANCH  93  95
BRANCH  93  99
ATOM     99  C19 non d ame     -12.768  10.147  71.584  0.00  0.00    -0.073 C 
ATOM    100  H27 non d ame     -13.840   9.954  71.526  0.00  0.00     0.028 H 
ATOM    101  H28 non d ame     -12.505  10.433  72.603  0.00  0.00     0.028 H 
ATOM    102  H29 non d ame     -12.506  10.955  70.902  0.00  0.00     0.028 H 
ENDBRANCH  93  99
ENDBRANCH  90  93
ENDBRANCH   1  90
TORSDOF 26
ENDMDL
