REMARK  26 active torsions:
REMARK  status: ('A' for Active; 'I' for Inactive)
REMARK    1  A    between atoms: C2_2  and  C3_3 
REMARK    2  A    between atoms: C4_6  and  C5_7 
REMARK       I    between atoms: C5_7  and  N2_9 
REMARK    3  A    between atoms: N2_9  and  C6_10 
REMARK    4  A    between atoms: C6_10  and  C7_11 
REMARK    5  A    between atoms: C6_10  and  C8_13 
REMARK       I    between atoms: C7_11  and  N3_14 
REMARK    6  A    between atoms: N3_14  and  C9_15 
REMARK    7  A    between atoms: C9_15  and  C10_16 
REMARK    8  A    between atoms: C9_15  and  C11_18 
REMARK       I    between atoms: C10_16  and  N4_21 
REMARK    9  A    between atoms: C11_18  and  C12_19 
REMARK   10  A    between atoms: C11_18  and  C13_20 
REMARK   11  A    between atoms: N4_21  and  C14_22 
REMARK   12  A    between atoms: C14_22  and  C15_23 
REMARK   13  A    between atoms: C14_22  and  C16_25 
REMARK       I    between atoms: C15_23  and  N6_40 
REMARK   14  A    between atoms: C16_25  and  C17_26 
REMARK   15  A    between atoms: C17_26  and  C18_27 
REMARK   16  A    between atoms: C17_26  and  C19_28 
REMARK   17  A    between atoms: C20_29  and  C21_30 
REMARK   18  A    between atoms: C20_29  and  C24_33 
REMARK   19  A    between atoms: C20_29  and  N6_40 
REMARK   20  A    between atoms: C21_30  and  C22_31 
REMARK   21  A    between atoms: C22_31  and  C23_32 
REMARK   22  A    between atoms: C23_32  and  O8_43 
REMARK   23  A    between atoms: C24_33  and  C25_34 
REMARK   24  A    between atoms: C28_38  and  O6_39 
REMARK   25  A    between atoms: C29_42  and  O8_43 
REMARK   26  A    between atoms: C29_42  and  C35_49 
ROOT
ATOM      1  C14 non d ame      -3.622   2.012  69.941  0.00  0.00     0.089 C 
ATOM      2  H20 non d ame      -3.136   2.648  69.200  0.00  0.00     0.087 H 
ENDROOT
BRANCH   1   3
ATOM      3  N4  non d ame      -3.754   2.788  71.165  0.00  0.00    -0.346 N 
ATOM      4  C10 non d ame      -2.667   3.749  71.579  0.00  0.00     0.241 C 
ATOM      5  O4  non d ame      -1.694   3.878  70.911  0.00  0.00    -0.271 OA
ATOM      6  H19 non d ame      -4.588   2.662  71.721  0.00  0.00     0.163 HD
BRANCH   4   7
ATOM      7  C9  non d ame      -2.822   4.548  72.846  0.00  0.00     0.092 C 
ATOM      8  H11 non d ame      -1.922   5.141  73.009  0.00  0.00     0.088 H 
BRANCH   7   9
ATOM      9  N3  non d ame      -3.938   5.488  72.698  0.00  0.00    -0.346 N 
ATOM     10  C7  non d ame      -3.680   6.865  72.359  0.00  0.00     0.240 C 
ATOM     11  O3  non d ame      -2.581   7.236  72.202  0.00  0.00    -0.271 OA
ATOM     12  H10 non d ame      -4.892   5.183  72.831  0.00  0.00     0.163 HD
BRANCH  10  13
ATOM     13  C6  non d ame      -4.872   7.861  72.206  0.00  0.00     0.086 C 
ATOM     14  H6  non d ame      -4.621   8.872  72.527  0.00  0.00     0.086 H 
BRANCH  13  15
ATOM     15  N2  non d ame      -5.235   7.949  70.801  0.00  0.00    -0.343 N 
ATOM     16  C5  non d ame      -4.807   9.109  70.016  0.00  0.00     0.273 C 
ATOM     17  O2  non d ame      -4.174   9.967  70.525  0.00  0.00    -0.266 OA
ATOM     18  H5  non d ame      -5.779   7.212  70.375  0.00  0.00     0.163 HD
BRANCH  16  19
ATOM     19  C4  non d ame      -5.183   9.214  68.530  0.00  0.00     0.154 A 
ATOM     20  C1  non d ame      -6.454   9.580  67.983  0.00  0.00    -0.017 A 
ATOM     21  C2  non d ame      -6.276   9.526  66.583  0.00  0.00     0.077 A 
ATOM     22  H1  non d ame      -7.365   9.845  68.520  0.00  0.00     0.091 H 
ATOM     23  O1  non d ame      -5.044   9.172  66.362  0.00  0.00    -0.218 OA
ATOM     24  N1  non d ame      -4.386   8.984  67.483  0.00  0.00    -0.123 NA
BRANCH  21  25
ATOM     25  C3  non d ame      -7.332   9.829  65.528  0.00  0.00    -0.029 C 
ATOM     26  H2  non d ame      -7.905   8.926  65.317  0.00  0.00     0.036 H 
ATOM     27  H3  non d ame      -8.001  10.606  65.896  0.00  0.00     0.036 H 
ATOM     28  H4  non d ame      -6.845  10.172  64.614  0.00  0.00     0.036 H 
ENDBRANCH  21  25
ENDBRANCH  16  19
ENDBRANCH  13  15
BRANCH  13  29
ATOM     29  C8  non d ame      -6.047   7.371  73.013  0.00  0.00    -0.049 C 
ATOM     30  H7  non d ame      -5.928   7.680  74.052  0.00  0.00     0.030 H 
ATOM     31  H8  non d ame      -6.967   7.794  72.611  0.00  0.00     0.030 H 
ATOM     32  H9  non d ame      -6.094   6.283  72.962  0.00  0.00     0.030 H 
ENDBRANCH  13  29
ENDBRANCH  10  13
ENDBRANCH   7   9
BRANCH   7  33
ATOM     33  C11 non d ame      -3.112   3.585  74.034  0.00  0.00    -0.033 C 
ATOM     34  H12 non d ame      -2.727   2.603  73.763  0.00  0.00     0.042 H 
BRANCH  33  35
ATOM     35  C12 non d ame      -2.369   4.040  75.329  0.00  0.00    -0.071 C 
ATOM     36  H13 non d ame      -2.231   5.121  75.308  0.00  0.00     0.028 H 
ATOM     37  H14 non d ame      -2.960   3.766  76.202  0.00  0.00     0.028 H 
ATOM     38  H15 non d ame      -1.397   3.551  75.379  0.00  0.00     0.028 H 
ENDBRANCH  33  35
BRANCH  33  39
ATOM     39  C13 non d ame      -4.649   3.450  74.282  0.00  0.00    -0.071 C 
ATOM     40  H16 non d ame      -5.183   3.604  73.345  0.00  0.00     0.028 H 
ATOM     41  H17 non d ame      -4.869   2.453  74.666  0.00  0.00     0.028 H 
ATOM     42  H18 non d ame      -4.967   4.197  75.009  0.00  0.00     0.028 H 
ENDBRANCH  33  39
ENDBRANCH   7  33
ENDBRANCH   4   7
ENDBRANCH   1   3
BRANCH   1  43
ATOM     43  C15 non d ame      -5.039   1.559  69.488  0.00  0.00     0.240 C 
ATOM     44  O5  non d ame      -5.999   1.951  70.068  0.00  0.00    -0.271 OA
ATOM     45  N6  non d ame      -5.200   0.642  68.323  0.00  0.00    -0.355 N 
ATOM     46  H46 non d ame      -4.392   0.306  67.820  0.00  0.00     0.162 HD
BRANCH  45  47
ATOM     47  C20 non d ame      -6.554   0.221  67.904  0.00  0.00     0.013 C 
ATOM     48  H30 non d ame      -7.278   0.769  68.507  0.00  0.00     0.072 H 
BRANCH  47  49
ATOM     49  C21 non d ame      -6.710  -1.265  68.135  0.00  0.00    -0.038 C 
ATOM     50  H31 non d ame      -6.783  -1.389  69.215  0.00  0.00     0.036 H 
ATOM     51  H32 non d ame      -7.534  -1.578  67.493  0.00  0.00     0.036 H 
BRANCH  49  52
ATOM     52  C22 non d ame      -5.474  -2.074  67.685  0.00  0.00     0.018 C 
ATOM     53  H33 non d ame      -4.844  -1.372  67.138  0.00  0.00     0.048 H 
ATOM     54  H34 non d ame      -5.095  -2.559  68.584  0.00  0.00     0.048 H 
BRANCH  52  55
ATOM     55  C23 non d ame      -5.804  -3.219  66.687  0.00  0.00     0.259 C 
ATOM     56  O7  non d ame      -6.870  -3.275  66.165  0.00  0.00    -0.265 OA
BRANCH  55  57
ATOM     57  O8  non d ame      -4.821  -4.210  66.414  0.00  0.00    -0.317 OA
BRANCH  57  58
ATOM     58  C29 non d ame      -5.215  -5.162  65.421  0.00  0.00     0.052 C 
ATOM     59  H47 non d ame      -5.696  -4.584  64.633  0.00  0.00     0.082 H 
ATOM     60  H48 non d ame      -4.321  -5.745  65.201  0.00  0.00     0.082 H 
BRANCH  58  61
ATOM     61  C35 non d ame      -6.272  -6.105  66.055  0.00  0.00    -0.034 A 
ATOM     62  C30 non d ame      -6.074  -6.615  67.334  0.00  0.00    -0.075 A 
ATOM     63  C31 non d ame      -7.024  -7.462  67.903  0.00  0.00    -0.082 A 
ATOM     64  H49 non d ame      -5.175  -6.350  67.891  0.00  0.00     0.084 H 
ATOM     65  C32 non d ame      -8.174  -7.802  67.186  0.00  0.00    -0.083 A 
ATOM     66  H50 non d ame      -6.867  -7.857  68.907  0.00  0.00     0.083 H 
ATOM     67  C33 non d ame      -8.366  -7.294  65.908  0.00  0.00    -0.082 A 
ATOM     68  H51 non d ame      -8.922  -8.463  67.624  0.00  0.00     0.083 H 
ATOM     69  C34 non d ame      -7.420  -6.445  65.337  0.00  0.00    -0.075 A 
ATOM     70  H52 non d ame      -9.264  -7.563  65.351  0.00  0.00     0.083 H 
ATOM     71  H53 non d ame      -7.579  -6.049  64.333  0.00  0.00     0.084 H 
ENDBRANCH  58  61
ENDBRANCH  57  58
ENDBRANCH  55  57
ENDBRANCH  52  55
ENDBRANCH  49  52
ENDBRANCH  47  49
BRANCH  47  72
ATOM     72  C24 non d ame      -6.755   0.531  66.422  0.00  0.00    -0.039 C 
ATOM     73  H35 non d ame      -6.449  -0.372  65.893  0.00  0.00     0.036 H 
ATOM     74  H36 non d ame      -7.781   0.890  66.337  0.00  0.00     0.036 H 
BRANCH  72  75
ATOM     75  C25 non d ame      -5.797   1.716  65.928  0.00  0.00    -0.001 C 
ATOM     76  C26 non d ame      -6.160   3.102  66.735  0.00  0.00    -0.035 C 
ATOM     77  C27 non d ame      -6.344   4.096  65.833  0.00  0.00     0.085 C 
ATOM     78  H38 non d ame      -7.133   3.011  67.216  0.00  0.00     0.036 H 
ATOM     79  H39 non d ame      -5.297   3.437  67.310  0.00  0.00     0.036 H 
ATOM     80  N5  non d ame      -6.463   3.444  64.476  0.00  0.00    -0.049 N 
ATOM     81  H40 non d ame      -7.300   4.552  66.093  0.00  0.00     0.075 H 
ATOM     82  H41 non d ame      -5.431   4.689  65.863  0.00  0.00     0.075 H 
ATOM     83  C28 non d ame      -5.932   1.931  64.662  0.00  0.00     0.193 C 
ATOM     84  H42 non d ame      -7.448   3.415  64.258  0.00  0.00     0.280 HD
ATOM     85  H43 non d ame      -5.825   3.935  63.866  0.00  0.00     0.280 HD
ATOM     86  H44 non d ame      -4.944   1.642  64.305  0.00  0.00     0.129 H 
ATOM     87  H37 non d ame      -4.749   1.416  65.904  0.00  0.00     0.046 H 
BRANCH  83  88
ATOM     88  O6  non d ame      -6.841   1.011  64.054  0.00  0.00    -0.369 OA
ATOM     89  H45 non d ame      -7.064   1.318  63.172  0.00  0.00     0.212 HD
ENDBRANCH  83  88
ENDBRANCH  72  75
ENDBRANCH  47  72
ENDBRANCH  45  47
ENDBRANCH   1  43
BRANCH   1  90
ATOM     90  C16 non d ame      -2.759   0.792  70.218  0.00  0.00    -0.035 C 
ATOM     91  H21 non d ame      -3.346  -0.061  69.874  0.00  0.00     0.037 H 
ATOM     92  H22 non d ame      -1.795   1.010  69.759  0.00  0.00     0.037 H 
BRANCH  90  93
ATOM     93  C17 non d ame      -2.481   0.552  71.736  0.00  0.00    -0.059 C 
ATOM     94  H23 non d ame      -2.340   1.526  72.204  0.00  0.00     0.038 H 
BRANCH  93  95
ATOM     95  C18 non d ame      -3.679  -0.151  72.451  0.00  0.00    -0.073 C 
ATOM     96  H24 non d ame      -4.266   0.592  72.991  0.00  0.00     0.028 H 
ATOM     97  H25 non d ame      -4.308  -0.641  71.708  0.00  0.00     0.028 H 
ATOM     98  H26 non d ame      -3.298  -0.894  73.152  0.00  0.00     0.028 H 
ENDBRANCH  93  95
BRANCH  93  99
ATOM     99  C19 non d ame      -1.186  -0.240  71.937  0.00  0.00    -0.073 C 
ATOM    100  H27 non d ame      -1.427  -1.255  72.255  0.00  0.00     0.028 H 
ATOM    101  H28 non d ame      -0.633  -0.274  70.998  0.00  0.00     0.028 H 
ATOM    102  H29 non d ame      -0.577   0.246  72.699  0.00  0.00     0.028 H 
ENDBRANCH  93  99
ENDBRANCH  90  93
ENDBRANCH   1  90
TORSDOF 26
