REMARK  20 active torsions:
REMARK  status: ('A' for Active; 'I' for Inactive)
REMARK    1  A    between atoms: C4_6  and  C5_7 
REMARK       I    between atoms: C5_7  and  N2_9 
REMARK    2  A    between atoms: N2_9  and  C6_10 
REMARK    3  A    between atoms: C6_10  and  C7_11 
REMARK       I    between atoms: C7_11  and  N3_14 
REMARK    4  A    between atoms: N3_14  and  C9_15 
REMARK    5  A    between atoms: C9_15  and  C10_16 
REMARK    6  A    between atoms: C9_15  and  C11_18 
REMARK       I    between atoms: C10_16  and  N4_21 
REMARK    7  A    between atoms: N4_21  and  C14_22 
REMARK    8  A    between atoms: C14_22  and  C15_23 
REMARK    9  A    between atoms: C14_22  and  C16_25 
REMARK       I    between atoms: C15_23  and  N6_40 
REMARK   10  A    between atoms: C16_25  and  C17_26 
REMARK   11  A    between atoms: C20_29  and  C21_30 
REMARK   12  A    between atoms: C20_29  and  C24_33 
REMARK   13  A    between atoms: C20_29  and  N6_40 
REMARK   14  A    between atoms: C21_30  and  C22_31 
REMARK   15  A    between atoms: C22_31  and  C23_32 
REMARK   16  A    between atoms: C23_32  and  O8_43 
REMARK   17  A    between atoms: C24_33  and  C25_34 
REMARK   18  A    between atoms: C28_38  and  O6_39 
REMARK   19  A    between atoms: C29_42  and  O8_43 
REMARK   20  A    between atoms: C29_42  and  C35_49 
ROOT
ATOM      1  C1  non d ame     -32.622   3.420  21.793  0.00  0.00     0.133 A 
ATOM      2  C2  non d ame     -33.123   2.857  20.598  0.00  0.00     0.100 A 
ATOM      3  C3  non d ame     -33.702   1.458  20.434  0.00  0.00     0.149 C 
ATOM      4  O1  non d ame     -32.999   3.755  19.665  0.00  0.00    -0.307 OA
ATOM      5  N1  non d ame     -32.462   4.861  20.126  0.00  0.00    -0.122 NA
ATOM      6  C4  non d ame     -32.199   4.738  21.430  0.00  0.00     0.103 A 
ENDROOT
BRANCH   6   7
ATOM      7  C5  non d ame     -31.572   5.798  22.349  0.00  0.00     0.057 C 
ATOM      8  O2  non d ame     -31.985   5.943  23.447  0.00  0.00    -0.282 OA
ATOM      9  N2  non d ame     -30.464   6.625  21.866  0.00  0.00    -0.058 N 
ATOM     10  H5  non d ame     -30.103   6.506  20.930  0.00  0.00     0.132 HD
BRANCH   9  11
ATOM     11  C6  non d ame     -29.881   7.625  22.745  0.00  0.00     0.142 C 
ATOM     12  C8  non d ame     -28.650   8.218  22.108  0.00  0.00     0.035 C 
BRANCH  11  13
ATOM     13  C7  non d ame     -30.932   8.750  22.999  0.00  0.00     0.049 C 
ATOM     14  O3  non d ame     -31.581   9.159  22.115  0.00  0.00    -0.290 OA
ATOM     15  N3  non d ame     -31.104   9.281  24.329  0.00  0.00    -0.066 N 
ATOM     16  H10 non d ame     -30.538   8.917  25.082  0.00  0.00     0.132 HD
BRANCH  15  17
ATOM     17  C9  non d ame     -32.092  10.336  24.574  0.00  0.00     0.147 C 
BRANCH  17  18
ATOM     18  C10 non d ame     -31.384  11.606  24.967  0.00  0.00     0.049 C 
ATOM     19  O4  non d ame     -30.666  11.617  25.912  0.00  0.00    -0.290 OA
ATOM     20  N4  non d ame     -31.595  12.859  24.155  0.00  0.00    -0.066 N 
ATOM     21  H19 non d ame     -32.200  12.870  23.346  0.00  0.00     0.132 HD
BRANCH  20  22
ATOM     22  C14 non d ame     -30.923  14.096  24.524  0.00  0.00     0.145 C 
BRANCH  22  23
ATOM     23  C15 non d ame     -31.465  14.561  25.906  0.00  0.00     0.047 C 
ATOM     24  O5  non d ame     -32.636  14.570  26.109  0.00  0.00    -0.291 OA
ATOM     25  N6  non d ame     -30.523  14.987  26.980  0.00  0.00    -0.072 N 
ATOM     26  H46 non d ame     -29.526  14.979  26.821  0.00  0.00     0.131 HD
BRANCH  25  27
ATOM     27  C20 non d ame     -31.054  15.425  28.289  0.00  0.00     0.062 C 
BRANCH  27  28
ATOM     28  C21 non d ame     -30.548  16.817  28.593  0.00  0.00     0.030 C 
BRANCH  28  29
ATOM     29  C22 non d ame     -31.682  17.802  28.951  0.00  0.00     0.110 C 
BRANCH  29  30
ATOM     30  C23 non d ame     -32.880  17.764  27.962  0.00  0.00     0.141 C 
ATOM     31  O7  non d ame     -32.693  17.731  26.789  0.00  0.00    -0.254 OA
BRANCH  30  32
ATOM     32  O8  non d ame     -34.207  17.782  28.474  0.00  0.00    -0.204 OA
BRANCH  32  33
ATOM     33  C29 non d ame     -35.217  17.582  27.481  0.00  0.00     0.206 C 
BRANCH  33  34
ATOM     34  C35 non d ame     -35.965  18.927  27.281  0.00  0.00    -0.043 A 
ATOM     35  C30 non d ame     -37.308  18.930  26.918  0.00  0.00     0.013 A 
ATOM     36  C31 non d ame     -37.980  20.138  26.738  0.00  0.00     0.004 A 
ATOM     37  C32 non d ame     -37.303  21.347  26.920  0.00  0.00     0.001 A 
ATOM     38  C33 non d ame     -35.962  21.339  27.279  0.00  0.00     0.004 A 
ATOM     39  C34 non d ame     -35.287  20.134  27.462  0.00  0.00     0.013 A 
ENDBRANCH  33  34
ENDBRANCH  32  33
ENDBRANCH  30  32
ENDBRANCH  29  30
ENDBRANCH  28  29
ENDBRANCH  27  28
BRANCH  27  40
ATOM     40  C24 non d ame     -30.591  14.464  29.382  0.00  0.00     0.033 C 
BRANCH  40  41
ATOM     41  C25 non d ame     -31.220  13.003  29.192  0.00  0.00     0.085 C 
ATOM     42  C26 non d ame     -32.832  13.041  29.515  0.00  0.00     0.075 C 
ATOM     43  C27 non d ame     -33.122  12.061  30.404  0.00  0.00     0.178 C 
ATOM     44  N5  non d ame     -31.809  11.571  30.965  0.00  0.00     0.020 N 
ATOM     45  C28 non d ame     -30.664  12.148  29.984  0.00  0.00     0.240 C 
ATOM     46  H42 non d ame     -31.705  12.005  31.871  0.00  0.00     0.259 HD
ATOM     47  H43 non d ame     -31.823  10.564  30.886  0.00  0.00     0.259 HD
BRANCH  45  48
ATOM     48  O6  non d ame     -29.607  12.730  30.749  0.00  0.00    -0.346 OA
ATOM     49  H45 non d ame     -29.795  12.627  31.685  0.00  0.00     0.217 HD
ENDBRANCH  45  48
ENDBRANCH  40  41
ENDBRANCH  27  40
ENDBRANCH  25  27
ENDBRANCH  22  23
BRANCH  22  50
ATOM     50  C16 non d ame     -31.222  15.155  23.475  0.00  0.00     0.032 C 
BRANCH  50  51
ATOM     51  C17 non d ame     -30.046  15.397  22.476  0.00  0.00    -0.015 C 
ATOM     52  C18 non d ame     -29.213  14.100  22.221  0.00  0.00     0.007 C 
ATOM     53  C19 non d ame     -30.560  15.982  21.158  0.00  0.00     0.007 C 
ENDBRANCH  50  51
ENDBRANCH  22  50
ENDBRANCH  20  22
ENDBRANCH  17  18
BRANCH  17  54
ATOM     54  C11 non d ame     -33.043   9.895  25.725  0.00  0.00     0.009 C 
ATOM     55  C12 non d ame     -33.917  11.086  26.228  0.00  0.00     0.009 C 
ATOM     56  C13 non d ame     -33.931   8.687  25.285  0.00  0.00     0.009 C 
ENDBRANCH  17  54
ENDBRANCH  15  17
ENDBRANCH  11  13
ENDBRANCH   9  11
ENDBRANCH   6   7
TORSDOF 20
