crystal_redock_e24_er3_1.pdbqt
     RDKit          3D

102104  0  0  0  0  0  0  0  0999 V2000
    0.7047    2.3894   -0.1550 C   0  0  2  0  0  0  0  0  0  0  0  0
    1.6774    2.2511   -0.6396 H   0  0  0  0  0  0  0  0  0  0  0  0
    0.0218    1.1063   -0.0829 N   0  0  0  0  0  0  0  0  0  0  0  0
    0.6992   -0.1056   -0.1213 C   0  0  0  0  0  0  0  0  0  0  0  0
    1.9035   -0.2293   -0.3351 O   0  0  0  0  0  0  0  0  0  0  0  0
   -0.9486    1.1123    0.2171 H   0  0  0  0  0  0  0  0  0  0  0  0
   -0.2224   -1.2908    0.1686 C   0  0  1  0  0  0  0  0  0  0  0  0
   -1.1185   -1.1660   -0.4531 H   0  0  0  0  0  0  0  0  0  0  0  0
    0.4675   -2.4970   -0.2715 N   0  0  0  0  0  0  0  0  0  0  0  0
    0.2848   -3.0512   -1.5326 C   0  0  0  0  0  0  0  0  0  0  0  0
   -0.5288   -2.6530   -2.3635 O   0  0  0  0  0  0  0  0  0  0  0  0
    1.2595   -2.8113    0.2806 H   0  0  0  0  0  0  0  0  0  0  0  0
    1.2295   -4.2215   -1.7895 C   0  0  1  0  0  0  0  0  0  0  0  0
    1.1742   -4.9134   -0.9408 H   0  0  0  0  0  0  0  0  0  0  0  0
    0.7645   -4.9225   -2.9795 N   0  0  0  0  0  0  0  0  0  0  0  0
    0.9979   -6.2753   -3.1895 C   0  0  0  0  0  0  0  0  0  0  0  0
    1.5636   -7.0070   -2.3796 O   0  0  0  0  0  0  0  0  0  0  0  0
    0.3648   -4.3568   -3.7214 H   0  0  0  0  0  0  0  0  0  0  0  0
    0.5187   -6.7846   -4.4688 C   0  0  0  0  0  0  0  0  0  0  0  0
   -0.1719   -6.1246   -5.5181 C   0  0  0  0  0  0  0  0  0  0  0  0
   -0.3671   -7.0938   -6.4691 C   0  0  0  0  0  0  0  0  0  0  0  0
   -0.4873   -5.0935   -5.5817 H   0  0  0  0  0  0  0  0  0  0  0  0
    0.1662   -8.2630   -6.0303 O   0  0  0  0  0  0  0  0  0  0  0  0
    0.7214   -8.0757   -4.7779 N   0  0  0  0  0  0  0  0  0  0  0  0
   -1.0051   -7.1158   -7.7961 C   0  0  0  0  0  0  0  0  0  0  0  0
   -1.8332   -7.8310   -7.8118 H   0  0  0  0  0  0  0  0  0  0  0  0
   -1.4018   -6.1301   -8.0582 H   0  0  0  0  0  0  0  0  0  0  0  0
   -0.2824   -7.4070   -8.5645 H   0  0  0  0  0  0  0  0  0  0  0  0
    2.6648   -3.7422   -1.9750 C   0  0  0  0  0  0  0  0  0  0  0  0
    3.0420   -3.2445   -1.0760 H   0  0  0  0  0  0  0  0  0  0  0  0
    2.7364   -3.0272   -2.8027 H   0  0  0  0  0  0  0  0  0  0  0  0
    3.3328   -4.5800   -2.2013 H   0  0  0  0  0  0  0  0  0  0  0  0
   -0.6392   -1.3484    1.6564 C   0  0  0  0  0  0  0  0  0  0  0  0
   -1.1049   -0.3914    1.9217 H   0  0  0  0  0  0  0  0  0  0  0  0
   -1.6910   -2.4374    1.8866 C   0  0  0  0  0  0  0  0  0  0  0  0
   -1.2871   -3.4366    1.6928 H   0  0  0  0  0  0  0  0  0  0  0  0
   -2.5563   -2.2865    1.2327 H   0  0  0  0  0  0  0  0  0  0  0  0
   -2.0490   -2.4157    2.9215 H   0  0  0  0  0  0  0  0  0  0  0  0
    0.5385   -1.5475    2.6166 C   0  0  0  0  0  0  0  0  0  0  0  0
    0.1939   -1.5030    3.6557 H   0  0  0  0  0  0  0  0  0  0  0  0
    1.0230   -2.5183    2.4731 H   0  0  0  0  0  0  0  0  0  0  0  0
    1.2931   -0.7651    2.4903 H   0  0  0  0  0  0  0  0  0  0  0  0
    0.9487    2.8267    1.2881 C   0  0  0  0  0  0  0  0  0  0  0  0
    0.3511    2.3407    2.2465 O   0  0  0  0  0  0  0  0  0  0  0  0
    1.8935    3.8395    1.3790 N   0  0  0  0  0  0  0  0  0  0  0  0
    2.3599    4.1616    0.5359 H   0  0  0  0  0  0  0  0  0  0  0  0
    2.2700    4.4628    2.6424 C   0  0  2  0  0  0  0  0  0  0  0  0
    1.6392    4.0544    3.4407 H   0  0  0  0  0  0  0  0  0  0  0  0
    2.0413    5.9878    2.5732 C   0  0  0  0  0  0  0  0  0  0  0  0
    2.2624    6.4236    3.5560 H   0  0  0  0  0  0  0  0  0  0  0  0
    2.7527    6.4323    1.8651 H   0  0  0  0  0  0  0  0  0  0  0  0
    0.6331    6.4070    2.1485 C   0  0  0  0  0  0  0  0  0  0  0  0
    0.5416    7.4990    2.1687 H   0  0  0  0  0  0  0  0  0  0  0  0
    0.4459    6.1029    1.1123 H   0  0  0  0  0  0  0  0  0  0  0  0
   -0.4389    5.8461    3.0511 C   0  0  0  0  0  0  0  0  0  0  0  0
   -0.4715    6.0083    4.2634 O   0  0  0  0  0  0  0  0  0  0  0  0
   -1.3400    5.1443    2.3075 O   0  0  0  0  0  0  0  0  0  0  0  0
   -2.4174    4.5232    3.0249 C   0  0  0  0  0  0  0  0  0  0  0  0
   -3.0894    5.2953    3.4171 H   0  0  0  0  0  0  0  0  0  0  0  0
   -2.0196    3.9423    3.8655 H   0  0  0  0  0  0  0  0  0  0  0  0
   -3.1622    3.6344    2.0678 C   0  0  0  0  0  0  0  0  0  0  0  0
   -3.0936    2.2403    2.1845 C   0  0  0  0  0  0  0  0  0  0  0  0
   -3.7601    1.4203    1.2723 C   0  0  0  0  0  0  0  0  0  0  0  0
   -2.5146    1.7817    2.9821 H   0  0  0  0  0  0  0  0  0  0  0  0
   -4.4992    1.9853    0.2352 C   0  0  0  0  0  0  0  0  0  0  0  0
   -3.6987    0.3403    1.3689 H   0  0  0  0  0  0  0  0  0  0  0  0
   -4.5764    3.3709    0.1112 C   0  0  0  0  0  0  0  0  0  0  0  0
   -5.0147    1.3463   -0.4757 H   0  0  0  0  0  0  0  0  0  0  0  0
   -3.9118    4.1925    1.0229 C   0  0  0  0  0  0  0  0  0  0  0  0
   -5.1513    3.8125   -0.6976 H   0  0  0  0  0  0  0  0  0  0  0  0
   -3.9749    5.2719    0.9094 H   0  0  0  0  0  0  0  0  0  0  0  0
    3.7429    4.1689    2.9939 C   0  0  0  0  0  0  0  0  0  0  0  0
    4.3962    4.4821    2.1698 H   0  0  0  0  0  0  0  0  0  0  0  0
    4.0165    4.7959    3.8534 H   0  0  0  0  0  0  0  0  0  0  0  0
    4.0278    2.7090    3.3799 C   0  0  2  0  0  0  0  0  0  0  0  0
    5.4285    2.5519    3.9747 C   0  0  0  0  0  0  0  0  0  0  0  0
    5.6201    1.0501    4.0206 C   0  0  0  0  0  0  0  0  0  0  0  0
    6.1864    3.0141    3.3305 H   0  0  0  0  0  0  0  0  0  0  0  0
    5.5132    3.0010    4.9691 H   0  0  0  0  0  0  0  0  0  0  0  0
    4.8854    0.5476    2.8155 N   0  0  0  0  0  0  0  0  0  0  0  0
    5.1403    0.6003    4.8953 H   0  0  0  0  0  0  0  0  0  0  0  0
    6.6644    0.7360    3.9505 H   0  0  0  0  0  0  0  0  0  0  0  0
    4.0414    1.6653    2.2536 C   0  0  2  0  0  0  0  0  0  0  0  0
    4.3012   -0.2627    3.0636 H   0  0  0  0  0  0  0  0  0  0  0  0
    5.5447    0.2242    2.0950 H   0  0  0  0  0  0  0  0  0  0  0  0
    3.0498    1.2407    2.0808 H   0  0  0  0  0  0  0  0  0  0  0  0
    3.3021    2.3942    4.1435 H   0  0  0  0  0  0  0  0  0  0  0  0
    4.5207    2.1947    1.0260 O   0  0  0  0  0  0  0  0  0  0  0  0
    5.4378    2.4865    1.1626 H   0  0  0  0  0  0  0  0  0  0  0  0
   -0.1388    3.4386   -0.8909 C   0  0  0  0  0  0  0  0  0  0  0  0
   -1.0561    3.6237   -0.3172 H   0  0  0  0  0  0  0  0  0  0  0  0
    0.4014    4.3943   -0.9060 H   0  0  0  0  0  0  0  0  0  0  0  0
   -0.5311    3.0571   -2.3320 C   0  0  0  0  0  0  0  0  0  0  0  0
   -1.1100    2.1255   -2.3128 H   0  0  0  0  0  0  0  0  0  0  0  0
   -1.4305    4.1441   -2.9265 C   0  0  0  0  0  0  0  0  0  0  0  0
   -2.3292    4.2825   -2.3163 H   0  0  0  0  0  0  0  0  0  0  0  0
   -0.9081    5.1052   -2.9844 H   0  0  0  0  0  0  0  0  0  0  0  0
   -1.7534    3.8724   -3.9371 H   0  0  0  0  0  0  0  0  0  0  0  0
    0.6884    2.8448   -3.2293 C   0  0  0  0  0  0  0  0  0  0  0  0
    1.3362    3.7279   -3.2340 H   0  0  0  0  0  0  0  0  0  0  0  0
    1.2821    1.9873   -2.8985 H   0  0  0  0  0  0  0  0  0  0  0  0
    0.3808    2.6461   -4.2617 H   0  0  0  0  0  0  0  0  0  0  0  0
102 99  1  0
101 99  1  0
100 99  1  0
 99 93  1  0
 98 95  1  0
 41 39  1  0
 93 94  1  0
 93 95  1  0
 93 90  1  0
 34 33  1  0
 37 35  1  0
 97 95  1  0
 91 90  1  0
 95 96  1  0
 40 39  1  0
 39 33  1  0
 39 42  1  0
 90 92  1  0
 90  1  1  0
 33 35  1  0
 33  7  1  0
  5  4  2  0
 35 36  1  0
 35 38  1  0
 27 25  1  0
 12  9  1  0
  4  7  1  0
  4  3  1  0
  1  2  1  6
  7  9  1  0
  7  8  1  6
 28 25  1  0
 22 20  1  0
  1  3  1  0
  1 43  1  0
 25 26  1  0
 25 21  1  0
 32 29  1  0
  9 10  1  0
  3  6  1  0
 18 15  1  0
 20 21  2  0
 20 19  1  0
 43 44  2  0
 43 45  1  0
 21 23  1  0
 30 29  1  0
 29 31  1  0
 29 13  1  0
 75 87  1  1
 73 72  1  0
 83 86  1  6
 10 13  1  0
 10 11  2  0
 46 45  1  0
 15 13  1  0
 15 16  1  0
 45 47  1  0
 89 88  1  0
 13 14  1  1
 19 16  1  0
 19 24  2  0
 75 72  1  0
 75 83  1  0
 75 76  1  0
 72 47  1  0
 72 74  1  0
 23 24  1  0
 83 88  1  0
 83 80  1  0
 16 17  2  0
 79 76  1  0
 47 48  1  1
 47 49  1  0
 76 77  1  0
 76 78  1  0
 85 80  1  0
 82 77  1  0
 51 49  1  0
 80 77  1  0
 80 84  1  0
 49 50  1  0
 49 52  1  0
 77 81  1  0
 56 55  2  0
 64 62  1  0
 66 63  1  0
 53 52  1  0
 52 55  1  0
 52 54  1  0
 55 57  1  0
 59 58  1  0
 62 63  2  0
 62 61  1  0
 63 65  1  0
 58 61  1  0
 58 57  1  0
 58 60  1  0
 61 69  2  0
 65 68  1  0
 65 67  2  0
 69 67  1  0
 69 71  1  0
 67 70  1  0
M  CHG  1  80   1
M  END
>  <_TriposChargeType>  (1) 
GASTEIGER

>  <energy_abs>  (1) 
79.04142348475362

>  <SMILE>  (1) 
[H]O[C@]1([H])[C@]([H])(C([H])([H])[C@]([H])(N([H])C(=O)[C@@]([H])(N([H])C(=O)[C@@]([H])(N([H])C(=O)[C@@]([H])(N([H])C(=O)c2noc(C([H])([H])[H])c2[H])C([H])([H])[H])C([H])(C([H])([H])[H])C([H])([H])[H])C([H])([H])C([H])(C([H])([H])[H])C([H])([H])[H])C([H])([H])C([H])([H])C(=O)OC([H])([H])c2c([H])c([H])c([H])c([H])c2[H])C([H])([H])C([H])([H])[N+]1([H])[H]

>  <cluster_no>  (1) 
149

>  <pdb_id>  (1) 
6lu7

>  <initial_id>  (1) 
852

$$$$
