@<TRIPOS>MOLECULE
crystal_redock_e24_er3_1.pdbqt
 102 104 0 0 0
SMALL
GASTEIGER

@<TRIPOS>ATOM
      1 C1        -30.8070   14.4760   23.7210 C.3     1  UNL1        0.0890
      2 H1        -29.7210   14.5010   23.6260 H       1  UNL1        0.0870
      3 N1        -31.1890   13.1070   24.0330 N.am    1  UNL1       -0.3460
      4 C2        -30.5410   11.9520   23.3110 C.2     1  UNL1        0.2410
      5 O1        -29.7170   12.1500   22.4800 O.2     1  UNL1       -0.2710
      6 H2        -31.8940   12.9600   24.7410 H       1  UNL1        0.1630
      7 C3        -30.9450   10.5410   23.6500 C.3     1  UNL1        0.0920
      8 H3        -30.3830   10.2080   24.5230 H       1  UNL1        0.0880
      9 N2        -32.3650   10.5120   24.0110 N.am    1  UNL1       -0.3460
     10 C4        -32.7640   10.7080   25.3830 C.2     1  UNL1        0.2400
     11 O2        -31.9550   10.8880   26.2090 O.2     1  UNL1       -0.2710
     12 H4        -33.0740   10.3560   23.3090 H       1  UNL1        0.1630
     13 C5        -34.2770   10.6730   25.7610 C.3     1  UNL1        0.0860
     14 H5        -34.4420   10.5250   26.8290 H       1  UNL1        0.0860
     15 N3        -34.8780   11.9520   25.4210 N.am    1  UNL1       -0.3430
     16 C6        -35.8870   12.5340   26.3100 C.2     1  UNL1        0.2730
     17 O3        -36.2100   11.9630   27.2930 O.2     1  UNL1       -0.2660
     18 H6        -34.5980   12.4310   24.5770 H       1  UNL1        0.1630
     19 C7        -36.5290   13.8860   25.9630 C.ar    1  UNL1        0.1540
     20 C8        -36.6950   14.4560   24.6610 C.ar    1  UNL1       -0.0170
     21 C9        -37.3340   15.6960   24.8870 C.ar    1  UNL1        0.0770
     22 H7        -36.3980   14.0350   23.7010 H       1  UNL1        0.0910
     23 O4        -37.5100   15.8140   26.1700 O.2     1  UNL1       -0.2180
     24 N4        -37.0480   14.7700   26.8200 N.ar    1  UNL1       -0.1230
     25 C10       -37.7410   16.7070   23.8230 C.3     1  UNL1       -0.0290
     26 H8        -37.4690   17.7100   24.1500 H       1  UNL1        0.0360
     27 H9        -37.2270   16.4780   22.8890 H       1  UNL1        0.0360
     28 H10       -38.8180   16.6560   23.6660 H       1  UNL1        0.0360
     29 C11       -34.9620    9.5630   25.0050 C.3     1  UNL1       -0.0490
     30 H11       -34.2920    8.7060   24.9320 H       1  UNL1        0.0300
     31 H12       -35.8700    9.2700   25.5320 H       1  UNL1        0.0300
     32 H13       -35.2180    9.9100   24.0030 H       1  UNL1        0.0300
     33 C12       -30.7070    9.6230   22.4150 C.3     1  UNL1       -0.0330
     34 H14       -30.6200   10.2660   21.5390 H       1  UNL1        0.0420
     35 C13       -29.3710    8.8270   22.5470 C.3     1  UNL1       -0.0710
     36 H15       -29.5620    7.8770   23.0460 H       1  UNL1        0.0280
     37 H16       -28.9600    8.6410   21.5560 H       1  UNL1        0.0280
     38 H17       -28.6590    9.4080   23.1340 H       1  UNL1        0.0280
     39 C14       -31.9190    8.6630   22.1910 C.3     1  UNL1       -0.0710
     40 H18       -32.8110    9.2490   21.9710 H       1  UNL1        0.0280
     41 H19       -31.7050    7.9970   21.3540 H       1  UNL1        0.0280
     42 H20       -32.0850    8.0710   23.0910 H       1  UNL1        0.0280
     43 C15       -31.3170   15.4040   24.8600 C.2     1  UNL1        0.2400
     44 O5        -30.7170   16.3940   25.1300 O.2     1  UNL1       -0.2710
     45 N5        -32.5600   15.0640   25.6090 N.am    1  UNL1       -0.3550
     46 H21       -33.0820   14.2290   25.3850 H       1  UNL1        0.1620
     47 C16       -33.0340   15.9570   26.6880 C.3     1  UNL1        0.0130
     48 H22       -32.1880   16.5610   27.0190 H       1  UNL1        0.0720
     49 C17       -33.5520   15.1220   27.8370 C.3     1  UNL1       -0.0380
     50 H23       -34.4890   15.5890   28.1420 H       1  UNL1        0.0360
     51 H24       -33.5470   14.0930   27.4780 H       1  UNL1        0.0360
     52 C18       -32.6250   15.1590   29.0710 C.3     1  UNL1        0.0180
     53 H25       -32.0440   16.0760   28.9770 H       1  UNL1        0.0480
     54 H26       -33.2750   15.0120   29.9340 H       1  UNL1        0.0480
     55 C19       -31.5900   14.0000   29.1120 C.2     1  UNL1        0.2590
     56 O6        -31.0180   13.6670   28.1260 O.2     1  UNL1       -0.2650
     57 O7        -31.3420   13.3310   30.3430 O.3     1  UNL1       -0.3170
     58 C20       -31.1100   11.9260   30.2050 C.3     1  UNL1        0.0520
     59 H27       -30.7190   11.7900   29.1970 H       1  UNL1        0.0820
     60 H28       -30.5080   11.6410   31.0670 H       1  UNL1        0.0820
     61 C21       -32.4800   11.2030   30.3020 C.ar    1  UNL1       -0.0340
     62 C22       -32.8780   10.3270   29.2980 C.ar    1  UNL1       -0.0750
     63 C23       -34.1080    9.6770   29.3850 C.ar    1  UNL1       -0.0820
     64 H29       -32.2270   10.1490   28.4420 H       1  UNL1        0.0840
     65 C24       -34.9430    9.9080   30.4810 C.ar    1  UNL1       -0.0830
     66 H30       -34.4170    8.9900   28.5960 H       1  UNL1        0.0830
     67 C25       -34.5430   10.7860   31.4800 C.ar    1  UNL1       -0.0820
     68 H31       -35.9070    9.4040   30.5580 H       1  UNL1        0.0830
     69 C26       -33.3140   11.4360   31.3980 C.ar    1  UNL1       -0.0750
     70 H32       -35.1980   10.9660   32.3330 H       1  UNL1        0.0830
     71 H33       -33.0060   12.1230   32.1870 H       1  UNL1        0.0840
     72 C27       -34.1530   16.8540   26.1630 C.3     1  UNL1       -0.0390
     73 H34       -34.3480   16.5100   25.1470 H       1  UNL1        0.0360
     74 H35       -34.9410   16.8040   26.9150 H       1  UNL1        0.0360
     75 C28       -33.6900   18.3840   26.0640 C.3     1  UNL1       -0.0010
     76 C29       -32.4910   18.6780   27.1510 C.3     1  UNL1       -0.0350
     77 C30       -32.8220   19.7700   27.8800 C.3     1  UNL1        0.0850
     78 H36       -32.4530   17.8790   27.8900 H       1  UNL1        0.0360
     79 H37       -31.5830   18.9840   26.6310 H       1  UNL1        0.0360
     80 N6        -34.2810   20.0530   27.6150 N.4     1  UNL1       -0.0490
     81 H38       -32.7010   19.4720   28.9220 H       1  UNL1        0.0750
     82 H39       -32.2230   20.5840   27.4740 H       1  UNL1        0.0750
     83 C31       -34.6710   19.1860   26.3100 C.3     1  UNL1        0.1930
     84 H40       -34.7920   19.6890   28.4070 H       1  UNL1        0.2800
     85 H41       -34.3440   21.0330   27.3810 H       1  UNL1        0.2800
     86 H42       -34.7820   19.6680   25.3390 H       1  UNL1        0.1290
     87 H43       -33.5140   18.6960   25.0340 H       1  UNL1        0.0460
     88 O8        -35.8970   18.4870   26.5320 O.3     1  UNL1       -0.3690
     89 H44       -36.2830   18.2420   25.6870 H       1  UNL1        0.2120
     90 C32       -31.4480   14.8830   22.4040 C.3     1  UNL1       -0.0350
     91 H45       -31.6410   13.9490   21.8760 H       1  UNL1        0.0370
     92 H46       -32.2770   15.5360   22.6770 H       1  UNL1        0.0370
     93 C33       -30.5080   15.7240   21.4830 C.3     1  UNL1       -0.0590
     94 H47       -30.7990   16.7700   21.5800 H       1  UNL1        0.0380
     95 C34       -29.0090   15.6040   21.9040 C.3     1  UNL1       -0.0730
     96 H48       -28.9120   15.8170   22.9680 H       1  UNL1        0.0280
     97 H49       -28.6540   14.5940   21.7030 H       1  UNL1        0.0280
     98 H50       -28.4130   16.3180   21.3350 H       1  UNL1        0.0280
     99 C35       -30.6930   15.3360   20.0130 C.3     1  UNL1       -0.0730
    100 H51       -30.9370   14.2750   19.9450 H       1  UNL1        0.0280
    101 H52       -31.5040   15.9230   19.5810 H       1  UNL1        0.0280
    102 H53       -29.7720   15.5330   19.4660 H       1  UNL1        0.0280
@<TRIPOS>BOND
     1   102    99    1
     2   101    99    1
     3   100    99    1
     4    99    93    1
     5    98    95    1
     6    41    39    1
     7    93    94    1
     8    93    95    1
     9    93    90    1
    10    34    33    1
    11    37    35    1
    12    97    95    1
    13    91    90    1
    14    95    96    1
    15    40    39    1
    16    39    33    1
    17    39    42    1
    18    90    92    1
    19    90     1    1
    20    33    35    1
    21    33     7    1
    22     5     4    2
    23    35    36    1
    24    35    38    1
    25    27    25    1
    26    12     9    1
    27     4     7    1
    28     4     3   am
    29     2     1    1
    30     7     9    1
    31     7     8    1
    32    28    25    1
    33    22    20    1
    34     1     3    1
    35     1    43    1
    36    25    26    1
    37    25    21    1
    38    32    29    1
    39     9    10   am
    40     3     6    1
    41    18    15    1
    42    20    21   ar
    43    20    19   ar
    44    43    44    2
    45    43    45   am
    46    21    23   ar
    47    30    29    1
    48    29    31    1
    49    29    13    1
    50    87    75    1
    51    73    72    1
    52    86    83    1
    53    10    13    1
    54    10    11    2
    55    46    45    1
    56    15    13    1
    57    15    16   am
    58    45    47    1
    59    89    88    1
    60    13    14    1
    61    19    16    1
    62    19    24   ar
    63    75    72    1
    64    75    83    1
    65    75    76    1
    66    72    47    1
    67    72    74    1
    68    23    24   ar
    69    83    88    1
    70    83    80    1
    71    16    17    2
    72    79    76    1
    73    47    48    1
    74    47    49    1
    75    76    77    1
    76    76    78    1
    77    85    80    1
    78    82    77    1
    79    51    49    1
    80    80    77    1
    81    80    84    1
    82    49    50    1
    83    49    52    1
    84    77    81    1
    85    56    55    2
    86    64    62    1
    87    66    63    1
    88    53    52    1
    89    52    55    1
    90    52    54    1
    91    55    57    1
    92    59    58    1
    93    62    63   ar
    94    62    61   ar
    95    63    65   ar
    96    58    61    1
    97    58    57    1
    98    58    60    1
    99    61    69   ar
   100    65    68    1
   101    65    67   ar
   102    69    67   ar
   103    69    71    1
   104    67    70    1
@<TRIPOS>MOLECULE
crystal_redock_e24_er3_1.pdbqt
 102 104 0 0 0
SMALL
GASTEIGER

@<TRIPOS>ATOM
      1 C         -31.1220   13.9270   24.1160 C.3     1  UNL1        0.0890
      2 H         -30.1250   13.8710   24.5550 H       1  UNL1        0.0870
      3 N         -31.6760   12.5810   24.1150 N.am    1  UNL1       -0.3460
      4 C         -31.5510   11.7040   25.3360 C.2     1  UNL1        0.2410
      5 O         -30.9990   12.1040   26.3070 O.2     1  UNL1       -0.2710
      6 H         -32.1400   12.2590   23.2770 H       1  UNL1        0.1630
      7 C         -32.1350   10.3160   25.3180 C.3     1  UNL1        0.0920
      8 H         -33.0330   10.3130   24.7010 H       1  UNL1        0.0880
      9 N         -31.1800    9.3920   24.6990 N.am    1  UNL1       -0.3460
     10 C         -31.2870    9.0800   23.2950 C.2     1  UNL1        0.2400
     11 O         -32.1350    9.5630   22.6490 O.2     1  UNL1       -0.2710
     12 H         -30.4440    8.9670   25.2440 H       1  UNL1        0.1630
     13 C         -30.2690    8.0930   22.6420 C.3     1  UNL1        0.0860
     14 H         -29.9620    7.2960   23.3180 H       1  UNL1        0.0860
     15 N         -30.9010    7.4510   21.5020 N.am    1  UNL1       -0.3430
     16 C         -31.6910    6.2350   21.7050 C.2     1  UNL1        0.2730
     17 O         -31.8100    5.7800   22.7900 O.2     1  UNL1       -0.2660
     18 H         -30.7920    7.8450   20.5780 H       1  UNL1        0.1630
     19 C         -32.3670    5.5460   20.5090 C.ar    1  UNL1        0.1540
     20 C         -32.3820    4.1460   20.2140 C.ar    1  UNL1       -0.0170
     21 C         -33.1280    4.0340   19.0190 C.ar    1  UNL1        0.0770
     22 H         -31.9220    3.3350   20.7790 H       1  UNL1        0.0910
     23 O         -33.4940    5.2350   18.6780 O.2     1  UNL1       -0.2180
     24 N         -33.0620    6.1340   19.5320 N.ar    1  UNL1       -0.1230
     25 C         -33.4450    2.7470   18.2710 C.3     1  UNL1       -0.0290
     26 H         -33.8590    2.0160   18.9640 H       1  UNL1        0.0360
     27 H         -34.1700    2.9530   17.4840 H       1  UNL1        0.0360
     28 H         -32.5320    2.3500   17.8270 H       1  UNL1        0.0360
     29 C         -29.0460    8.8520   22.1940 C.3     1  UNL1       -0.0490
     30 H         -29.0560    9.8500   22.6330 H       1  UNL1        0.0300
     31 H         -28.1510    8.3220   22.5190 H       1  UNL1        0.0300
     32 H         -29.0460    8.9330   21.1070 H       1  UNL1        0.0300
     33 C         -32.4250    9.8570   26.7770 C.3     1  UNL1       -0.0330
     34 H         -31.6400   10.2660   27.4130 H       1  UNL1        0.0420
     35 C         -33.7860   10.4220   27.2910 C.3     1  UNL1       -0.0710
     36 H         -34.1150   11.2280   26.6360 H       1  UNL1        0.0280
     37 H         -34.5320    9.6270   27.2920 H       1  UNL1        0.0280
     38 H         -33.6610   10.8050   28.3030 H       1  UNL1        0.0280
     39 C         -32.3780    8.3000   26.8930 C.3     1  UNL1       -0.0710
     40 H         -31.4200    7.9360   26.5200 H       1  UNL1        0.0280
     41 H         -32.4950    8.0090   27.9380 H       1  UNL1        0.0280
     42 H         -33.1860    7.8670   26.3040 H       1  UNL1        0.0280
     43 C         -32.0710   14.8510   24.9320 C.2     1  UNL1        0.2400
     44 O         -33.0520   15.2890   24.4220 O.2     1  UNL1       -0.2710
     45 N         -31.7620   15.1850   26.3510 N.am    1  UNL1       -0.3550
     46 H         -30.9350   14.8150   26.7970 H       1  UNL1        0.1620
     47 C         -32.6750   16.0640   27.1130 C.3     1  UNL1        0.0130
     48 H         -33.6850   15.9080   26.7340 H       1  UNL1        0.0720
     49 C         -32.2640   17.5050   26.9120 C.3     1  UNL1       -0.0380
     50 H         -31.1760   17.4950   26.8440 H       1  UNL1        0.0360
     51 H         -32.8600   17.8660   26.0730 H       1  UNL1        0.0360
     52 C         -32.6180   18.4030   28.1170 C.3     1  UNL1        0.0180
     53 H         -33.2260   17.7850   28.7770 H       1  UNL1        0.0480
     54 H         -31.6700   18.8100   28.4710 H       1  UNL1        0.0480
     55 C         -33.4990   19.6290   27.7480 C.2     1  UNL1        0.2590
     56 O         -33.1100   20.4390   26.9700 O.2     1  UNL1       -0.2650
     57 O         -34.7740   19.7810   28.3600 O.3     1  UNL1       -0.3170
     58 C         -35.8670   19.7820   27.4370 C.3     1  UNL1        0.0520
     59 H         -36.7520   20.0140   28.0290 H       1  UNL1        0.0820
     60 H         -35.5660   20.4430   26.6250 H       1  UNL1        0.0820
     61 C         -36.0160   18.3450   26.8710 C.ar    1  UNL1       -0.0340
     62 C         -36.1890   17.2690   27.7360 C.ar    1  UNL1       -0.0750
     63 C         -36.3230   15.9780   27.2280 C.ar    1  UNL1       -0.0820
     64 H         -36.2180   17.4370   28.8130 H       1  UNL1        0.0840
     65 C         -36.2820   15.7640   25.8470 C.ar    1  UNL1       -0.0830
     66 H         -36.4590   15.1380   27.9080 H       1  UNL1        0.0830
     67 C         -36.1070   16.8400   24.9880 C.ar    1  UNL1       -0.0820
     68 H         -36.3870   14.7580   25.4410 H       1  UNL1        0.0830
     69 C         -35.9740   18.1330   25.4910 C.ar    1  UNL1       -0.0750
     70 H         -36.0730   16.6700   23.9110 H       1  UNL1        0.0830
     71 H         -35.8380   18.9730   24.8100 H       1  UNL1        0.0840
     72 C         -32.6070   15.7170   28.5990 C.3     1  UNL1       -0.0390
     73 H         -32.2330   16.6150   29.0900 H       1  UNL1        0.0360
     74 H         -33.5930   15.3280   28.8520 H       1  UNL1        0.0360
     75 C         -31.5500   14.5470   28.8860 C.3     1  UNL1       -0.0010
     76 C         -32.3440   13.1500   29.2360 C.3     1  UNL1       -0.0350
     77 C         -31.8490   12.6440   30.3910 C.3     1  UNL1        0.0850
     78 H         -33.3850   13.3610   29.4750 H       1  UNL1        0.0360
     79 H         -32.0980   12.3860   28.4980 H       1  UNL1        0.0360
     80 N         -31.0220   13.7330   31.0310 N.4     1  UNL1       -0.0490
     81 H         -32.7190   12.4440   31.0170 H       1  UNL1        0.0750
     82 H         -31.1920   11.8280   30.0940 H       1  UNL1        0.0750
     83 C         -30.7840   14.8430   29.8820 C.3     1  UNL1        0.1930
     84 H         -31.5950   14.1390   31.7560 H       1  UNL1        0.2800
     85 H         -30.1320   13.3160   31.2640 H       1  UNL1        0.2800
     86 H         -29.8220   14.9190   29.3770 H       1  UNL1        0.1290
     87 H         -30.7710   14.4980   28.1250 H       1  UNL1        0.0460
     88 O         -31.0500   16.1490   30.3970 O.3     1  UNL1       -0.3690
     89 H         -31.8520   16.4940   29.9960 H       1  UNL1        0.2120
     90 C         -31.0280   14.4260   22.6840 C.3     1  UNL1       -0.0350
     91 H         -30.7950   13.5460   22.0860 H       1  UNL1        0.0370
     92 H         -31.9540   14.9750   22.5080 H       1  UNL1        0.0370
     93 C         -29.8630   15.4400   22.4490 C.3     1  UNL1       -0.0590
     94 H         -30.0200   16.2850   23.1180 H       1  UNL1        0.0380
     95 C         -28.4680   14.8210   22.7820 C.3     1  UNL1       -0.0730
     96 H         -27.8870   15.5300   23.3710 H       1  UNL1        0.0280
     97 H         -28.6040   13.9030   23.3530 H       1  UNL1        0.0280
     98 H         -27.9380   14.5980   21.8560 H       1  UNL1        0.0280
     99 C         -29.8900   15.9820   21.0170 C.3     1  UNL1       -0.0730
    100 H         -29.1160   15.4900   20.4280 H       1  UNL1        0.0280
    101 H         -30.8660   15.7850   20.5720 H       1  UNL1        0.0280
    102 H         -29.7090   17.0560   21.0320 H       1  UNL1        0.0280
@<TRIPOS>BOND
     1    27    25    1
     2    28    25    1
     3    25    26    1
     4    25    21    1
     5    23    21   ar
     6    23    24   ar
     7    21    20   ar
     8    24    19   ar
     9    20    19   ar
    10    20    22    1
    11   100    99    1
    12    19    16    1
    13   101    99    1
    14    18    15    1
    15    99   102    1
    16    99    93    1
    17    32    29    1
    18    15    16   am
    19    15    13    1
    20    16    17    2
    21    98    95    1
    22    91    90    1
    23    29    31    1
    24    29    30    1
    25    29    13    1
    26    93    90    1
    27    93    95    1
    28    93    94    1
    29    92    90    1
    30    13    10    1
    31    13    14    1
    32    11    10    2
    33    90     1    1
    34    95    97    1
    35    95    96    1
    36     6     3    1
    37    10     9   am
    38    70    67    1
    39     3     1    1
    40     3     4   am
    41     1     2    1
    42     1    43    1
    43    44    43    2
    44     9    12    1
    45     9     7    1
    46     8     7    1
    47    71    69    1
    48    43    45   am
    49    67    69   ar
    50    67    65   ar
    51     7     4    1
    52     7    33    1
    53     4     5    2
    54    68    65    1
    55    69    61   ar
    56    65    63   ar
    57    51    49    1
    58    42    39    1
    59    45    46    1
    60    45    47    1
    61    40    39    1
    62    60    58    1
    63    36    35    1
    64    48    47    1
    65    33    39    1
    66    33    35    1
    67    33    34    1
    68    50    49    1
    69    61    58    1
    70    61    62   ar
    71    39    41    1
    72    49    47    1
    73    49    52    1
    74    56    55    2
    75    47    72    1
    76    63    62   ar
    77    63    66    1
    78    35    37    1
    79    35    38    1
    80    58    59    1
    81    58    57    1
    82    62    64    1
    83    55    52    1
    84    55    57    1
    85    52    54    1
    86    52    53    1
    87    87    75    1
    88    79    76    1
    89    72    74    1
    90    72    75    1
    91    72    73    1
    92    75    76    1
    93    75    83    1
    94    76    78    1
    95    76    77    1
    96    86    83    1
    97    83    88    1
    98    83    80    1
    99    89    88    1
   100    82    77    1
   101    77    81    1
   102    77    80    1
   103    80    85    1
   104    80    84    1
@<TRIPOS>MOLECULE
crystal_redock_e24_er3_1.pdbqt
 102 104 0 0 0
SMALL
GASTEIGER

@<TRIPOS>ATOM
      1 C         -31.1070   14.1600   24.3600 C.3     1  UNL1        0.0890
      2 H         -30.1140   13.7670   24.5810 H       1  UNL1        0.0870
      3 N         -32.0610   13.0820   24.5710 N.am    1  UNL1       -0.3460
      4 C         -31.8660   12.1030   25.7010 C.2     1  UNL1        0.2410
      5 O         -30.9320   12.2010   26.4260 O.2     1  UNL1       -0.2710
      6 H         -32.8490   13.0140   23.9420 H       1  UNL1        0.1630
      7 C         -32.8670   10.9960   25.9090 C.3     1  UNL1        0.0920
      8 H         -33.0230   10.8500   26.9780 H       1  UNL1        0.0880
      9 N         -34.1570   11.3890   25.3320 N.am    1  UNL1       -0.3460
     10 C         -35.1740   11.9720   26.1720 C.2     1  UNL1        0.2400
     11 O         -34.9720   12.1320   27.3140 O.2     1  UNL1       -0.2710
     12 H         -34.3460   11.2560   24.3490 H       1  UNL1        0.1630
     13 C         -36.5450   12.3850   25.5530 C.3     1  UNL1        0.0860
     14 H         -37.3890   12.1470   26.2010 H       1  UNL1        0.0860
     15 N         -36.5620   13.8260   25.3620 N.am    1  UNL1       -0.3430
     16 C         -37.5170   14.6430   26.1130 C.2     1  UNL1        0.2730
     17 O         -38.2710   14.1310   26.8660 O.2     1  UNL1       -0.2660
     18 H         -35.9160   14.2550   24.7140 H       1  UNL1        0.1630
     19 C         -37.5440   16.1670   25.9210 C.ar    1  UNL1        0.1540
     20 C         -37.1550   16.8990   24.7550 C.ar    1  UNL1       -0.0170
     21 C         -37.3690   18.2550   25.0890 C.ar    1  UNL1        0.0770
     22 H         -36.7760   16.5070   23.8110 H       1  UNL1        0.0910
     23 O         -37.8280   18.2870   26.3050 O.2     1  UNL1       -0.2180
     24 N         -37.9390   17.0810   26.8120 N.ar    1  UNL1       -0.1230
     25 C         -37.1090   19.4570   24.1900 C.3     1  UNL1       -0.0290
     26 H         -36.2530   19.2520   23.5470 H       1  UNL1        0.0360
     27 H         -37.9880   19.6450   23.5740 H       1  UNL1        0.0360
     28 H         -36.9020   20.3330   24.8040 H       1  UNL1        0.0360
     29 C         -36.7340   11.6860   24.2310 C.3     1  UNL1       -0.0490
     30 H         -36.0650   10.8270   24.1760 H       1  UNL1        0.0300
     31 H         -37.7660   11.3490   24.1430 H       1  UNL1        0.0300
     32 H         -36.5060   12.3770   23.4190 H       1  UNL1        0.0300
     33 C         -32.3620    9.7010   25.2090 C.3     1  UNL1       -0.0330
     34 H         -31.2820    9.7930   25.0870 H       1  UNL1        0.0420
     35 C         -32.6290    8.4390   26.0860 C.3     1  UNL1       -0.0710
     36 H         -31.7290    7.8260   26.1250 H       1  UNL1        0.0280
     37 H         -32.9020    8.7490   27.0950 H       1  UNL1        0.0280
     38 H         -33.4440    7.8600   25.6510 H       1  UNL1        0.0280
     39 C         -32.9960    9.5490   23.7890 C.3     1  UNL1       -0.0710
     40 H         -33.7740    8.7860   23.8190 H       1  UNL1        0.0280
     41 H         -33.4320   10.5010   23.4810 H       1  UNL1        0.0280
     42 H         -32.2260    9.2560   23.0760 H       1  UNL1        0.0280
     43 C         -31.4890   15.3490   25.2870 C.2     1  UNL1        0.2400
     44 O         -31.0760   16.4380   25.0520 O.2     1  UNL1       -0.2710
     45 N         -32.3770   15.1310   26.4640 N.am    1  UNL1       -0.3550
     46 H         -32.7380   14.2110   26.6710 H       1  UNL1        0.1620
     47 C         -32.7320   16.2720   27.3350 C.3     1  UNL1        0.0130
     48 H         -31.9690   17.0400   27.2100 H       1  UNL1        0.0720
     49 C         -32.7680   15.8100   28.7740 C.3     1  UNL1       -0.0380
     50 H         -31.8870   16.2450   29.2460 H       1  UNL1        0.0360
     51 H         -33.7640   16.0630   29.1400 H       1  UNL1        0.0360
     52 C         -32.6280   14.2790   28.9160 C.3     1  UNL1        0.0180
     53 H         -33.4570   13.9630   29.5470 H       1  UNL1        0.0480
     54 H         -32.5400   13.8950   27.8990 H       1  UNL1        0.0480
     55 C         -31.3350   13.8340   29.6540 C.2     1  UNL1        0.2590
     56 O         -30.6440   14.6350   30.1960 O.2     1  UNL1       -0.2650
     57 O         -30.9770   12.4570   29.6660 O.3     1  UNL1       -0.3170
     58 C         -31.3220   11.7760   30.8750 C.3     1  UNL1        0.0520
     59 H         -30.5410   11.0320   31.0280 H       1  UNL1        0.0820
     60 H         -31.4830   12.5570   31.6180 H       1  UNL1        0.0820
     61 C         -32.6660   11.0360   30.6410 C.ar    1  UNL1       -0.0340
     62 C         -33.7030   11.1680   31.5600 C.ar    1  UNL1       -0.0750
     63 C         -34.9100   10.5030   31.3500 C.ar    1  UNL1       -0.0820
     64 H         -33.5700   11.7910   32.4440 H       1  UNL1        0.0840
     65 C         -35.0780    9.7020   30.2170 C.ar    1  UNL1       -0.0830
     66 H         -35.7210   10.6100   32.0710 H       1  UNL1        0.0830
     67 C         -34.0400    9.5710   29.3050 C.ar    1  UNL1       -0.0820
     68 H         -36.0190    9.1790   30.0450 H       1  UNL1        0.0830
     69 C         -32.8320   10.2350   29.5100 C.ar    1  UNL1       -0.0750
     70 H         -34.1730    8.9430   28.4240 H       1  UNL1        0.0830
     71 H         -32.0210   10.1280   28.7880 H       1  UNL1        0.0840
     72 C         -34.1030   16.8170   26.9400 C.3     1  UNL1       -0.0390
     73 H         -34.3380   16.3460   25.9850 H       1  UNL1        0.0360
     74 H         -34.7450   16.6440   27.8040 H       1  UNL1        0.0360
     75 C         -34.0630   18.3980   26.6900 C.3     1  UNL1       -0.0010
     76 C         -32.5230   18.9520   26.8510 C.3     1  UNL1       -0.0350
     77 C         -32.5240   20.0010   27.7080 C.3     1  UNL1        0.0850
     78 H         -31.9100   18.2080   27.3590 H       1  UNL1        0.0360
     79 H         -32.1830   19.3900   25.9120 H       1  UNL1        0.0360
     80 N         -33.8670   20.0070   28.3980 N.4     1  UNL1       -0.0490
     81 H         -31.7480   19.7780   28.4410 H       1  UNL1        0.0750
     82 H         -32.4430   20.8890   27.0820 H       1  UNL1        0.0750
     83 C         -34.8130   19.0240   27.5350 C.3     1  UNL1        0.1930
     84 H         -33.7220   19.5960   29.3090 H       1  UNL1        0.2800
     85 H         -34.2240   20.9490   28.3190 H       1  UNL1        0.2800
     86 H         -35.5700   19.4320   26.8640 H       1  UNL1        0.1290
     87 H         -34.6030   18.6880   25.7880 H       1  UNL1        0.0460
     88 O         -35.5140   18.1290   28.4010 O.3     1  UNL1       -0.3690
     89 H         -35.0180   17.3110   28.4840 H       1  UNL1        0.2120
     90 C         -31.1730   14.6030   22.9070 C.3     1  UNL1       -0.0350
     91 H         -31.3150   13.6880   22.3320 H       1  UNL1        0.0370
     92 H         -31.9290   15.3880   22.8790 H       1  UNL1        0.0370
     93 C         -29.8480   15.2470   22.3880 C.3     1  UNL1       -0.0590
     94 H         -29.5740   16.0430   23.0800 H       1  UNL1        0.0380
     95 C         -28.6700   14.2220   22.3490 C.3     1  UNL1       -0.0730
     96 H         -28.5620   13.8300   21.3380 H       1  UNL1        0.0280
     97 H         -27.7460   14.7190   22.6450 H       1  UNL1        0.0280
     98 H         -28.8780   13.4030   23.0360 H       1  UNL1        0.0280
     99 C         -30.0550   15.8910   21.0140 C.3     1  UNL1       -0.0730
    100 H         -30.9890   15.5320   20.5810 H       1  UNL1        0.0280
    101 H         -30.0990   16.9750   21.1240 H       1  UNL1        0.0280
    102 H         -29.2250   15.6260   20.3600 H       1  UNL1        0.0280
@<TRIPOS>BOND
     1   102    99    1
     2   100    99    1
     3    99   101    1
     4    99    93    1
     5    96    95    1
     6    91    90    1
     7    95    93    1
     8    95    97    1
     9    95    98    1
    10    93    90    1
    11    93    94    1
    12    92    90    1
    13    90     1    1
    14    42    39    1
    15    32    29    1
    16    41    39    1
    17    26    25    1
    18    27    25    1
    19    39    40    1
    20    39    33    1
    21    22    20    1
    22     6     3    1
    23    31    29    1
    24    30    29    1
    25    25    28    1
    26    25    21    1
    27    29    13    1
    28    12     9    1
    29     1     3    1
    30     1     2    1
    31     1    43    1
    32     3     4   am
    33    18    15    1
    34    20    21   ar
    35    20    19   ar
    36    44    43    2
    37    34    33    1
    38    21    23   ar
    39    33     7    1
    40    33    35    1
    41    43    45   am
    42     9     7    1
    43     9    10   am
    44    15    13    1
    45    15    16   am
    46    13    10    1
    47    13    14    1
    48    38    35    1
    49     4     7    1
    50     4     5    2
    51    87    75    1
    52     7     8    1
    53    79    76    1
    54    19    16    1
    55    19    24   ar
    56    73    72    1
    57    35    36    1
    58    35    37    1
    59    16    17    2
    60    10    11    2
    61    23    24   ar
    62    45    46    1
    63    45    47    1
    64    75    76    1
    65    75    72    1
    66    75    83    1
    67    76    78    1
    68    76    77    1
    69    86    83    1
    70    72    47    1
    71    72    74    1
    72    82    77    1
    73    48    47    1
    74    47    49    1
    75    83    80    1
    76    83    88    1
    77    77    80    1
    78    77    81    1
    79    54    52    1
    80    85    80    1
    81    80    84    1
    82    88    89    1
    83    70    67    1
    84    49    52    1
    85    49    51    1
    86    49    50    1
    87    71    69    1
    88    52    53    1
    89    52    55    1
    90    67    69   ar
    91    67    65   ar
    92    69    61   ar
    93    55    57    1
    94    55    56    2
    95    57    58    1
    96    68    65    1
    97    65    63   ar
    98    61    58    1
    99    61    62   ar
   100    58    59    1
   101    58    60    1
   102    63    62   ar
   103    63    66    1
   104    62    64    1
@<TRIPOS>MOLECULE
crystal_redock_e24_er3_1.pdbqt
 102 104 0 0 0
SMALL
GASTEIGER

@<TRIPOS>ATOM
      1 C         -32.9830   10.2480   25.4330 C.3     1  UNL1        0.0890
      2 H         -33.6560   10.3270   24.5790 H       1  UNL1        0.0870
      3 N         -32.4150    8.9080   25.4210 N.am    1  UNL1       -0.3460
      4 C         -33.1770    7.7630   24.8030 C.2     1  UNL1        0.2410
      5 O         -34.2480    7.9440   24.3240 O.2     1  UNL1       -0.2710
      6 H         -31.5040    8.7750   25.8360 H       1  UNL1        0.1630
      7 C         -32.5720    6.3840   24.7950 C.3     1  UNL1        0.0920
      8 H         -31.5040    6.4600   25.0000 H       1  UNL1        0.0880
      9 N         -33.1650    5.5830   25.8700 N.am    1  UNL1       -0.3460
     10 C         -32.7000    5.7410   27.2260 C.2     1  UNL1        0.2400
     11 O         -31.8490    6.5070   27.4700 O.2     1  UNL1       -0.2710
     12 H         -33.8980    4.9170   25.6750 H       1  UNL1        0.1630
     13 C         -33.3320    4.8840   28.3660 C.3     1  UNL1        0.0860
     14 H         -32.6930    4.8140   29.2460 H       1  UNL1        0.0860
     15 N         -34.5690    5.5130   28.7990 N.am    1  UNL1       -0.3430
     16 C         -34.9140    5.5220   30.2220 C.2     1  UNL1        0.2730
     17 O         -34.1920    5.0180   31.0100 O.2     1  UNL1       -0.2660
     18 H         -35.1820    5.9390   28.1180 H       1  UNL1        0.1630
     19 C         -36.2170    6.1860   30.6940 C.ar    1  UNL1        0.1540
     20 C         -36.5130    7.5850   30.7240 C.ar    1  UNL1       -0.0170
     21 C         -37.8280    7.6680   31.2360 C.ar    1  UNL1        0.0770
     22 H         -35.8730    8.4140   30.4210 H       1  UNL1        0.0910
     23 O         -38.2300    6.4530   31.4670 O.2     1  UNL1       -0.2180
     24 N         -37.3080    5.5700   31.1590 N.ar    1  UNL1       -0.1230
     25 C         -38.6250    8.9440   31.4710 C.3     1  UNL1       -0.0290
     26 H         -38.0340    9.8050   31.1600 H       1  UNL1        0.0360
     27 H         -39.5470    8.9080   30.8900 H       1  UNL1        0.0360
     28 H         -38.8660    9.0320   32.5300 H       1  UNL1        0.0360
     29 C         -33.6120    3.4930   27.8560 C.3     1  UNL1       -0.0490
     30 H         -34.3150    2.9950   28.5240 H       1  UNL1        0.0300
     31 H         -34.0410    3.5520   26.8560 H       1  UNL1        0.0300
     32 H         -32.6820    2.9250   27.8190 H       1  UNL1        0.0300
     33 C         -32.8570    5.7010   23.4250 C.3     1  UNL1       -0.0330
     34 H         -33.7360    6.1810   22.9950 H       1  UNL1        0.0420
     35 C         -31.6750    5.9090   22.4290 C.3     1  UNL1       -0.0710
     36 H         -31.9010    5.4090   21.4870 H       1  UNL1        0.0280
     37 H         -31.5340    6.9750   22.2500 H       1  UNL1        0.0280
     38 H         -30.7630    5.4880   22.8530 H       1  UNL1        0.0280
     39 C         -33.1790    4.1840   23.6130 C.3     1  UNL1       -0.0710
     40 H         -34.1130    3.9450   23.1050 H       1  UNL1        0.0280
     41 H         -32.3710    3.5860   23.1900 H       1  UNL1        0.0280
     42 H         -33.2760    3.9620   24.6760 H       1  UNL1        0.0280
     43 C         -31.8200   11.2790   25.3610 C.2     1  UNL1        0.2400
     44 O         -30.7530   10.9980   25.8010 O.2     1  UNL1       -0.2710
     45 N         -32.0360   12.6160   24.7370 N.am    1  UNL1       -0.3550
     46 H         -32.9380   12.8640   24.3560 H       1  UNL1        0.1620
     47 C         -30.9210   13.5840   24.6750 C.3     1  UNL1        0.0130
     48 H         -30.1070   13.1980   25.2880 H       1  UNL1        0.0720
     49 C         -31.3860   14.9180   25.2150 C.3     1  UNL1       -0.0380
     50 H         -30.6050   15.6310   24.9520 H       1  UNL1        0.0360
     51 H         -32.3990   15.0520   24.8330 H       1  UNL1        0.0360
     52 C         -31.4940   14.9360   26.7550 C.3     1  UNL1        0.0180
     53 H         -30.9400   14.0640   27.1000 H       1  UNL1        0.0480
     54 H         -31.1830   15.9350   27.0610 H       1  UNL1        0.0480
     55 C         -32.9440   14.7580   27.2840 C.2     1  UNL1        0.2590
     56 O         -33.6840   13.9860   26.7660 O.2     1  UNL1       -0.2650
     57 O         -33.3840   15.5390   28.3880 O.3     1  UNL1       -0.3170
     58 C         -34.4810   16.4060   28.0890 C.3     1  UNL1        0.0520
     59 H         -35.0950   15.8670   27.3670 H       1  UNL1        0.0820
     60 H         -34.9000   16.6950   29.0520 H       1  UNL1        0.0820
     61 C         -33.9130   17.6760   27.3990 C.ar    1  UNL1       -0.0340
     62 C         -34.3910   18.0630   26.1510 C.ar    1  UNL1       -0.0750
     63 C         -33.8810   19.2030   25.5320 C.ar    1  UNL1       -0.0820
     64 H         -35.1640   17.4740   25.6580 H       1  UNL1        0.0840
     65 C         -32.8880   19.9560   26.1640 C.ar    1  UNL1       -0.0830
     66 H         -34.2590   19.5060   24.5550 H       1  UNL1        0.0830
     67 C         -32.4120   19.5630   27.4080 C.ar    1  UNL1       -0.0820
     68 H         -32.4840   20.8490   25.6870 H       1  UNL1        0.0830
     69 C         -32.9200   18.4260   28.0320 C.ar    1  UNL1       -0.0750
     70 H         -31.6350   20.1510   27.8980 H       1  UNL1        0.0830
     71 H         -32.5420   18.1240   29.0090 H       1  UNL1        0.0840
     72 C         -30.4620   13.7520   23.2280 C.3     1  UNL1       -0.0390
     73 H         -29.5010   13.2410   23.1670 H       1  UNL1        0.0360
     74 H         -31.2980   13.4130   22.6170 H       1  UNL1        0.0360
     75 C         -30.2030   15.2900   22.8630 C.3     1  UNL1       -0.0010
     76 C         -31.2810   15.7850   21.7240 C.3     1  UNL1       -0.0350
     77 C         -30.6030   16.3690   20.7060 C.3     1  UNL1        0.0850
     78 H         -31.7510   14.9210   21.2540 H       1  UNL1        0.0360
     79 H         -31.8960   16.5940   22.1170 H       1  UNL1        0.0360
     80 N         -29.1450   16.0270   20.8930 N.4     1  UNL1       -0.0490
     81 H         -30.9680   15.8870   19.7990 H       1  UNL1        0.0750
     82 H         -30.7370   17.4410   20.8460 H       1  UNL1        0.0750
     83 C         -29.0100   15.4670   22.4010 C.3     1  UNL1        0.1930
     84 H         -28.9430   15.2740   20.2510 H       1  UNL1        0.2800
     85 H         -28.6370   16.8980   20.8260 H       1  UNL1        0.2800
     86 H         -28.5830   16.0900   23.1870 H       1  UNL1        0.1290
     87 H         -30.0990   15.9140   23.7510 H       1  UNL1        0.0460
     88 O         -28.2440   14.2610   22.4120 O.3     1  UNL1       -0.3690
     89 H         -27.7970   14.1730   23.2580 H       1  UNL1        0.2120
     90 C         -33.7620   10.4450   26.7230 C.3     1  UNL1       -0.0350
     91 H         -33.9170   11.5200   26.8050 H       1  UNL1        0.0370
     92 H         -34.6190    9.7750   26.6480 H       1  UNL1        0.0370
     93 C         -32.9760   10.0150   28.0020 C.3     1  UNL1       -0.0590
     94 H         -32.0710    9.5010   27.6770 H       1  UNL1        0.0380
     95 C         -32.5420   11.2410   28.8680 C.3     1  UNL1       -0.0730
     96 H         -32.7250   11.0260   29.9200 H       1  UNL1        0.0280
     97 H         -31.4810   11.4360   28.7160 H       1  UNL1        0.0280
     98 H         -33.1180   12.1170   28.5710 H       1  UNL1        0.0280
     99 C         -33.7890    9.0210   28.8350 C.3     1  UNL1       -0.0730
    100 H         -33.1170    8.4500   29.4780 H       1  UNL1        0.0280
    101 H         -34.5070    9.5630   29.4510 H       1  UNL1        0.0280
    102 H         -34.3210    8.3400   28.1710 H       1  UNL1        0.0280
@<TRIPOS>BOND
     1    81    77    1
     2    84    80    1
     3    77    82    1
     4    77    80    1
     5    77    76    1
     6    85    80    1
     7    80    83    1
     8    78    76    1
     9    36    35    1
    10    76    79    1
    11    76    75    1
    12    37    35    1
    13    83    88    1
    14    83    75    1
    15    83    86    1
    16    88    89    1
    17    35    38    1
    18    35    33    1
    19    74    72    1
    20    75    72    1
    21    75    87    1
    22    34    33    1
    23    40    39    1
    24    73    72    1
    25    41    39    1
    26    72    47    1
    27    33    39    1
    28    33     7    1
    29    39    42    1
    30     5     4    2
    31    46    45    1
    32    66    63    1
    33     2     1    1
    34    47    45    1
    35    47    49    1
    36    47    48    1
    37    45    43   am
    38     7     4    1
    39     7     8    1
    40     7     9    1
    41     4     3   am
    42    51    49    1
    43    50    49    1
    44    49    52    1
    45    43     1    1
    46    43    44    2
    47     3     1    1
    48     3     6    1
    49     1    90    1
    50    63    62   ar
    51    63    65   ar
    52    64    62    1
    53    12     9    1
    54    68    65    1
    55     9    10   am
    56    62    61   ar
    57    65    67   ar
    58    92    90    1
    59    90    91    1
    60    90    93    1
    61    52    54    1
    62    52    53    1
    63    52    55    1
    64    56    55    2
    65    31    29    1
    66    10    11    2
    67    10    13    1
    68    55    57    1
    69    59    58    1
    70    61    69   ar
    71    61    58    1
    72    67    70    1
    73    67    69   ar
    74    94    93    1
    75    32    29    1
    76    29    13    1
    77    29    30    1
    78    93    99    1
    79    93    95    1
    80    69    71    1
    81    58    57    1
    82    58    60    1
    83    18    15    1
    84   102    99    1
    85    13    15    1
    86    13    14    1
    87    98    95    1
    88    97    95    1
    89    15    16   am
    90    99   101    1
    91    99   100    1
    92    95    96    1
    93    16    19    1
    94    16    17    2
    95    22    20    1
    96    19    20   ar
    97    19    24   ar
    98    20    21   ar
    99    27    25    1
   100    24    23   ar
   101    26    25    1
   102    21    23   ar
   103    21    25    1
   104    25    28    1
@<TRIPOS>MOLECULE
crystal_redock_e24_er3_1.pdbqt
 102 104 0 0 0
SMALL
GASTEIGER

@<TRIPOS>ATOM
      1 C         -31.1180   13.6550   24.7080 C.3     1  UNL1        0.0890
      2 H         -30.0960   13.6300   25.0890 H       1  UNL1        0.0870
      3 N         -31.4550   12.3100   24.2690 N.am    1  UNL1       -0.3460
      4 C         -31.3450   11.1470   25.2240 C.2     1  UNL1        0.2410
      5 O         -30.9780   11.3200   26.3390 O.2     1  UNL1       -0.2710
      6 H         -31.7630   12.1840   23.3150 H       1  UNL1        0.1630
      7 C         -31.7040    9.7620   24.7550 C.3     1  UNL1        0.0920
      8 H         -30.9540    9.0570   25.1130 H       1  UNL1        0.0880
      9 N         -32.9880    9.3640   25.3420 N.am    1  UNL1       -0.3460
     10 C         -33.0150    8.5170   26.5080 C.2     1  UNL1        0.2400
     11 O         -32.0130    8.1450   26.9870 O.2     1  UNL1       -0.2710
     12 H         -33.8590    9.6760   24.9390 H       1  UNL1        0.1630
     13 C         -34.3840    8.0950   27.1260 C.3     1  UNL1        0.0860
     14 H         -34.9120    7.3600   26.5190 H       1  UNL1        0.0860
     15 N         -34.1460    7.4720   28.4180 N.am    1  UNL1       -0.3430
     16 C         -34.5560    6.0830   28.6360 C.2     1  UNL1        0.2730
     17 O         -35.0800    5.4770   27.7670 O.2     1  UNL1       -0.2660
     18 H         -33.7000    7.9990   29.1560 H       1  UNL1        0.1630
     19 C         -34.3100    5.4120   29.9960 C.ar    1  UNL1        0.1540
     20 C         -33.3140    4.4330   30.3090 C.ar    1  UNL1       -0.0170
     21 C         -33.5060    4.1450   31.6790 C.ar    1  UNL1        0.0770
     22 H         -32.5660    4.0000   29.6450 H       1  UNL1        0.0910
     23 O         -34.4970    4.8770   32.0940 O.2     1  UNL1       -0.2180
     24 N         -34.9830    5.6250   31.1300 N.ar    1  UNL1       -0.1230
     25 C         -32.7000    3.1580   32.5140 C.3     1  UNL1       -0.0290
     26 H         -31.8300    2.8280   31.9470 H       1  UNL1        0.0360
     27 H         -32.3720    3.6440   33.4330 H       1  UNL1        0.0360
     28 H         -33.3210    2.2970   32.7600 H       1  UNL1        0.0360
     29 C         -35.2590    9.3110   27.2930 C.3     1  UNL1       -0.0490
     30 H         -36.3040    9.0270   27.1620 H       1  UNL1        0.0300
     31 H         -35.1180    9.7260   28.2900 H       1  UNL1        0.0300
     32 H         -34.9900   10.0580   26.5460 H       1  UNL1        0.0300
     33 C         -31.8220    9.7540   23.2030 C.3     1  UNL1       -0.0330
     34 H         -32.0660   10.7680   22.8860 H       1  UNL1        0.0420
     35 C         -30.4670    9.3670   22.5320 C.3     1  UNL1       -0.0710
     36 H         -29.6550    9.9150   23.0100 H       1  UNL1        0.0280
     37 H         -30.2990    8.2970   22.6430 H       1  UNL1        0.0280
     38 H         -30.5010    9.6220   21.4720 H       1  UNL1        0.0280
     39 C         -32.9760    8.8100   22.7340 C.3     1  UNL1       -0.0710
     40 H         -32.7180    8.3730   21.7690 H       1  UNL1        0.0280
     41 H         -33.1160    8.0160   23.4680 H       1  UNL1        0.0280
     42 H         -33.8980    9.3830   22.6400 H       1  UNL1        0.0280
     43 C         -32.1400   14.0940   25.7950 C.2     1  UNL1        0.2400
     44 O         -33.2970   14.1450   25.5320 O.2     1  UNL1       -0.2710
     45 N         -31.6750   14.4410   27.1690 N.am    1  UNL1       -0.3550
     46 H         -30.6950   14.3970   27.4060 H       1  UNL1        0.1620
     47 C         -32.6600   14.8540   28.1920 C.3     1  UNL1        0.0130
     48 H         -33.6440   14.5180   27.8660 H       1  UNL1        0.0720
     49 C         -32.6440   16.3610   28.3210 C.3     1  UNL1       -0.0380
     50 H         -32.9640   16.5730   29.3410 H       1  UNL1        0.0360
     51 H         -31.6570   16.6750   27.9820 H       1  UNL1        0.0360
     52 C         -33.6650   17.0520   27.3910 C.3     1  UNL1        0.0180
     53 H         -34.2830   16.2520   26.9850 H       1  UNL1        0.0480
     54 H         -34.1200   17.8430   27.9880 H       1  UNL1        0.0480
     55 C         -33.0190   17.7570   26.1660 C.2     1  UNL1        0.2590
     56 O         -32.0090   17.3450   25.6960 O.2     1  UNL1       -0.2650
     57 O         -33.6430   18.9130   25.6180 O.3     1  UNL1       -0.3170
     58 C         -34.0480   19.8750   26.5970 C.3     1  UNL1        0.0520
     59 H         -33.9430   19.3770   27.5610 H       1  UNL1        0.0820
     60 H         -33.4720   20.7740   26.3820 H       1  UNL1        0.0820
     61 C         -35.5510   20.1880   26.3670 C.ar    1  UNL1       -0.0340
     62 C         -36.2770   20.8670   27.3390 C.ar    1  UNL1       -0.0750
     63 C         -37.6270   21.1480   27.1330 C.ar    1  UNL1       -0.0820
     64 H         -35.7900   21.1790   28.2630 H       1  UNL1        0.0840
     65 C         -38.2510   20.7440   25.9490 C.ar    1  UNL1       -0.0830
     66 H         -38.1930   21.6830   27.8960 H       1  UNL1        0.0830
     67 C         -37.5230   20.0630   24.9830 C.ar    1  UNL1       -0.0820
     68 H         -39.3060   20.9610   25.7800 H       1  UNL1        0.0830
     69 C         -36.1730   19.7820   25.1840 C.ar    1  UNL1       -0.0750
     70 H         -38.0130   19.7480   24.0620 H       1  UNL1        0.0830
     71 H         -35.6070   19.2480   24.4210 H       1  UNL1        0.0840
     72 C         -32.3030   14.2240   29.5370 C.3     1  UNL1       -0.0390
     73 H         -31.4810   14.8240   29.9290 H       1  UNL1        0.0360
     74 H         -33.2420   14.1610   30.0860 H       1  UNL1        0.0360
     75 C         -31.7550   12.7290   29.3630 C.3     1  UNL1       -0.0010
     76 C         -33.0150   11.6910   29.1590 C.3     1  UNL1       -0.0350
     77 C         -32.8860   10.6700   30.0390 C.3     1  UNL1        0.0850
     78 H         -33.9460   12.1710   29.4590 H       1  UNL1        0.0360
     79 H         -32.9420   11.2010   28.1880 H       1  UNL1        0.0360
     80 N         -31.8380   11.0820   31.0440 N.4     1  UNL1       -0.0490
     81 H         -33.8510   10.5960   30.5410 H       1  UNL1        0.0750
     82 H         -32.5090    9.8300   29.4570 H       1  UNL1        0.0750
     83 C         -31.0810   12.3540   30.3990 C.3     1  UNL1        0.1930
     84 H         -32.3350   11.3870   31.8680 H       1  UNL1        0.2800
     85 H         -31.1830   10.3150   31.1040 H       1  UNL1        0.2800
     86 H         -30.0890   12.2450   29.9610 H       1  UNL1        0.1290
     87 H         -30.9410   12.6680   28.6410 H       1  UNL1        0.0460
     88 O         -30.9580   13.3970   31.3680 O.3     1  UNL1       -0.3690
     89 H         -30.4320   13.0870   32.1080 H       1  UNL1        0.2120
     90 C         -31.2000   14.6000   23.5190 C.3     1  UNL1       -0.0350
     91 H         -32.1740   14.4130   23.0690 H       1  UNL1        0.0370
     92 H         -30.9640   15.5870   23.9170 H       1  UNL1        0.0370
     93 C         -30.1390   14.3060   22.4110 C.3     1  UNL1       -0.0590
     94 H         -30.0620   13.2240   22.3050 H       1  UNL1        0.0380
     95 C         -30.5590   14.8910   21.0240 C.3     1  UNL1       -0.0730
     96 H         -30.0150   14.3750   20.2330 H       1  UNL1        0.0280
     97 H         -31.6290   14.7510   20.8790 H       1  UNL1        0.0280
     98 H         -30.3240   15.9540   20.9920 H       1  UNL1        0.0280
     99 C         -28.7590   14.8220   22.8240 C.3     1  UNL1       -0.0730
    100 H         -28.4430   14.3220   23.7410 H       1  UNL1        0.0280
    101 H         -28.0400   14.6140   22.0320 H       1  UNL1        0.0280
    102 H         -28.8090   15.8970   22.9950 H       1  UNL1        0.0280
@<TRIPOS>BOND
     1    96    95    1
     2    97    95    1
     3    98    95    1
     4    95    93    1
     5    38    35    1
     6    40    39    1
     7   101    99    1
     8    94    93    1
     9    93    99    1
    10    93    90    1
    11    35    37    1
    12    35    36    1
    13    35    33    1
    14    42    39    1
    15    39    33    1
    16    39    41    1
    17    99   102    1
    18    99   100    1
    19    34    33    1
    20    91    90    1
    21    33     7    1
    22     6     3    1
    23    90    92    1
    24    90     1    1
    25    70    67    1
    26     3     1    1
    27     3     4   am
    28    71    69    1
    29     1     2    1
    30     1    43    1
    31     7     8    1
    32     7     4    1
    33     7     9    1
    34    12     9    1
    35    67    69   ar
    36    67    65   ar
    37    69    61   ar
    38     4     5    2
    39     9    10   am
    40    44    43    2
    41    57    55    1
    42    57    58    1
    43    56    55    2
    44    68    65    1
    45    43    45   am
    46    65    63   ar
    47    55    52    1
    48    61    58    1
    49    61    62   ar
    50    60    58    1
    51    10    11    2
    52    10    13    1
    53    14    13    1
    54    32    29    1
    55    58    59    1
    56    53    52    1
    57    13    29    1
    58    13    15    1
    59    63    62   ar
    60    63    66    1
    61    30    29    1
    62    45    46    1
    63    45    47    1
    64    29    31    1
    65    62    64    1
    66    52    54    1
    67    52    49    1
    68    17    16    2
    69    48    47    1
    70    51    49    1
    71    79    76    1
    72    47    49    1
    73    47    72    1
    74    49    50    1
    75    15    16   am
    76    15    18    1
    77    16    19    1
    78    87    75    1
    79    76    75    1
    80    76    78    1
    81    76    77    1
    82    75    72    1
    83    75    83    1
    84    82    77    1
    85    72    73    1
    86    72    74    1
    87    22    20    1
    88    86    83    1
    89    19    20   ar
    90    19    24   ar
    91    77    81    1
    92    77    80    1
    93    20    21   ar
    94    83    80    1
    95    83    88    1
    96    80    85    1
    97    80    84    1
    98    24    23   ar
    99    88    89    1
   100    21    23   ar
   101    21    25    1
   102    26    25    1
   103    25    28    1
   104    25    27    1
@<TRIPOS>MOLECULE
crystal_redock_e24_er3_1.pdbqt
 102 104 0 0 0
SMALL
GASTEIGER

@<TRIPOS>ATOM
      1 C         -31.3130   14.3540   24.0810 C.3     1  UNL1        0.0890
      2 H         -30.3430   14.4970   24.5590 H       1  UNL1        0.0870
      3 N         -31.4650   12.9310   23.8180 N.am    1  UNL1       -0.3460
      4 C         -31.2860   11.9270   24.9300 C.2     1  UNL1        0.2410
      5 O         -31.0160   12.2890   26.0270 O.2     1  UNL1       -0.2710
      6 H         -31.6930   12.6430   22.8770 H       1  UNL1        0.1630
      7 C         -31.4530   10.4580   24.6410 C.3     1  UNL1        0.0920
      8 H         -30.7980    9.8870   25.2990 H       1  UNL1        0.0880
      9 N         -32.8300   10.0550   24.9430 N.am    1  UNL1       -0.3460
     10 C         -33.1250    9.3650   26.1750 C.2     1  UNL1        0.2400
     11 O         -32.2670    9.1270   26.9340 O.2     1  UNL1       -0.2710
     12 H         -33.5810   10.2520   24.2970 H       1  UNL1        0.1630
     13 C         -34.5920    8.9350   26.4890 C.3     1  UNL1        0.0860
     14 H         -34.7360    8.6600   27.5340 H       1  UNL1        0.0860
     15 N         -35.4780   10.0570   26.2280 N.am    1  UNL1       -0.3430
     16 C         -35.6500   11.0930   27.2490 C.2     1  UNL1        0.2730
     17 O         -35.0720   11.0140   28.2770 O.2     1  UNL1       -0.2660
     18 H         -35.9690   10.1160   25.3470 H       1  UNL1        0.1630
     19 C         -36.5820   12.2860   26.9860 C.ar    1  UNL1        0.1540
     20 C         -36.2680   13.4900   26.2790 C.ar    1  UNL1       -0.0170
     21 C         -37.4560   14.2540   26.3180 C.ar    1  UNL1        0.0770
     22 H         -35.3240   13.7670   25.8110 H       1  UNL1        0.0910
     23 O         -38.3420   13.5610   26.9700 O.2     1  UNL1       -0.2180
     24 N         -37.8560   12.4090   27.3710 N.ar    1  UNL1       -0.1230
     25 C         -37.6600   15.6340   25.7060 C.3     1  UNL1       -0.0290
     26 H         -38.1790   16.2740   26.4190 H       1  UNL1        0.0360
     27 H         -36.6920   16.0700   25.4640 H       1  UNL1        0.0360
     28 H         -38.2560   15.5450   24.7980 H       1  UNL1        0.0360
     29 C         -34.9720    7.7640   25.6200 C.3     1  UNL1       -0.0490
     30 H         -34.0710    7.2340   25.3100 H       1  UNL1        0.0300
     31 H         -35.6150    7.0880   26.1820 H       1  UNL1        0.0300
     32 H         -35.5030    8.1220   24.7380 H       1  UNL1        0.0300
     33 C         -31.1540   10.1880   23.1370 C.3     1  UNL1       -0.0330
     34 H         -31.3670   11.1060   22.5900 H       1  UNL1        0.0420
     35 C         -29.6490    9.8450   22.9100 C.3     1  UNL1       -0.0710
     36 H         -29.5670    9.0300   22.1910 H       1  UNL1        0.0280
     37 H         -29.1300   10.7220   22.5260 H       1  UNL1        0.0280
     38 H         -29.1990    9.5410   23.8550 H       1  UNL1        0.0280
     39 C         -32.0830    9.0640   22.5750 C.3     1  UNL1       -0.0710
     40 H         -32.7260    9.4790   21.7990 H       1  UNL1        0.0280
     41 H         -31.4720    8.2650   22.1530 H       1  UNL1        0.0280
     42 H         -32.6970    8.6630   23.3820 H       1  UNL1        0.0280
     43 C         -32.4890   14.8190   24.9870 C.2     1  UNL1        0.2400
     44 O         -33.5430   15.0740   24.5010 O.2     1  UNL1       -0.2710
     45 N         -32.3020   14.9390   26.4610 N.am    1  UNL1       -0.3550
     46 H         -31.4120   14.7210   26.8850 H       1  UNL1        0.1620
     47 C         -33.4310   15.3820   27.3080 C.3     1  UNL1        0.0130
     48 H         -34.2880   14.7470   27.0840 H       1  UNL1        0.0720
     49 C         -33.7580   16.8240   26.9920 C.3     1  UNL1       -0.0380
     50 H         -34.0960   16.8280   25.9550 H       1  UNL1        0.0360
     51 H         -34.4280   17.1540   27.7860 H       1  UNL1        0.0360
     52 C         -32.5210   17.7460   27.0510 C.3     1  UNL1        0.0180
     53 H         -31.7190   17.1380   27.4690 H       1  UNL1        0.0480
     54 H         -32.4200   18.1690   26.0520 H       1  UNL1        0.0480
     55 C         -32.6870   18.9550   28.0130 C.2     1  UNL1        0.2590
     56 O         -32.1200   18.9780   29.0570 O.2     1  UNL1       -0.2650
     57 O         -33.5380   20.0320   27.6390 O.3     1  UNL1       -0.3170
     58 C         -34.8720   19.9230   28.1430 C.3     1  UNL1        0.0520
     59 H         -34.9790   18.8900   28.4740 H       1  UNL1        0.0820
     60 H         -34.9850   20.7380   28.8580 H       1  UNL1        0.0820
     61 C         -35.8510   20.1650   26.9640 C.ar    1  UNL1       -0.0340
     62 C         -36.9910   20.9410   27.1530 C.ar    1  UNL1       -0.0750
     63 C         -37.8710   21.1580   26.0940 C.ar    1  UNL1       -0.0820
     64 H         -37.1950   21.3770   28.1310 H       1  UNL1        0.0840
     65 C         -37.6090   20.5940   24.8420 C.ar    1  UNL1       -0.0830
     66 H         -38.7620   21.7670   26.2450 H       1  UNL1        0.0830
     67 C         -36.4730   19.8190   24.6590 C.ar    1  UNL1       -0.0820
     68 H         -38.2920   20.7600   24.0090 H       1  UNL1        0.0830
     69 C         -35.5890   19.6010   25.7140 C.ar    1  UNL1       -0.0750
     70 H         -36.2720   19.3790   23.6820 H       1  UNL1        0.0830
     71 H         -34.6980   18.9910   25.5630 H       1  UNL1        0.0840
     72 C         -33.0490   15.2570   28.7820 C.3     1  UNL1       -0.0390
     73 H         -32.8750   16.2780   29.1240 H       1  UNL1        0.0360
     74 H         -33.8390   14.6580   29.2360 H       1  UNL1        0.0360
     75 C         -31.6770   14.4540   28.9730 C.3     1  UNL1       -0.0010
     76 C         -31.9920   12.9150   29.4620 C.3     1  UNL1       -0.0350
     77 C         -31.2500   12.6460   30.5620 C.3     1  UNL1        0.0850
     78 H         -33.0180   12.8400   29.8210 H       1  UNL1        0.0360
     79 H         -31.6200   12.2050   28.7230 H       1  UNL1        0.0360
     80 N         -30.7070   13.9630   31.0610 N.4     1  UNL1       -0.0490
     81 H         -31.9520   12.2500   31.2970 H       1  UNL1        0.0750
     82 H         -30.4230   12.0300   30.2120 H       1  UNL1        0.0750
     83 C         -30.9240   15.0180   29.8580 C.3     1  UNL1        0.1930
     84 H         -31.2890   14.2370   31.8390 H       1  UNL1        0.2800
     85 H         -29.7140   13.8290   31.1960 H       1  UNL1        0.2800
     86 H         -30.0850   15.3280   29.2360 H       1  UNL1        0.1290
     87 H         -31.0050   14.5760   28.1240 H       1  UNL1        0.0460
     88 O         -31.4960   16.2270   30.3600 O.3     1  UNL1       -0.3690
     89 H         -31.8100   16.7610   29.6270 H       1  UNL1        0.2120
     90 C         -31.3530   15.1090   22.7620 C.3     1  UNL1       -0.0350
     91 H         -32.2900   14.8150   22.2900 H       1  UNL1        0.0370
     92 H         -31.1780   16.1530   23.0220 H       1  UNL1        0.0370
     93 C         -30.2140   14.7040   21.7730 C.3     1  UNL1       -0.0590
     94 H         -30.2420   13.6200   21.6630 H       1  UNL1        0.0380
     95 C         -30.4140   15.3310   20.3560 C.3     1  UNL1       -0.0730
     96 H         -30.8660   14.5940   19.6920 H       1  UNL1        0.0280
     97 H         -31.0680   16.1990   20.4310 H       1  UNL1        0.0280
     98 H         -29.4480   15.6370   19.9550 H       1  UNL1        0.0280
     99 C         -28.8410   15.0690   22.3410 C.3     1  UNL1       -0.0730
    100 H         -28.3260   15.7360   21.6490 H       1  UNL1        0.0280
    101 H         -28.9660   15.5690   23.3020 H       1  UNL1        0.0280
    102 H         -28.2520   14.1620   22.4780 H       1  UNL1        0.0280
@<TRIPOS>BOND
     1    96    95    1
     2    98    95    1
     3    95    97    1
     4    95    93    1
     5   100    99    1
     6    94    93    1
     7    93    99    1
     8    93    90    1
     9    40    39    1
    10    41    39    1
    11    36    35    1
    12    91    90    1
    13    99   102    1
    14    99   101    1
    15    37    35    1
    16    39    33    1
    17    39    42    1
    18    34    33    1
    19    90    92    1
    20    90     1    1
    21     6     3    1
    22    35    33    1
    23    35    38    1
    24    33     7    1
    25    70    67    1
    26     3     1    1
    27     3     4   am
    28    68    65    1
    29     1     2    1
    30     1    43    1
    31    12     9    1
    32    44    43    2
    33     7     4    1
    34     7     9    1
    35     7     8    1
    36    67    65   ar
    37    67    69   ar
    38    32    29    1
    39    28    25    1
    40    65    63   ar
    41     4     5    2
    42     9    10   am
    43    43    45   am
    44    30    29    1
    45    18    15    1
    46    27    25    1
    47    71    69    1
    48    29    31    1
    49    29    13    1
    50    25    21    1
    51    25    26    1
    52    69    61   ar
    53    22    20    1
    54    50    49    1
    55    54    52    1
    56    63    66    1
    57    63    62   ar
    58    10    13    1
    59    10    11    2
    60    15    13    1
    61    15    16   am
    62    20    21   ar
    63    20    19   ar
    64    21    23   ar
    65    45    46    1
    66    45    47    1
    67    13    14    1
    68    61    62   ar
    69    61    58    1
    70    23    24   ar
    71    19    16    1
    72    19    24   ar
    73    49    52    1
    74    49    47    1
    75    49    51    1
    76    52    53    1
    77    52    55    1
    78    48    47    1
    79    62    64    1
    80    16    17    2
    81    47    72    1
    82    57    55    1
    83    57    58    1
    84    55    56    2
    85    87    75    1
    86    58    59    1
    87    58    60    1
    88    79    76    1
    89    72    75    1
    90    72    73    1
    91    72    74    1
    92    75    76    1
    93    75    83    1
    94    86    83    1
    95    76    78    1
    96    76    77    1
    97    89    88    1
    98    83    88    1
    99    83    80    1
   100    82    77    1
   101    77    80    1
   102    77    81    1
   103    80    85    1
   104    80    84    1
@<TRIPOS>MOLECULE
crystal_redock_e24_er3_1.pdbqt
 102 104 0 0 0
SMALL
GASTEIGER

@<TRIPOS>ATOM
      1 C         -31.3110   15.0140   24.0100 C.3     1  UNL1        0.0890
      2 H         -30.2970   15.0850   24.4050 H       1  UNL1        0.0870
      3 N         -31.6560   13.6020   23.9380 N.am    1  UNL1       -0.3460
      4 C         -31.3320   12.6790   25.0850 C.2     1  UNL1        0.2410
      5 O         -30.7900   13.0950   26.0560 O.2     1  UNL1       -0.2710
      6 H         -32.1140   13.2680   23.1020 H       1  UNL1        0.1630
      7 C         -31.7010   11.2220   24.9960 C.3     1  UNL1        0.0920
      8 H         -31.1420   10.6640   25.7470 H       1  UNL1        0.0880
      9 N         -33.1250   11.0580   25.3040 N.am    1  UNL1       -0.3460
     10 C         -33.5280   10.5140   26.5780 C.2     1  UNL1        0.2400
     11 O         -32.7200   10.2010   27.3650 O.2     1  UNL1       -0.2710
     12 H         -33.8330   11.3220   24.6350 H       1  UNL1        0.1630
     13 C         -35.0450   10.3390   26.8990 C.3     1  UNL1        0.0860
     14 H         -35.5740    9.7660   26.1380 H       1  UNL1        0.0860
     15 N         -35.1810    9.6030   28.1450 N.am    1  UNL1       -0.3430
     16 C         -35.4700    8.1670   28.1060 C.2     1  UNL1        0.2730
     17 O         -35.5930    7.6150   27.0680 O.2     1  UNL1       -0.2660
     18 H         -35.0770   10.0830   29.0270 H       1  UNL1        0.1630
     19 C         -35.6150    7.3750   29.4150 C.ar    1  UNL1        0.1540
     20 C         -34.7300    6.3710   29.9200 C.ar    1  UNL1       -0.0170
     21 C         -35.3070    5.9600   31.1420 C.ar    1  UNL1        0.0770
     22 H         -33.8100    5.9970   29.4690 H       1  UNL1        0.0910
     23 O         -36.3940    6.6540   31.3100 O.2     1  UNL1       -0.2180
     24 N         -36.5950    7.4870   30.3150 N.ar    1  UNL1       -0.1230
     25 C         -34.7560    4.9010   32.0880 C.3     1  UNL1       -0.0290
     26 H         -35.5730    4.2780   32.4520 H       1  UNL1        0.0360
     27 H         -34.0350    4.2800   31.5570 H       1  UNL1        0.0360
     28 H         -34.2650    5.3860   32.9320 H       1  UNL1        0.0360
     29 C         -35.6940   11.6940   27.0270 C.3     1  UNL1       -0.0490
     30 H         -35.7540   11.9700   28.0800 H       1  UNL1        0.0300
     31 H         -35.0980   12.4340   26.4920 H       1  UNL1        0.0300
     32 H         -36.6970   11.6590   26.6020 H       1  UNL1        0.0300
     33 C         -31.4230   10.7040   23.5540 C.3     1  UNL1       -0.0330
     34 H         -31.6930   11.5000   22.8610 H       1  UNL1        0.0420
     35 C         -29.9080   10.3940   23.3440 C.3     1  UNL1       -0.0710
     36 H         -29.7710    9.8800   22.3930 H       1  UNL1        0.0280
     37 H         -29.3440   11.3260   23.3380 H       1  UNL1        0.0280
     38 H         -29.5510    9.7590   24.1550 H       1  UNL1        0.0280
     39 C         -32.3070    9.4580   23.2270 C.3     1  UNL1       -0.0710
     40 H         -32.7970    9.6020   22.2640 H       1  UNL1        0.0280
     41 H         -31.6780    8.5670   23.1860 H       1  UNL1        0.0280
     42 H         -33.0610    9.3330   24.0040 H       1  UNL1        0.0280
     43 C         -32.3470   15.7310   24.9220 C.2     1  UNL1        0.2400
     44 O         -33.4780   15.8250   24.5710 O.2     1  UNL1       -0.2710
     45 N         -31.9300   16.2940   26.2380 N.am    1  UNL1       -0.3550
     46 H         -30.9720   16.2170   26.5490 H       1  UNL1        0.1620
     47 C         -32.9270   16.9720   27.0950 C.3     1  UNL1        0.0130
     48 H         -33.8920   16.9230   26.5890 H       1  UNL1        0.0720
     49 C         -32.5200   18.4150   27.2910 C.3     1  UNL1       -0.0380
     50 H         -32.9980   18.7330   28.2170 H       1  UNL1        0.0360
     51 H         -31.4330   18.4270   27.2060 H       1  UNL1        0.0360
     52 C         -33.0550   19.3450   26.1810 C.3     1  UNL1        0.0180
     53 H         -32.4790   20.2660   26.2640 H       1  UNL1        0.0480
     54 H         -33.0180   18.7590   25.2620 H       1  UNL1        0.0480
     55 C         -34.5430   19.7530   26.3690 C.2     1  UNL1        0.2590
     56 O         -34.9120   20.2300   27.3920 O.2     1  UNL1       -0.2650
     57 O         -35.4640   19.5370   25.3070 O.3     1  UNL1       -0.3170
     58 C         -36.7500   19.0810   25.7350 C.3     1  UNL1        0.0520
     59 H         -36.8280   19.3630   26.7850 H       1  UNL1        0.0820
     60 H         -37.4600   19.4780   25.0100 H       1  UNL1        0.0820
     61 C         -36.7650   17.5320   25.6400 C.ar    1  UNL1       -0.0340
     62 C         -37.0550   16.9120   24.4290 C.ar    1  UNL1       -0.0750
     63 C         -37.0690   15.5200   24.3430 C.ar    1  UNL1       -0.0820
     64 H         -37.2710   17.5150   23.5470 H       1  UNL1        0.0840
     65 C         -36.7940   14.7490   25.4760 C.ar    1  UNL1       -0.0830
     66 H         -37.2940   15.0370   23.3920 H       1  UNL1        0.0830
     67 C         -36.5100   15.3730   26.6830 C.ar    1  UNL1       -0.0820
     68 H         -36.8030   13.6600   25.4170 H       1  UNL1        0.0830
     69 C         -36.4920   16.7630   26.7720 C.ar    1  UNL1       -0.0750
     70 H         -36.2980   14.7680   27.5650 H       1  UNL1        0.0830
     71 H         -36.2670   17.2450   27.7240 H       1  UNL1        0.0840
     72 C         -33.0020   16.2740   28.4510 C.3     1  UNL1       -0.0390
     73 H         -32.6590   17.0120   29.1770 H       1  UNL1        0.0360
     74 H         -34.0150   15.8760   28.5170 H       1  UNL1        0.0360
     75 C         -31.9980   15.0290   28.5340 C.3     1  UNL1       -0.0010
     76 C         -32.8520   13.6250   28.6050 C.3     1  UNL1       -0.0350
     77 C         -32.4040   12.8950   29.6540 C.3     1  UNL1        0.0850
     78 H         -33.8900   13.8320   28.8620 H       1  UNL1        0.0360
     79 H         -32.6180   13.0010   27.7420 H       1  UNL1        0.0360
     80 N         -31.5520   13.8110   30.4980 N.4     1  UNL1       -0.0490
     81 H         -33.2960   12.6180   30.2170 H       1  UNL1        0.0750
     82 H         -31.7710   12.1210   29.2210 H       1  UNL1        0.0750
     83 C         -31.2460   15.1030   29.5800 C.3     1  UNL1        0.1930
     84 H         -32.1270   14.0990   31.2770 H       1  UNL1        0.2800
     85 H         -30.6850   13.3220   30.6650 H       1  UNL1        0.2800
     86 H         -30.2690   15.2320   29.1130 H       1  UNL1        0.1290
     87 H         -31.2040   15.0890   27.7900 H       1  UNL1        0.0460
     88 O         -31.4740   16.3020   30.3240 O.3     1  UNL1       -0.3690
     89 H         -30.7980   16.3930   31.0000 H       1  UNL1        0.2120
     90 C         -31.3620   15.6100   22.6120 C.3     1  UNL1       -0.0350
     91 H         -32.3520   15.3640   22.2300 H       1  UNL1        0.0370
     92 H         -31.0670   16.6530   22.7320 H       1  UNL1        0.0370
     93 C         -30.3360   14.9720   21.6220 C.3     1  UNL1       -0.0590
     94 H         -30.4870   13.8930   21.6380 H       1  UNL1        0.0380
     95 C         -30.5520   15.4610   20.1540 C.3     1  UNL1       -0.0730
     96 H         -30.6000   14.6010   19.4880 H       1  UNL1        0.0280
     97 H         -31.4850   16.0210   20.0910 H       1  UNL1        0.0280
     98 H         -29.7220   16.1030   19.8590 H       1  UNL1        0.0280
     99 C         -28.8990   15.2370   22.0780 C.3     1  UNL1       -0.0730
    100 H         -28.2310   14.5070   21.6190 H       1  UNL1        0.0280
    101 H         -28.6000   16.2410   21.7760 H       1  UNL1        0.0280
    102 H         -28.8400   15.1520   23.1630 H       1  UNL1        0.0280
@<TRIPOS>BOND
     1    96    95    1
     2    98    95    1
     3    97    95    1
     4    95    93    1
     5   100    99    1
     6    93    94    1
     7    93    99    1
     8    93    90    1
     9   101    99    1
    10    99   102    1
    11    91    90    1
    12    40    39    1
    13    36    35    1
    14    90    92    1
    15    90     1    1
    16    34    33    1
    17     6     3    1
    18    41    39    1
    19    39    33    1
    20    39    42    1
    21    37    35    1
    22    35    33    1
    23    35    38    1
    24    66    63    1
    25    64    62    1
    26    33     7    1
    27     3     1    1
    28     3     4   am
    29     1     2    1
    30     1    43    1
    31    63    62   ar
    32    63    65   ar
    33    62    61   ar
    34    44    43    2
    35    12     9    1
    36    43    45   am
    37     7     4    1
    38     7     9    1
    39     7     8    1
    40    60    58    1
    41     4     5    2
    42    54    52    1
    43     9    10   am
    44    57    58    1
    45    57    55    1
    46    68    65    1
    47    65    67   ar
    48    61    58    1
    49    61    69   ar
    50    58    59    1
    51    14    13    1
    52    52    53    1
    53    52    55    1
    54    52    49    1
    55    45    46    1
    56    45    47    1
    57    55    56    2
    58    31    29    1
    59    10    13    1
    60    10    11    2
    61    48    47    1
    62    32    29    1
    63    67    69   ar
    64    67    70    1
    65    69    71    1
    66    13    29    1
    67    13    15    1
    68    29    30    1
    69    17    16    2
    70    47    49    1
    71    47    72    1
    72    51    49    1
    73    49    50    1
    74    79    76    1
    75    87    75    1
    76    16    15   am
    77    16    19    1
    78    15    18    1
    79    72    74    1
    80    72    75    1
    81    72    73    1
    82    75    76    1
    83    75    83    1
    84    76    78    1
    85    76    77    1
    86    86    83    1
    87    82    77    1
    88    19    20   ar
    89    19    24   ar
    90    22    20    1
    91    83    88    1
    92    83    80    1
    93    77    81    1
    94    77    80    1
    95    20    21   ar
    96    24    23   ar
    97    88    89    1
    98    80    85    1
    99    80    84    1
   100    21    23   ar
   101    21    25    1
   102    27    25    1
   103    25    26    1
   104    25    28    1
@<TRIPOS>MOLECULE
crystal_redock_e24_er3_1.pdbqt
 102 104 0 0 0
SMALL
GASTEIGER

@<TRIPOS>ATOM
      1 C         -30.7820   14.0010   24.0910 C.3     1  UNL1        0.0890
      2 H         -29.7270   13.7230   24.0840 H       1  UNL1        0.0870
      3 N         -31.5500   12.7970   24.3690 N.am    1  UNL1       -0.3460
      4 C         -31.0910   11.4620   23.8400 C.2     1  UNL1        0.2410
      5 O         -30.1010   11.3810   23.1910 O.2     1  UNL1       -0.2710
      6 H         -32.3910   12.8870   24.9210 H       1  UNL1        0.1630
      7 C         -31.8960   10.2250   24.1420 C.3     1  UNL1        0.0920
      8 H         -31.4580    9.7120   24.9990 H       1  UNL1        0.0880
      9 N         -33.2600   10.6090   24.5180 N.am    1  UNL1       -0.3460
     10 C         -33.6690   10.5550   25.9000 C.2     1  UNL1        0.2400
     11 O         -32.9140   10.2030   26.7220 O.2     1  UNL1       -0.2710
     12 H         -33.9230   10.9120   23.8200 H       1  UNL1        0.1630
     13 C         -35.1230   10.9610   26.2940 C.3     1  UNL1        0.0860
     14 H         -35.8050   10.9610   25.4440 H       1  UNL1        0.0860
     15 N         -35.6420    9.9930   27.2450 N.am    1  UNL1       -0.3430
     16 C         -37.0480    9.5890   27.1680 C.2     1  UNL1        0.2730
     17 O         -37.7530   10.0510   26.3400 O.2     1  UNL1       -0.2660
     18 H         -35.0330    9.6050   27.9510 H       1  UNL1        0.1630
     19 C         -37.6100    8.5650   28.1670 C.ar    1  UNL1        0.1540
     20 C         -37.4000    7.1500   28.1640 C.ar    1  UNL1       -0.0170
     21 C         -38.1250    6.6720   29.2790 C.ar    1  UNL1        0.0770
     22 H         -36.8110    6.5590   27.4620 H       1  UNL1        0.0910
     23 O         -38.6820    7.7010   29.8480 O.2     1  UNL1       -0.2180
     24 N         -38.3960    8.8170   29.2170 N.ar    1  UNL1       -0.1230
     25 C         -38.2330    5.2220   29.7300 C.3     1  UNL1       -0.0290
     26 H         -39.1090    4.7630   29.2710 H       1  UNL1        0.0360
     27 H         -37.3380    4.6790   29.4260 H       1  UNL1        0.0360
     28 H         -38.3300    5.1850   30.8150 H       1  UNL1        0.0360
     29 C         -35.1140   12.3370   26.9100 C.3     1  UNL1       -0.0490
     30 H         -35.6900   12.3250   27.8350 H       1  UNL1        0.0300
     31 H         -34.0870   12.6310   27.1260 H       1  UNL1        0.0300
     32 H         -35.5580   13.0500   26.2150 H       1  UNL1        0.0300
     33 C         -31.9450    9.3170   22.8790 C.3     1  UNL1       -0.0330
     34 H         -31.6160    9.9160   22.0300 H       1  UNL1        0.0420
     35 C         -30.9650    8.1090   23.0080 C.3     1  UNL1       -0.0710
     36 H         -30.2520    8.3040   23.8100 H       1  UNL1        0.0280
     37 H         -31.5300    7.2060   23.2360 H       1  UNL1        0.0280
     38 H         -30.4270    7.9760   22.0690 H       1  UNL1        0.0280
     39 C         -33.4040    8.8340   22.5930 C.3     1  UNL1       -0.0710
     40 H         -33.4380    7.7450   22.6250 H       1  UNL1        0.0280
     41 H         -34.0760    9.2410   23.3490 H       1  UNL1        0.0280
     42 H         -33.7150    9.1800   21.6080 H       1  UNL1        0.0280
     43 C         -31.1040   15.0580   25.1860 C.2     1  UNL1        0.2400
     44 O         -30.7490   16.1840   25.0430 O.2     1  UNL1       -0.2710
     45 N         -31.8620   14.6690   26.4080 N.am    1  UNL1       -0.3550
     46 H         -32.1730   13.7170   26.5380 H       1  UNL1        0.1620
     47 C         -32.1620   15.6860   27.4400 C.3     1  UNL1        0.0130
     48 H         -31.5530   16.5660   27.2300 H       1  UNL1        0.0720
     49 C         -31.8170   15.1320   28.8030 C.3     1  UNL1       -0.0380
     50 H         -30.7700   14.8350   28.7450 H       1  UNL1        0.0360
     51 H         -32.1300   15.8930   29.5180 H       1  UNL1        0.0360
     52 C         -32.6130   13.8550   29.1500 C.3     1  UNL1        0.0180
     53 H         -32.9300   13.9760   30.1850 H       1  UNL1        0.0480
     54 H         -33.3580   13.7480   28.3610 H       1  UNL1        0.0480
     55 C         -31.7610   12.5560   29.1120 C.2     1  UNL1        0.2590
     56 O         -30.7960   12.4870   28.4220 O.2     1  UNL1       -0.2650
     57 O         -32.1540   11.4420   29.9040 O.3     1  UNL1       -0.3170
     58 C         -32.9480   11.7880   31.0430 C.3     1  UNL1        0.0520
     59 H         -32.2560   11.8260   31.8840 H       1  UNL1        0.0820
     60 H         -33.5050   12.6790   30.7550 H       1  UNL1        0.0820
     61 C         -33.9580   10.6360   31.2900 C.ar    1  UNL1       -0.0340
     62 C         -34.8300   10.6940   32.3730 C.ar    1  UNL1       -0.0750
     63 C         -35.7370    9.6600   32.5950 C.ar    1  UNL1       -0.0820
     64 H         -34.8020   11.5500   33.0470 H       1  UNL1        0.0840
     65 C         -35.7690    8.5620   31.7320 C.ar    1  UNL1       -0.0830
     66 H         -36.4210    9.7090   33.4440 H       1  UNL1        0.0830
     67 C         -34.8950    8.5060   30.6550 C.ar    1  UNL1       -0.0820
     68 H         -36.4760    7.7490   31.8980 H       1  UNL1        0.0830
     69 C         -33.9880    9.5390   30.4270 C.ar    1  UNL1       -0.0750
     70 H         -34.9210    7.6470   29.9840 H       1  UNL1        0.0830
     71 H         -33.3060    9.4890   29.5780 H       1  UNL1        0.0840
     72 C         -33.6460   16.0450   27.3950 C.3     1  UNL1       -0.0390
     73 H         -34.0940   15.3410   26.6940 H       1  UNL1        0.0360
     74 H         -33.9720   16.0600   28.4350 H       1  UNL1        0.0360
     75 C         -33.8820   17.5150   26.8040 C.3     1  UNL1       -0.0010
     76 C         -32.4950   18.3920   26.9110 C.3     1  UNL1       -0.0350
     77 C         -32.7700   19.5730   27.5140 C.3     1  UNL1        0.0850
     78 H         -31.8010   17.9100   27.5990 H       1  UNL1        0.0360
     79 H         -32.1610   18.6860   25.9160 H       1  UNL1        0.0360
     80 N         -34.1460   19.4480   28.1220 N.4     1  UNL1       -0.0490
     81 H         -32.0360   19.6690   28.3140 H       1  UNL1        0.0750
     82 H         -32.8020   20.3090   26.7120 H       1  UNL1        0.0750
     83 C         -34.8100   18.1370   27.4540 C.3     1  UNL1        0.1930
     84 H         -34.0100   19.2730   29.1070 H       1  UNL1        0.2800
     85 H         -34.6660   20.2600   27.8200 H       1  UNL1        0.2800
     86 H         -35.5660   18.2340   26.6750 H       1  UNL1        0.1290
     87 H         -34.3830   17.4960   25.8360 H       1  UNL1        0.0460
     88 O         -35.4030   17.3170   28.4620 O.3     1  UNL1       -0.3690
     89 H         -35.0510   17.5610   29.3220 H       1  UNL1        0.2120
     90 C         -31.1800   14.5410   22.7260 C.3     1  UNL1       -0.0350
     91 H         -31.9130   13.8330   22.3390 H       1  UNL1        0.0370
     92 H         -31.4630   15.5790   22.8980 H       1  UNL1        0.0370
     93 C         -30.0070   14.5670   21.6960 C.3     1  UNL1       -0.0590
     94 H         -29.8880   13.5570   21.3040 H       1  UNL1        0.0380
     95 C         -30.3040   15.5150   20.4900 C.3     1  UNL1       -0.0730
     96 H         -30.1500   16.5500   20.7940 H       1  UNL1        0.0280
     97 H         -29.6320   15.2760   19.6660 H       1  UNL1        0.0280
     98 H         -31.3360   15.3800   20.1670 H       1  UNL1        0.0280
     99 C         -28.6900   14.9480   22.3770 C.3     1  UNL1       -0.0730
    100 H         -28.8810   15.2090   23.4180 H       1  UNL1        0.0280
    101 H         -28.0010   14.1040   22.3340 H       1  UNL1        0.0280
    102 H         -28.2490   15.8020   21.8630 H       1  UNL1        0.0280
@<TRIPOS>BOND
     1    97    95    1
     2    98    95    1
     3    95    96    1
     4    95    93    1
     5    94    93    1
     6    42    39    1
     7    93    99    1
     8    93    90    1
     9   102    99    1
    10    34    33    1
    11    38    35    1
    12   101    99    1
    13    91    90    1
    14    99   100    1
    15    39    40    1
    16    39    33    1
    17    39    41    1
    18    90    92    1
    19    90     1    1
    20    33    35    1
    21    33     7    1
    22    35    37    1
    23    35    36    1
    24     5     4    2
    25    12     9    1
    26     4     7    1
    27     4     3   am
    28     2     1    1
    29     1     3    1
    30     1    43    1
    31     7     9    1
    32     7     8    1
    33     3     6    1
    34     9    10   am
    35    44    43    2
    36    43    45   am
    37    14    13    1
    38    87    75    1
    39    10    13    1
    40    10    11    2
    41    79    76    1
    42    32    29    1
    43    13    29    1
    44    13    15    1
    45    17    16    2
    46    45    46    1
    47    45    47    1
    48    86    83    1
    49    73    72    1
    50    82    77    1
    51    75    76    1
    52    75    72    1
    53    75    83    1
    54    29    31    1
    55    29    30    1
    56    76    77    1
    57    76    78    1
    58    16    15   am
    59    16    19    1
    60    48    47    1
    61    15    18    1
    62    72    47    1
    63    72    74    1
    64    47    49    1
    65    83    80    1
    66    83    88    1
    67    22    20    1
    68    77    80    1
    69    77    81    1
    70    85    80    1
    71    80    84    1
    72    20    19   ar
    73    20    21   ar
    74    19    24   ar
    75    54    52    1
    76    56    55    2
    77    88    89    1
    78    50    49    1
    79    49    52    1
    80    49    51    1
    81    55    52    1
    82    55    57    1
    83    52    53    1
    84    24    23   ar
    85    26    25    1
    86    21    25    1
    87    21    23   ar
    88    27    25    1
    89    71    69    1
    90    25    28    1
    91    57    58    1
    92    70    67    1
    93    69    67   ar
    94    69    61   ar
    95    67    65   ar
    96    60    58    1
    97    58    61    1
    98    58    59    1
    99    61    62   ar
   100    65    68    1
   101    65    63   ar
   102    62    63   ar
   103    62    64    1
   104    63    66    1
@<TRIPOS>MOLECULE
crystal_redock_e24_er3_1.pdbqt
 102 104 0 0 0
SMALL
GASTEIGER

@<TRIPOS>ATOM
      1 C         -37.1590   16.1610   26.6060 C.3     1  UNL1        0.0890
      2 H         -37.6140   16.6120   27.4880 H       1  UNL1        0.0870
      3 N         -35.7260   16.4060   26.6800 N.am    1  UNL1       -0.3460
      4 C         -35.1300   17.0880   27.8850 C.2     1  UNL1        0.2410
      5 O         -35.8250   17.4340   28.7830 O.2     1  UNL1       -0.2710
      6 H         -35.1520   16.1060   25.9040 H       1  UNL1        0.1630
      7 C         -33.6440   17.3270   27.9470 C.3     1  UNL1        0.0920
      8 H         -33.4230   17.9950   28.7800 H       1  UNL1        0.0880
      9 N         -32.9550   16.0610   28.2130 N.am    1  UNL1       -0.3460
     10 C         -32.0220   15.9650   29.3080 C.2     1  UNL1        0.2400
     11 O         -31.8120   16.8970   29.9840 O.2     1  UNL1       -0.2710
     12 H         -33.1250   15.2490   27.6370 H       1  UNL1        0.1630
     13 C         -31.2890   14.6150   29.5830 C.3     1  UNL1        0.0860
     14 H         -30.6770   14.6440   30.4840 H       1  UNL1        0.0860
     15 N         -32.2810   13.5730   29.7880 N.am    1  UNL1       -0.3430
     16 C         -31.9240   12.3770   30.5540 C.2     1  UNL1        0.2730
     17 O         -30.8350   12.2620   30.9990 O.2     1  UNL1       -0.2660
     18 H         -33.2090   13.6790   29.4020 H       1  UNL1        0.1630
     19 C         -32.9640   11.2680   30.7800 C.ar    1  UNL1        0.1540
     20 C         -33.3280   10.2270   29.8690 C.ar    1  UNL1       -0.0170
     21 C         -34.3160    9.4790   30.5480 C.ar    1  UNL1        0.0770
     22 H         -32.9360   10.0410   28.8690 H       1  UNL1        0.0910
     23 O         -34.4890   10.0340   31.7120 O.2     1  UNL1       -0.2180
     24 N         -33.7120   11.0800   31.8700 N.ar    1  UNL1       -0.1230
     25 C         -35.0420    8.2500   30.0160 C.3     1  UNL1       -0.0290
     26 H         -34.3440    7.6310   29.4540 H       1  UNL1        0.0360
     27 H         -35.4440    7.6770   30.8510 H       1  UNL1        0.0360
     28 H         -35.8570    8.5640   29.3640 H       1  UNL1        0.0360
     29 C         -30.4100   14.2680   28.4080 C.3     1  UNL1       -0.0490
     30 H         -29.3700   14.4720   28.6600 H       1  UNL1        0.0300
     31 H         -30.5260   13.2110   28.1690 H       1  UNL1        0.0300
     32 H         -30.7000   14.8700   27.5470 H       1  UNL1        0.0300
     33 C         -33.1560   17.9060   26.5870 C.3     1  UNL1       -0.0330
     34 H         -34.0320   18.0370   25.9520 H       1  UNL1        0.0420
     35 C         -32.4940   19.3070   26.7700 C.3     1  UNL1       -0.0710
     36 H         -32.4330   19.5440   27.8320 H       1  UNL1        0.0280
     37 H         -31.4930   19.2950   26.3410 H       1  UNL1        0.0280
     38 H         -33.0970   20.0620   26.2640 H       1  UNL1        0.0280
     39 C         -32.1860   16.9110   25.8720 C.3     1  UNL1       -0.0710
     40 H         -32.6130   16.6100   24.9160 H       1  UNL1        0.0280
     41 H         -31.2240   17.3980   25.7040 H       1  UNL1        0.0280
     42 H         -32.0410   16.0310   26.4990 H       1  UNL1        0.0280
     43 C         -37.3970   14.6250   26.5430 C.2     1  UNL1        0.2400
     44 O         -38.4850   14.1880   26.7340 O.2     1  UNL1       -0.2710
     45 N         -36.2690   13.7000   26.2350 N.am    1  UNL1       -0.3550
     46 H         -35.3410   14.0610   26.0670 H       1  UNL1        0.1620
     47 C         -36.5120   12.2430   26.1770 C.3     1  UNL1        0.0130
     48 H         -37.4770   12.0450   26.6430 H       1  UNL1        0.0720
     49 C         -35.4170   11.5230   26.9320 C.3     1  UNL1       -0.0380
     50 H         -35.1460   12.1820   27.7580 H       1  UNL1        0.0360
     51 H         -35.8060   10.5250   27.1350 H       1  UNL1        0.0360
     52 C         -34.1370   11.3290   26.0910 C.3     1  UNL1        0.0180
     53 H         -33.7160   10.3760   26.4080 H       1  UNL1        0.0480
     54 H         -34.4400   11.4730   25.0540 H       1  UNL1        0.0480
     55 C         -33.0390   12.3940   26.3670 C.2     1  UNL1        0.2590
     56 O         -33.3170   13.4270   26.8830 O.2     1  UNL1       -0.2650
     57 O         -31.6950   12.1250   25.9830 O.3     1  UNL1       -0.3170
     58 C         -31.5620   11.5960   24.6610 C.3     1  UNL1        0.0520
     59 H         -30.9420   10.7050   24.7610 H       1  UNL1        0.0820
     60 H         -32.5770   11.5120   24.2730 H       1  UNL1        0.0820
     61 C         -30.7940   12.6360   23.8040 C.ar    1  UNL1       -0.0340
     62 C         -30.8290   13.9840   24.1470 C.ar    1  UNL1       -0.0750
     63 C         -30.1390   14.9190   23.3770 C.ar    1  UNL1       -0.0820
     64 H         -31.3980   14.3080   25.0190 H       1  UNL1        0.0840
     65 C         -29.4130   14.5020   22.2580 C.ar    1  UNL1       -0.0830
     66 H         -30.1670   15.9740   23.6500 H       1  UNL1        0.0830
     67 C         -29.3830   13.1560   21.9170 C.ar    1  UNL1       -0.0820
     68 H         -28.8700   15.2260   21.6510 H       1  UNL1        0.0830
     69 C         -30.0700   12.2180   22.6850 C.ar    1  UNL1       -0.0750
     70 H         -28.8180   12.8350   21.0420 H       1  UNL1        0.0830
     71 H         -30.0410   11.1630   22.4120 H       1  UNL1        0.0840
     72 C         -36.5190   11.7780   24.7230 C.3     1  UNL1       -0.0390
     73 H         -35.8520   12.4620   24.1960 H       1  UNL1        0.0360
     74 H         -36.2890   10.7130   24.7570 H       1  UNL1        0.0360
     75 C         -37.9690   11.9270   24.0600 C.3     1  UNL1       -0.0010
     76 C         -38.4030   10.5150   23.3370 C.3     1  UNL1       -0.0350
     77 C         -38.7920   10.7770   22.0660 C.3     1  UNL1        0.0850
     78 H         -37.5300    9.8760   23.2110 H       1  UNL1        0.0360
     79 H         -39.3060   10.1190   23.8030 H       1  UNL1        0.0360
     80 N         -38.3530   12.1860   21.7520 N.4     1  UNL1       -0.0490
     81 H         -38.2300   10.0820   21.4420 H       1  UNL1        0.0750
     82 H         -39.8800   10.7380   22.0810 H       1  UNL1        0.0750
     83 C         -37.9820   12.8630   23.1700 C.3     1  UNL1        0.1930
     84 H         -37.5090   12.1080   21.2020 H       1  UNL1        0.2800
     85 H         -39.1610   12.6590   21.3710 H       1  UNL1        0.2800
     86 H         -38.6630   13.5730   23.6390 H       1  UNL1        0.1290
     87 H         -38.6910   12.3780   24.7420 H       1  UNL1        0.0460
     88 O         -36.7270   13.5390   23.0800 O.3     1  UNL1       -0.3690
     89 H         -36.3670   13.6650   23.9610 H       1  UNL1        0.2120
     90 C         -37.7100   16.8160   25.3500 C.3     1  UNL1       -0.0350
     91 H         -37.3270   16.2200   24.5220 H       1  UNL1        0.0370
     92 H         -38.7850   16.8960   25.5140 H       1  UNL1        0.0370
     93 C         -37.1900   18.2710   25.1220 C.3     1  UNL1       -0.0590
     94 H         -36.1100   18.2630   25.2700 H       1  UNL1        0.0380
     95 C         -37.4680   18.7760   23.6700 C.3     1  UNL1       -0.0730
     96 H         -36.5320   19.0900   23.2090 H       1  UNL1        0.0280
     97 H         -37.9080   17.9700   23.0830 H       1  UNL1        0.0280
     98 H         -38.1570   19.6190   23.7040 H       1  UNL1        0.0280
     99 C         -37.7830   19.2320   26.1560 C.3     1  UNL1       -0.0730
    100 H         -38.0320   18.6820   27.0630 H       1  UNL1        0.0280
    101 H         -37.0550   20.0090   26.3910 H       1  UNL1        0.0280
    102 H         -38.6840   19.6910   25.7500 H       1  UNL1        0.0280
@<TRIPOS>BOND
     1    70    67    1
     2    84    80    1
     3    85    80    1
     4    81    77    1
     5    68    65    1
     6    80    77    1
     7    80    83    1
     8    67    65   ar
     9    67    69   ar
    10    77    82    1
    11    77    76    1
    12    65    63   ar
    13    71    69    1
    14    69    61   ar
    15    88    83    1
    16    88    89    1
    17    97    95    1
    18    83    86    1
    19    83    75    1
    20    96    95    1
    21    78    76    1
    22    76    79    1
    23    76    75    1
    24    63    66    1
    25    63    62   ar
    26    95    98    1
    27    95    93    1
    28    61    62   ar
    29    61    58    1
    30    75    72    1
    31    75    87    1
    32    62    64    1
    33    73    72    1
    34    60    58    1
    35    91    90    1
    36    58    59    1
    37    58    57    1
    38    72    74    1
    39    72    47    1
    40    40    39    1
    41    54    52    1
    42    93    94    1
    43    93    90    1
    44    93    99    1
    45    90    92    1
    46    90     1    1
    47    41    39    1
    48   102    99    1
    49    39    42    1
    50    39    33    1
    51     6     3    1
    52    34    33    1
    53    57    55    1
    54    46    45    1
    55    52    55    1
    56    52    53    1
    57    52    49    1
    58    99   101    1
    59    99   100    1
    60    47    45    1
    61    47    48    1
    62    47    49    1
    63    45    43   am
    64    38    35    1
    65    37    35    1
    66    55    56    2
    67    43     1    1
    68    43    44    2
    69    33    35    1
    70    33     7    1
    71     1     3    1
    72     1     2    1
    73     3     4   am
    74    35    36    1
    75    49    51    1
    76    49    50    1
    77    32    29    1
    78    12     9    1
    79     4     7    1
    80     4     5    2
    81     7     9    1
    82     7     8    1
    83    31    29    1
    84     9    10   am
    85    29    30    1
    86    29    13    1
    87    22    20    1
    88    10    13    1
    89    10    11    2
    90    28    25    1
    91    18    15    1
    92    26    25    1
    93    13    15    1
    94    13    14    1
    95    15    16   am
    96    20    21   ar
    97    20    19   ar
    98    25    21    1
    99    25    27    1
   100    21    23   ar
   101    16    19    1
   102    16    17    2
   103    19    24   ar
   104    23    24   ar
@<TRIPOS>MOLECULE
crystal_redock_e24_er3_1.pdbqt
 102 104 0 0 0
SMALL
GASTEIGER

@<TRIPOS>ATOM
      1 C         -32.0650    9.4410   24.2980 C.3     1  UNL1        0.0890
      2 H         -31.5760    8.5850   24.7630 H       1  UNL1        0.0870
      3 N         -33.4300    9.4930   24.8010 N.am    1  UNL1       -0.3460
      4 C         -34.0260    8.3040   25.5120 C.2     1  UNL1        0.2410
      5 O         -33.3880    7.3140   25.6640 O.2     1  UNL1       -0.2710
      6 H         -33.9560   10.3430   24.6590 H       1  UNL1        0.1630
      7 C         -35.4370    8.3770   26.0310 C.3     1  UNL1        0.0920
      8 H         -35.7560    7.3830   26.3440 H       1  UNL1        0.0880
      9 N         -35.4780    9.2390   27.2160 N.am    1  UNL1       -0.3460
     10 C         -35.8550    8.6880   28.4950 C.2     1  UNL1        0.2400
     11 O         -36.1300    7.5540   28.5880 O.2     1  UNL1       -0.2710
     12 H         -35.2460   10.2200   27.1510 H       1  UNL1        0.1630
     13 C         -35.9000    9.6110   29.7520 C.3     1  UNL1        0.0860
     14 H         -35.7190    9.0690   30.6800 H       1  UNL1        0.0860
     15 N         -34.8480   10.6080   29.6420 N.am    1  UNL1       -0.3430
     16 C         -33.7050   10.5550   30.5560 C.2     1  UNL1        0.2730
     17 O         -33.6420    9.7080   31.3780 O.2     1  UNL1       -0.2660
     18 H         -34.9110   11.3310   28.9390 H       1  UNL1        0.1630
     19 C         -32.5860   11.6020   30.4500 C.ar    1  UNL1        0.1540
     20 C         -32.6800   12.9150   29.8890 C.ar    1  UNL1       -0.0170
     21 C         -31.3870   13.4670   30.0350 C.ar    1  UNL1        0.0770
     22 H         -33.5520   13.3950   29.4440 H       1  UNL1        0.0910
     23 O         -30.6460   12.5680   30.6150 O.2     1  UNL1       -0.2180
     24 N         -31.3230   11.4720   30.8670 N.ar    1  UNL1       -0.1230
     25 C         -30.9450   14.8560   29.5960 C.3     1  UNL1       -0.0290
     26 H         -31.4900   15.6080   30.1660 H       1  UNL1        0.0360
     27 H         -29.8760   14.9700   29.7750 H       1  UNL1        0.0360
     28 H         -31.1510   14.9850   28.5340 H       1  UNL1        0.0360
     29 C         -37.2450   10.2860   29.8360 C.3     1  UNL1       -0.0490
     30 H         -37.5300   10.6520   28.8490 H       1  UNL1        0.0300
     31 H         -37.9890    9.5710   30.1870 H       1  UNL1        0.0300
     32 H         -37.1890   11.1230   30.5320 H       1  UNL1        0.0300
     33 C         -36.3650    8.9690   24.9300 C.3     1  UNL1       -0.0330
     34 H         -35.9000    9.8860   24.5670 H       1  UNL1        0.0420
     35 C         -36.4980    7.9980   23.7160 C.3     1  UNL1       -0.0710
     36 H         -37.4720    8.1350   23.2460 H       1  UNL1        0.0280
     37 H         -35.7120    8.2120   22.9920 H       1  UNL1        0.0280
     38 H         -36.4040    6.9690   24.0620 H       1  UNL1        0.0280
     39 C         -37.7650    9.3380   25.5170 C.3     1  UNL1       -0.0710
     40 H         -38.3490    8.4280   25.6620 H       1  UNL1        0.0280
     41 H         -37.6370    9.8440   26.4740 H       1  UNL1        0.0280
     42 H         -38.2870    9.9980   24.8250 H       1  UNL1        0.0280
     43 C         -31.3580   10.7820   24.6450 C.2     1  UNL1        0.2400
     44 O         -30.8900   10.9410   25.7250 O.2     1  UNL1       -0.2710
     45 N         -31.2560   11.8660   23.6260 N.am    1  UNL1       -0.3550
     46 H         -31.6460   11.7400   22.7030 H       1  UNL1        0.1620
     47 C         -30.5790   13.1340   23.9710 C.3     1  UNL1        0.0130
     48 H         -29.9120   12.9410   24.8100 H       1  UNL1        0.0720
     49 C         -31.6160   14.1640   24.3610 C.3     1  UNL1       -0.0380
     50 H         -31.2570   15.1110   23.9570 H       1  UNL1        0.0360
     51 H         -32.5720   13.7580   24.0310 H       1  UNL1        0.0360
     52 C         -31.7260   14.3540   25.8890 C.3     1  UNL1        0.0180
     53 H         -31.0410   13.6280   26.3270 H       1  UNL1        0.0480
     54 H         -31.5760   15.4200   26.0660 H       1  UNL1        0.0480
     55 C         -33.1300   14.0180   26.4630 C.2     1  UNL1        0.2590
     56 O         -33.6310   12.9610   26.2520 O.2     1  UNL1       -0.2650
     57 O         -33.8200   14.9950   27.2340 O.3     1  UNL1       -0.3170
     58 C         -34.5010   15.9800   26.4520 C.3     1  UNL1        0.0520
     59 H         -34.3320   15.6990   25.4130 H       1  UNL1        0.0820
     60 H         -35.5150   16.0210   26.8480 H       1  UNL1        0.0820
     61 C         -33.8180   17.3500   26.7080 C.ar    1  UNL1       -0.0340
     62 C         -33.1890   17.5990   27.9240 C.ar    1  UNL1       -0.0750
     63 C         -32.5760   18.8300   28.1530 C.ar    1  UNL1       -0.0820
     64 H         -33.1770   16.8300   28.6970 H       1  UNL1        0.0840
     65 C         -32.5960   19.8150   27.1620 C.ar    1  UNL1       -0.0830
     66 H         -32.0830   19.0210   29.1070 H       1  UNL1        0.0830
     67 C         -33.2270   19.5630   25.9520 C.ar    1  UNL1       -0.0820
     68 H         -32.1180   20.7800   27.3340 H       1  UNL1        0.0830
     69 C         -33.8390   18.3330   25.7170 C.ar    1  UNL1       -0.0750
     70 H         -33.2420   20.3340   25.1820 H       1  UNL1        0.0830
     71 H         -34.3320   18.1430   24.7640 H       1  UNL1        0.0840
     72 C         -29.7860   13.6400   22.7680 C.3     1  UNL1       -0.0390
     73 H         -28.7930   13.8740   23.1530 H       1  UNL1        0.0360
     74 H         -29.9060   12.8770   21.9990 H       1  UNL1        0.0360
     75 C         -30.3980   15.0000   22.1830 C.3     1  UNL1       -0.0010
     76 C         -31.0310   14.7330   20.6890 C.3     1  UNL1       -0.0350
     77 C         -30.5280   15.6540   19.8320 C.3     1  UNL1        0.0850
     78 H         -30.6630   13.7870   20.2920 H       1  UNL1        0.0360
     79 H         -32.1000   14.9450   20.6920 H       1  UNL1        0.0360
     80 N         -29.3650   16.3170   20.5280 N.4     1  UNL1       -0.0490
     81 H         -30.1550   15.0850   18.9800 H       1  UNL1        0.0750
     82 H         -31.3230   16.3860   19.6920 H       1  UNL1        0.0750
     83 C         -29.4940   15.9170   22.0870 C.3     1  UNL1        0.1930
     84 H         -28.5280   15.8930   20.1550 H       1  UNL1        0.2800
     85 H         -29.5090   17.3130   20.4390 H       1  UNL1        0.2800
     86 H         -29.8640   16.6380   22.8150 H       1  UNL1        0.1290
     87 H         -31.0340   15.5110   22.9070 H       1  UNL1        0.0460
     88 O         -28.2290   15.4810   22.5900 O.3     1  UNL1       -0.3690
     89 H         -27.6110   16.2160   22.5820 H       1  UNL1        0.2120
     90 C         -32.1000    9.2560   22.7890 C.3     1  UNL1       -0.0350
     91 H         -33.0670    8.8020   22.5760 H       1  UNL1        0.0370
     92 H         -31.8530   10.2330   22.3730 H       1  UNL1        0.0370
     93 C         -31.0190    8.2630   22.2540 C.3     1  UNL1       -0.0590
     94 H         -31.3780    7.8630   21.3060 H       1  UNL1        0.0380
     95 C         -29.6510    8.9700   21.9870 C.3     1  UNL1       -0.0730
     96 H         -29.5200    9.1130   20.9150 H       1  UNL1        0.0280
     97 H         -29.6380    9.9380   22.4870 H       1  UNL1        0.0280
     98 H         -28.8410    8.3510   22.3720 H       1  UNL1        0.0280
     99 C         -30.8430    7.0800   23.2100 C.3     1  UNL1       -0.0730
    100 H         -31.7990    6.5720   23.3390 H       1  UNL1        0.0280
    101 H         -30.1140    6.3830   22.7960 H       1  UNL1        0.0280
    102 H         -30.4910    7.4420   24.1750 H       1  UNL1        0.0280
@<TRIPOS>BOND
     1    81    77    1
     2    82    77    1
     3    77    80    1
     4    77    76    1
     5    84    80    1
     6    78    76    1
     7    85    80    1
     8    80    83    1
     9    76    79    1
    10    76    75    1
    11    96    95    1
    12    94    93    1
    13    95    93    1
    14    95    98    1
    15    95    97    1
    16    74    72    1
    17    83    75    1
    18    83    88    1
    19    83    86    1
    20    75    72    1
    21    75    87    1
    22    93    90    1
    23    93    99    1
    24    92    90    1
    25    91    90    1
    26    89    88    1
    27    46    45    1
    28    72    73    1
    29    72    47    1
    30    90     1    1
    31   101    99    1
    32    37    35    1
    33    99   100    1
    34    99   102    1
    35    36    35    1
    36    45    47    1
    37    45    43   am
    38    35    38    1
    39    35    33    1
    40    50    49    1
    41    47    49    1
    42    47    48    1
    43    51    49    1
    44     1    43    1
    45     1     2    1
    46     1     3    1
    47    49    52    1
    48    34    33    1
    49    43    44    2
    50     6     3    1
    51    71    69    1
    52     3     4   am
    53    42    39    1
    54    33    39    1
    55    33     7    1
    56    70    67    1
    57    59    58    1
    58     4     5    2
    59     4     7    1
    60    39    40    1
    61    39    41    1
    62    69    67   ar
    63    69    61   ar
    64    52    54    1
    65    52    53    1
    66    52    55    1
    67    67    65   ar
    68     7     8    1
    69     7     9    1
    70    56    55    2
    71    58    61    1
    72    58    60    1
    73    58    57    1
    74    55    57    1
    75    61    62   ar
    76    12     9    1
    77    65    68    1
    78    65    63   ar
    79     9    10   am
    80    62    63   ar
    81    62    64    1
    82    63    66    1
    83    10    11    2
    84    10    13    1
    85    28    25    1
    86    30    29    1
    87    18    15    1
    88    22    20    1
    89    25    27    1
    90    25    21    1
    91    25    26    1
    92    15    13    1
    93    15    16   am
    94    13    29    1
    95    13    14    1
    96    29    31    1
    97    29    32    1
    98    20    21   ar
    99    20    19   ar
   100    21    23   ar
   101    19    16    1
   102    19    24   ar
   103    16    17    2
   104    23    24   ar
@<TRIPOS>MOLECULE
crystal_redock_e24_er3_1.pdbqt
 102 104 0 0 0
SMALL
GASTEIGER

@<TRIPOS>ATOM
      1 C         -32.4160    9.9160   24.6520 C.3     1  UNL1        0.0890
      2 H         -32.1980    9.0980   25.3400 H       1  UNL1        0.0870
      3 N         -33.7970   10.3180   24.8740 N.am    1  UNL1       -0.3460
      4 C         -34.4500   10.0950   26.2150 C.2     1  UNL1        0.2410
      5 O         -33.8440    9.5880   27.1000 O.2     1  UNL1       -0.2710
      6 H         -34.2970   10.7460   24.1070 H       1  UNL1        0.1630
      7 C         -35.8780   10.5230   26.4280 C.3     1  UNL1        0.0920
      8 H         -36.0310   10.7500   27.4830 H       1  UNL1        0.0880
      9 N         -36.1370   11.7550   25.6780 N.am    1  UNL1       -0.3460
     10 C         -36.9700   12.7850   26.2490 C.2     1  UNL1        0.2400
     11 O         -37.4410   12.6370   27.3100 O.2     1  UNL1       -0.2710
     12 H         -35.7390   11.8960   24.7600 H       1  UNL1        0.1630
     13 C         -37.2450   14.0930   25.4440 C.3     1  UNL1        0.0860
     14 H         -38.2180   14.5300   25.6690 H       1  UNL1        0.0860
     15 N         -36.2490   15.0870   25.8070 N.am    1  UNL1       -0.3430
     16 C         -36.5800   16.1120   26.7990 C.2     1  UNL1        0.2730
     17 O         -37.6520   16.1300   27.2980 O.2     1  UNL1       -0.2660
     18 H         -35.3360   15.0670   25.3740 H       1  UNL1        0.1630
     19 C         -35.5360   17.1690   27.1940 C.ar    1  UNL1        0.1540
     20 C         -34.4950   17.7050   26.3710 C.ar    1  UNL1       -0.0170
     21 C         -33.8200   18.6310   27.1960 C.ar    1  UNL1        0.0770
     22 H         -34.2650   17.4590   25.3340 H       1  UNL1        0.0910
     23 O         -34.4130   18.6220   28.3540 O.2     1  UNL1       -0.2180
     24 N         -35.4170   17.7760   28.3770 N.ar    1  UNL1       -0.1230
     25 C         -32.6210   19.4840   26.8020 C.3     1  UNL1       -0.0290
     26 H         -32.6330   19.6520   25.7260 H       1  UNL1        0.0360
     27 H         -32.6710   20.4420   27.3190 H       1  UNL1        0.0360
     28 H         -31.7020   18.9690   27.0790 H       1  UNL1        0.0360
     29 C         -37.1700   13.8030   23.9670 C.3     1  UNL1       -0.0490
     30 H         -38.1770   13.7870   23.5480 H       1  UNL1        0.0300
     31 H         -36.5840   14.5770   23.4730 H       1  UNL1        0.0300
     32 H         -36.6970   12.8330   23.8100 H       1  UNL1        0.0300
     33 C         -36.8350    9.4020   25.9260 C.3     1  UNL1       -0.0330
     34 H         -36.2620    8.4760   25.8810 H       1  UNL1        0.0420
     35 C         -38.0170    9.1750   26.9200 C.3     1  UNL1       -0.0710
     36 H         -38.8140    8.6270   26.4180 H       1  UNL1        0.0280
     37 H         -37.6650    8.6020   27.7770 H       1  UNL1        0.0280
     38 H         -38.3970   10.1390   27.2580 H       1  UNL1        0.0280
     39 C         -37.3580    9.7160   24.4870 C.3     1  UNL1       -0.0710
     40 H         -38.4000    9.4080   24.4040 H       1  UNL1        0.0280
     41 H         -37.2800   10.7880   24.2980 H       1  UNL1        0.0280
     42 H         -36.7580    9.1740   23.7560 H       1  UNL1        0.0280
     43 C         -31.4970   11.1470   24.8940 C.2     1  UNL1        0.2400
     44 O         -30.8010   11.1860   25.8560 O.2     1  UNL1       -0.2710
     45 N         -31.4790   12.2760   23.9200 N.am    1  UNL1       -0.3550
     46 H         -32.0620   12.2530   23.0960 H       1  UNL1        0.1620
     47 C         -30.5980   13.4390   24.1630 C.3     1  UNL1        0.0130
     48 H         -29.9030   13.1730   24.9590 H       1  UNL1        0.0720
     49 C         -31.4390   14.6220   24.5860 C.3     1  UNL1       -0.0380
     50 H         -30.8290   15.5040   24.3870 H       1  UNL1        0.0360
     51 H         -32.3980   14.4970   24.0830 H       1  UNL1        0.0360
     52 C         -31.7390   14.6330   26.1010 C.3     1  UNL1        0.0180
     53 H         -31.0330   13.9330   26.5470 H       1  UNL1        0.0480
     54 H         -31.7290   15.6820   26.3970 H       1  UNL1        0.0480
     55 C         -33.1540   14.1000   26.4630 C.2     1  UNL1        0.2590
     56 O         -33.7510   13.4100   25.7010 O.2     1  UNL1       -0.2650
     57 O         -33.7350   14.4570   27.7110 O.3     1  UNL1       -0.3170
     58 C         -32.7850   14.8690   28.6980 C.3     1  UNL1        0.0520
     59 H         -31.9340   15.2620   28.1430 H       1  UNL1        0.0820
     60 H         -33.3330   15.5150   29.3840 H       1  UNL1        0.0820
     61 C         -32.3250   13.6070   29.4750 C.ar    1  UNL1       -0.0340
     62 C         -31.1070   13.6090   30.1480 C.ar    1  UNL1       -0.0750
     63 C         -30.6930   12.4750   30.8460 C.ar    1  UNL1       -0.0820
     64 H         -30.4770   14.4980   30.1290 H       1  UNL1        0.0840
     65 C         -31.5010   11.3350   30.8670 C.ar    1  UNL1       -0.0830
     66 H         -29.7390   12.4800   31.3740 H       1  UNL1        0.0830
     67 C         -32.7130   11.3370   30.1920 C.ar    1  UNL1       -0.0820
     68 H         -31.1850   10.4450   31.4110 H       1  UNL1        0.0830
     69 C         -33.1320   12.4680   29.4950 C.ar    1  UNL1       -0.0750
     70 H         -33.3400   10.4450   30.2080 H       1  UNL1        0.0830
     71 H         -34.0870   12.4620   28.9670 H       1  UNL1        0.0840
     72 C         -29.8360   13.7860   22.8860 C.3     1  UNL1       -0.0390
     73 H         -28.8120   13.9840   23.2030 H       1  UNL1        0.0360
     74 H         -30.0440   12.9700   22.1930 H       1  UNL1        0.0360
     75 C         -30.3900   15.1300   22.2120 C.3     1  UNL1       -0.0010
     76 C         -31.0820   14.7850   20.7610 C.3     1  UNL1       -0.0350
     77 C         -30.5560   15.6050   19.8200 C.3     1  UNL1        0.0850
     78 H         -30.7810   13.7910   20.4300 H       1  UNL1        0.0360
     79 H         -32.1380   15.0580   20.7760 H       1  UNL1        0.0360
     80 N         -29.3370   16.2520   20.4310 N.4     1  UNL1       -0.0490
     81 H         -30.2420   14.9510   19.0060 H       1  UNL1        0.0750
     82 H         -31.3130   16.3690   19.6440 H       1  UNL1        0.0750
     83 C         -29.4390   15.9820   22.0190 C.3     1  UNL1        0.1930
     84 H         -28.5370   15.7520   20.0700 H       1  UNL1        0.2800
     85 H         -29.4280   17.2450   20.2660 H       1  UNL1        0.2800
     86 H         -29.7460   16.7780   22.6970 H       1  UNL1        0.1290
     87 H         -30.9730   15.7320   22.9090 H       1  UNL1        0.0460
     88 O         -28.1860   15.5140   22.5210 O.3     1  UNL1       -0.3690
     89 H         -27.4770   15.8260   21.9530 H       1  UNL1        0.2120
     90 C         -32.2630    9.4370   23.2180 C.3     1  UNL1       -0.0350
     91 H         -33.1100    8.7750   23.0420 H       1  UNL1        0.0370
     92 H         -32.1460   10.3420   22.6220 H       1  UNL1        0.0370
     93 C         -30.9790    8.5810   22.9770 C.3     1  UNL1       -0.0590
     94 H         -30.5000    8.4240   23.9430 H       1  UNL1        0.0380
     95 C         -31.3100    7.1780   22.3750 C.3     1  UNL1       -0.0730
     96 H         -31.3240    6.4350   23.1720 H       1  UNL1        0.0280
     97 H         -32.2860    7.2100   21.8920 H       1  UNL1        0.0280
     98 H         -30.5510    6.9090   21.6410 H       1  UNL1        0.0280
     99 C         -29.9800    9.3310   22.0910 C.3     1  UNL1       -0.0730
    100 H         -30.2630   10.3830   22.0340 H       1  UNL1        0.0280
    101 H         -28.9810    9.2470   22.5190 H       1  UNL1        0.0280
    102 H         -29.9840    8.8990   21.0910 H       1  UNL1        0.0280
@<TRIPOS>BOND
     1    81    77    1
     2    82    77    1
     3    77    80    1
     4    77    76    1
     5    84    80    1
     6    85    80    1
     7    78    76    1
     8    80    83    1
     9    76    79    1
    10    76    75    1
    11   102    99    1
    12    98    95    1
    13    97    95    1
    14    89    88    1
    15    83    75    1
    16    83    88    1
    17    83    86    1
    18   100    99    1
    19    99   101    1
    20    99    93    1
    21    74    72    1
    22    75    72    1
    23    75    87    1
    24    95    93    1
    25    95    96    1
    26    92    90    1
    27    72    73    1
    28    72    47    1
    29    93    90    1
    30    93    94    1
    31    91    90    1
    32    46    45    1
    33    90     1    1
    34    31    29    1
    35    30    29    1
    36    42    39    1
    37    32    29    1
    38    45    47    1
    39    45    43   am
    40    29    13    1
    41    51    49    1
    42     6     3    1
    43    47    49    1
    44    47    48    1
    45    41    39    1
    46    50    49    1
    47    40    39    1
    48    39    33    1
    49    49    52    1
    50     1     3    1
    51     1    43    1
    52     1     2    1
    53    12     9    1
    54     3     4   am
    55    43    44    2
    56    22    20    1
    57    18    15    1
    58    13    14    1
    59    13    15    1
    60    13    10    1
    61     9    10   am
    62     9     7    1
    63    56    55    2
    64    26    25    1
    65    15    16   am
    66    34    33    1
    67    33     7    1
    68    33    35    1
    69    52    54    1
    70    52    55    1
    71    52    53    1
    72     4     7    1
    73     4     5    2
    74    10    11    2
    75    20    19   ar
    76    20    21   ar
    77    36    35    1
    78     7     8    1
    79    55    57    1
    80    16    19    1
    81    16    17    2
    82    25    28    1
    83    25    21    1
    84    25    27    1
    85    35    38    1
    86    35    37    1
    87    19    24   ar
    88    21    23   ar
    89    57    58    1
    90    59    58    1
    91    23    24   ar
    92    58    60    1
    93    58    61    1
    94    71    69    1
    95    61    69   ar
    96    61    62   ar
    97    69    67   ar
    98    64    62    1
    99    62    63   ar
   100    67    70    1
   101    67    65   ar
   102    63    65   ar
   103    63    66    1
   104    65    68    1
@<TRIPOS>MOLECULE
crystal_redock_e24_er3_1.pdbqt
 102 104 0 0 0
SMALL
GASTEIGER

@<TRIPOS>ATOM
      1 C         -32.9640   12.0520   28.7940 C.3     1  UNL1        0.0890
      2 H         -33.1200   12.4130   29.8100 H       1  UNL1        0.0870
      3 N         -33.6930   10.8000   28.6560 N.am    1  UNL1       -0.3460
      4 C         -33.8550    9.8790   29.8390 C.2     1  UNL1        0.2410
      5 O         -33.3870   10.1660   30.8910 O.2     1  UNL1       -0.2710
      6 H         -34.0820   10.5740   27.7510 H       1  UNL1        0.1630
      7 C         -34.6170    8.5900   29.6800 C.3     1  UNL1        0.0920
      8 H         -35.5520    8.7890   29.1560 H       1  UNL1        0.0880
      9 N         -33.8430    7.6630   28.8490 N.am    1  UNL1       -0.3460
     10 C         -34.0740    7.6060   27.4260 C.2     1  UNL1        0.2400
     11 O         -34.8800    8.2980   26.9340 O.2     1  UNL1       -0.2710
     12 H         -33.1460    7.0590   29.2590 H       1  UNL1        0.1630
     13 C         -33.2490    6.6160   26.5470 C.3     1  UNL1        0.0860
     14 H         -33.8660    6.0740   25.8310 H       1  UNL1        0.0860
     15 N         -32.2770    7.3690   25.7730 N.am    1  UNL1       -0.3430
     16 C         -32.6000    7.7660   24.4010 C.2     1  UNL1        0.2730
     17 O         -33.6420    7.4710   23.9280 O.2     1  UNL1       -0.2660
     18 H         -31.3880    7.6150   26.1840 H       1  UNL1        0.1630
     19 C         -31.5820    8.5650   23.5710 C.ar    1  UNL1        0.1540
     20 C         -31.3680    9.9790   23.5940 C.ar    1  UNL1       -0.0170
     21 C         -30.3340   10.2050   22.6580 C.ar    1  UNL1        0.0770
     22 H         -31.8840   10.7270   24.1970 H       1  UNL1        0.0910
     23 O         -30.0000    9.0500   22.1630 O.2     1  UNL1       -0.2180
     24 N         -30.7140    8.0770   22.6800 N.ar    1  UNL1       -0.1230
     25 C         -29.7230   11.5530   22.2980 C.3     1  UNL1       -0.0290
     26 H         -29.9070   11.7660   21.2450 H       1  UNL1        0.0360
     27 H         -30.1760   12.3320   22.9100 H       1  UNL1        0.0360
     28 H         -28.6490   11.5260   22.4800 H       1  UNL1        0.0360
     29 C         -32.5440    5.6210   27.4340 C.3     1  UNL1       -0.0490
     30 H         -31.4760    5.8370   27.4440 H       1  UNL1        0.0300
     31 H         -32.9390    5.6930   28.4470 H       1  UNL1        0.0300
     32 H         -32.7070    4.6130   27.0510 H       1  UNL1        0.0300
     33 C         -34.8550    7.9520   31.0800 C.3     1  UNL1       -0.0330
     34 H         -34.0240    8.2470   31.7210 H       1  UNL1        0.0420
     35 C         -36.1660    8.4910   31.7350 C.3     1  UNL1       -0.0710
     36 H         -37.0080    8.3060   31.0670 H       1  UNL1        0.0280
     37 H         -36.3340    7.9800   32.6820 H       1  UNL1        0.0280
     38 H         -36.0700    9.5620   31.9110 H       1  UNL1        0.0280
     39 C         -34.8670    6.3920   30.9890 C.3     1  UNL1       -0.0710
     40 H         -35.3070    5.9790   31.8970 H       1  UNL1        0.0280
     41 H         -35.4560    6.0830   30.1260 H       1  UNL1        0.0280
     42 H         -33.8460    6.0270   30.8810 H       1  UNL1        0.0280
     43 C         -33.4930   13.0540   27.7270 C.2     1  UNL1        0.2400
     44 O         -33.4280   12.7770   26.5730 O.2     1  UNL1       -0.2710
     45 N         -34.0900   14.3540   28.1450 N.am    1  UNL1       -0.3550
     46 H         -34.1550   14.5980   29.1230 H       1  UNL1        0.1620
     47 C         -34.5900   15.2950   27.1190 C.3     1  UNL1        0.0130
     48 H         -34.0660   15.0830   26.1870 H       1  UNL1        0.0720
     49 C         -34.3060   16.7130   27.5600 C.3     1  UNL1       -0.0380
     50 H         -34.8510   17.3520   26.8660 H       1  UNL1        0.0360
     51 H         -34.5380   16.7410   28.6250 H       1  UNL1        0.0360
     52 C         -32.8160   17.0950   27.4280 C.3     1  UNL1        0.0180
     53 H         -32.7510   18.1390   27.7320 H       1  UNL1        0.0480
     54 H         -32.2650   16.3310   27.9780 H       1  UNL1        0.0480
     55 C         -32.2820   17.0400   25.9690 C.2     1  UNL1        0.2590
     56 O         -32.8490   17.6160   25.0980 O.2     1  UNL1       -0.2650
     57 O         -31.1140   16.2810   25.6830 O.3     1  UNL1       -0.3170
     58 C         -31.3690   15.0640   24.9750 C.3     1  UNL1        0.0520
     59 H         -30.8130   14.2920   25.5070 H       1  UNL1        0.0820
     60 H         -32.4530   14.9940   24.8900 H       1  UNL1        0.0820
     61 C         -30.7730   15.2060   23.5490 C.ar    1  UNL1       -0.0340
     62 C         -29.3940   15.1800   23.3650 C.ar    1  UNL1       -0.0750
     63 C         -28.8580   15.3070   22.0840 C.ar    1  UNL1       -0.0820
     64 H         -28.7330   15.0600   24.2240 H       1  UNL1        0.0840
     65 C         -29.7070   15.4630   20.9850 C.ar    1  UNL1       -0.0830
     66 H         -27.7770   15.2840   21.9430 H       1  UNL1        0.0830
     67 C         -31.0820   15.4920   21.1740 C.ar    1  UNL1       -0.0820
     68 H         -29.2960   15.5630   19.9800 H       1  UNL1        0.0830
     69 C         -31.6220   15.3630   22.4520 C.ar    1  UNL1       -0.0750
     70 H         -31.7410   15.6170   20.3150 H       1  UNL1        0.0830
     71 H         -32.7030   15.3860   22.5930 H       1  UNL1        0.0840
     72 C         -36.0950   15.1090   26.9370 C.3     1  UNL1       -0.0390
     73 H         -36.4180   14.5130   27.7910 H       1  UNL1        0.0360
     74 H         -36.4950   16.1110   26.7900 H       1  UNL1        0.0360
     75 C         -36.4320   14.2660   25.6170 C.3     1  UNL1       -0.0010
     76 C         -37.5420   15.0700   24.7080 C.3     1  UNL1       -0.0350
     77 C         -38.5590   14.2250   24.4130 C.3     1  UNL1        0.0850
     78 H         -38.0210   15.8460   25.3040 H       1  UNL1        0.0360
     79 H         -37.1210   15.3130   23.7330 H       1  UNL1        0.0360
     80 N         -38.4050   13.0190   25.3080 N.4     1  UNL1       -0.0490
     81 H         -39.4690   14.7580   24.6880 H       1  UNL1        0.0750
     82 H         -38.3950   13.9230   23.3790 H       1  UNL1        0.0750
     83 C         -36.9110   13.1040   25.9140 C.3     1  UNL1        0.1930
     84 H         -39.0650   13.1360   26.0620 H       1  UNL1        0.2800
     85 H         -38.4620   12.2090   24.7070 H       1  UNL1        0.2800
     86 H         -36.1200   12.4600   25.5300 H       1  UNL1        0.1290
     87 H         -35.5330   13.9170   25.1090 H       1  UNL1        0.0460
     88 O         -36.9380   12.8760   27.3250 O.3     1  UNL1       -0.3690
     89 H         -36.2540   12.2460   27.5600 H       1  UNL1        0.2120
     90 C         -31.4840   11.7930   28.5610 C.3     1  UNL1       -0.0350
     91 H         -31.3120   10.7740   28.9070 H       1  UNL1        0.0370
     92 H         -31.3060   12.0510   27.5170 H       1  UNL1        0.0370
     93 C         -30.5460   12.7110   29.4080 C.3     1  UNL1       -0.0590
     94 H         -29.5710   12.2270   29.4620 H       1  UNL1        0.0380
     95 C         -30.3470   14.1140   28.7530 C.3     1  UNL1       -0.0730
     96 H         -29.3310   14.1940   28.3670 H       1  UNL1        0.0280
     97 H         -31.0560   14.2380   27.9340 H       1  UNL1        0.0280
     98 H         -30.5140   14.8910   29.4990 H       1  UNL1        0.0280
     99 C         -31.0660   12.8480   30.8420 C.3     1  UNL1       -0.0730
    100 H         -32.0990   12.5030   30.8890 H       1  UNL1        0.0280
    101 H         -30.4510   12.2450   31.5110 H       1  UNL1        0.0280
    102 H         -31.0160   13.8930   31.1480 H       1  UNL1        0.0280
@<TRIPOS>BOND
     1    68    65    1
     2    70    67    1
     3    65    67   ar
     4    65    63   ar
     5    67    69   ar
     6    26    25    1
     7    66    63    1
     8    63    62   ar
     9    23    21   ar
    10    23    24   ar
    11    25    28    1
    12    25    21    1
    13    25    27    1
    14    69    71    1
    15    69    61   ar
    16    21    20   ar
    17    24    19   ar
    18    62    61   ar
    19    62    64    1
    20    82    77    1
    21    61    58    1
    22    19    20   ar
    23    19    16    1
    24    20    22    1
    25    79    76    1
    26    17    16    2
    27    16    15   am
    28    77    81    1
    29    77    76    1
    30    77    80    1
    31    85    80    1
    32    76    78    1
    33    76    75    1
    34    60    58    1
    35    58    59    1
    36    58    57    1
    37    56    55    2
    38    87    75    1
    39    80    83    1
    40    80    84    1
    41    86    83    1
    42    75    83    1
    43    75    72    1
    44    57    55    1
    45    15    18    1
    46    15    13    1
    47    14    13    1
    48    83    88    1
    49    55    52    1
    50    48    47    1
    51    13    10    1
    52    13    29    1
    53    44    43    2
    54    74    72    1
    55    50    49    1
    56    11    10    2
    57    72    47    1
    58    72    73    1
    59    32    29    1
    60    47    49    1
    61    47    45    1
    62    88    89    1
    63    10     9   am
    64    52    49    1
    65    52    53    1
    66    52    54    1
    67    29    30    1
    68    29    31    1
    69    92    90    1
    70    49    51    1
    71    43    45   am
    72    43     1    1
    73     6     3    1
    74    97    95    1
    75    45    46    1
    76    96    95    1
    77    90     1    1
    78    90    91    1
    79    90    93    1
    80     3     1    1
    81     3     4   am
    82    95    93    1
    83    95    98    1
    84     1     2    1
    85     9    12    1
    86     9     7    1
    87     8     7    1
    88    93    94    1
    89    93    99    1
    90     7     4    1
    91     7    33    1
    92     4     5    2
    93    41    39    1
    94    99   100    1
    95    99   102    1
    96    99   101    1
    97    42    39    1
    98    39    33    1
    99    39    40    1
   100    36    35    1
   101    33    34    1
   102    33    35    1
   103    35    38    1
   104    35    37    1
@<TRIPOS>MOLECULE
crystal_redock_e24_er3_1.pdbqt
 102 104 0 0 0
SMALL
GASTEIGER

@<TRIPOS>ATOM
      1 C         -35.1580    8.6380   27.1480 C.3     1  UNL1        0.0890
      2 H         -35.0230    7.8910   27.9310 H       1  UNL1        0.0870
      3 N         -34.1480    9.6670   27.3460 N.am    1  UNL1       -0.3460
      4 C         -33.4240    9.7800   28.6650 C.2     1  UNL1        0.2410
      5 O         -33.6750    9.0340   29.5530 O.2     1  UNL1       -0.2710
      6 H         -33.9510   10.2940   26.5790 H       1  UNL1        0.1630
      7 C         -32.3780   10.8470   28.8500 C.3     1  UNL1        0.0920
      8 H         -31.4510   10.5280   28.3740 H       1  UNL1        0.0880
      9 N         -32.8090   12.0770   28.1780 N.am    1  UNL1       -0.3460
     10 C         -32.0060   12.6390   27.1200 C.2     1  UNL1        0.2400
     11 O         -31.0100   12.1160   26.7980 O.2     1  UNL1       -0.2710
     12 H         -33.6650   12.5410   28.4470 H       1  UNL1        0.1630
     13 C         -32.4680   13.9500   26.4110 C.3     1  UNL1        0.0860
     14 H         -32.0860   14.8480   26.8950 H       1  UNL1        0.0860
     15 N         -31.9510   13.9580   25.0520 N.am    1  UNL1       -0.3430
     16 C         -31.2000   15.1210   24.5730 C.2     1  UNL1        0.2730
     17 O         -31.0200   16.0450   25.2880 O.2     1  UNL1       -0.2660
     18 H         -32.1120   13.1650   24.4480 H       1  UNL1        0.1630
     19 C         -30.6470   15.1420   23.1400 C.ar    1  UNL1        0.1540
     20 C         -31.2790   15.6850   21.9770 C.ar    1  UNL1       -0.0170
     21 C         -30.3650   15.4550   20.9250 C.ar    1  UNL1        0.0770
     22 H         -32.2530   16.1710   21.9070 H       1  UNL1        0.0910
     23 O         -29.3310   14.8520   21.4350 O.2     1  UNL1       -0.2180
     24 N         -29.4720   14.6580   22.7260 N.ar    1  UNL1       -0.1230
     25 C         -30.5550   15.8430   19.4640 C.3     1  UNL1       -0.0290
     26 H         -29.6780   16.3880   19.1160 H       1  UNL1        0.0360
     27 H         -30.6840   14.9430   18.8640 H       1  UNL1        0.0360
     28 H         -31.4370   16.4740   19.3680 H       1  UNL1        0.0360
     29 C         -33.9740   14.0090   26.3910 C.3     1  UNL1       -0.0490
     30 H         -34.3620   13.1980   25.7740 H       1  UNL1        0.0300
     31 H         -34.3550   13.9070   27.4060 H       1  UNL1        0.0300
     32 H         -34.2950   14.9650   25.9760 H       1  UNL1        0.0300
     33 C         -32.1880   11.1290   30.3700 C.3     1  UNL1       -0.0330
     34 H         -32.0780   10.1670   30.8710 H       1  UNL1        0.0420
     35 C         -30.8880   11.9490   30.6380 C.3     1  UNL1       -0.0710
     36 H         -30.4770   11.6720   31.6080 H       1  UNL1        0.0280
     37 H         -30.1570   11.7360   29.8590 H       1  UNL1        0.0280
     38 H         -31.1230   13.0140   30.6350 H       1  UNL1        0.0280
     39 C         -33.4430   11.8440   30.9670 C.3     1  UNL1       -0.0710
     40 H         -33.5630   12.8200   30.4960 H       1  UNL1        0.0280
     41 H         -34.3300   11.2380   30.7800 H       1  UNL1        0.0280
     42 H         -33.3110   11.9720   32.0410 H       1  UNL1        0.0280
     43 C         -34.9790    8.0360   25.7250 C.2     1  UNL1        0.2400
     44 O         -35.9170    7.5830   25.1530 O.2     1  UNL1       -0.2710
     45 N         -33.6400    8.0330   25.0710 N.am    1  UNL1       -0.3550
     46 H         -32.8360    8.4190   25.5450 H       1  UNL1        0.1620
     47 C         -33.4870    7.4590   23.7160 C.3     1  UNL1        0.0130
     48 H         -34.4800    7.2100   23.3430 H       1  UNL1        0.0720
     49 C         -32.6380    6.2100   23.7960 C.3     1  UNL1       -0.0380
     50 H         -33.2490    5.4110   23.3760 H       1  UNL1        0.0360
     51 H         -31.6870    6.4710   23.3320 H       1  UNL1        0.0360
     52 C         -32.3160    5.7960   25.2490 C.3     1  UNL1        0.0180
     53 H         -31.3140    5.3680   25.2180 H       1  UNL1        0.0480
     54 H         -32.5130    6.6780   25.8580 H       1  UNL1        0.0480
     55 C         -33.2420    4.6780   25.8010 C.2     1  UNL1        0.2590
     56 O         -33.4210    3.6810   25.1800 O.2     1  UNL1       -0.2650
     57 O         -33.8870    4.8640   27.0560 O.3     1  UNL1       -0.3170
     58 C         -35.3010    4.6490   27.0210 C.3     1  UNL1        0.0520
     59 H         -35.6810    5.3110   26.2420 H       1  UNL1        0.0820
     60 H         -35.4340    3.5710   26.9320 H       1  UNL1        0.0820
     61 C         -35.8880    5.1060   28.3830 C.ar    1  UNL1       -0.0340
     62 C         -37.2530    4.9930   28.6260 C.ar    1  UNL1       -0.0750
     63 C         -37.7810    5.4030   29.8500 C.ar    1  UNL1       -0.0820
     64 H         -37.9100    4.5830   27.8580 H       1  UNL1        0.0840
     65 C         -36.9380    5.9300   30.8320 C.ar    1  UNL1       -0.0830
     66 H         -38.8510    5.3110   30.0380 H       1  UNL1        0.0830
     67 C         -35.5770    6.0440   30.5830 C.ar    1  UNL1       -0.0820
     68 H         -37.3420    6.2530   31.7910 H       1  UNL1        0.0830
     69 C         -35.0450    5.6340   29.3630 C.ar    1  UNL1       -0.0750
     70 H         -34.9220    6.4590   31.3500 H       1  UNL1        0.0830
     71 H         -33.9750    5.7260   29.1750 H       1  UNL1        0.0840
     72 C         -32.8130    8.4750   22.7970 C.3     1  UNL1       -0.0390
     73 H         -32.6850    7.9630   21.8430 H       1  UNL1        0.0360
     74 H         -33.4300    9.3720   22.8550 H       1  UNL1        0.0360
     75 C         -31.3520    8.8710   23.3210 C.3     1  UNL1       -0.0010
     76 C         -31.3100   10.4690   23.7080 C.3     1  UNL1       -0.0350
     77 C         -30.2520   11.0410   23.0850 C.3     1  UNL1        0.0850
     78 H         -32.1690   10.9810   23.2750 H       1  UNL1        0.0360
     79 H         -31.0790   10.5920   24.7660 H       1  UNL1        0.0360
     80 N         -29.7630   10.0560   22.0510 N.4     1  UNL1       -0.0490
     81 H         -30.6530   11.9190   22.5770 H       1  UNL1        0.0750
     82 H         -29.4890   11.1580   23.8530 H       1  UNL1        0.0750
     83 C         -30.4550    8.6450   22.4200 C.3     1  UNL1        0.1930
     84 H         -30.1250   10.3690   21.1620 H       1  UNL1        0.2800
     85 H         -28.7650    9.9700   22.1880 H       1  UNL1        0.2800
     86 H         -29.8800    7.8560   22.9070 H       1  UNL1        0.1290
     87 H         -30.9770    8.1710   24.0670 H       1  UNL1        0.0460
     88 O         -31.0080    8.0450   21.2470 O.3     1  UNL1       -0.3690
     89 H         -31.6690    7.3960   21.5010 H       1  UNL1        0.2120
     90 C         -36.5370    9.2670   27.2680 C.3     1  UNL1       -0.0350
     91 H         -36.3590   10.3400   27.3380 H       1  UNL1        0.0370
     92 H         -37.1120    8.8620   26.4350 H       1  UNL1        0.0370
     93 C         -37.2990    8.8610   28.5690 C.3     1  UNL1       -0.0590
     94 H         -36.8960    7.9060   28.9040 H       1  UNL1        0.0380
     95 C         -37.0910    9.8960   29.7210 C.3     1  UNL1       -0.0730
     96 H         -37.7890    9.6850   30.5300 H       1  UNL1        0.0280
     97 H         -36.0700    9.8240   30.0950 H       1  UNL1        0.0280
     98 H         -37.2680   10.9020   29.3420 H       1  UNL1        0.0280
     99 C         -38.7890    8.6530   28.2870 C.3     1  UNL1       -0.0730
    100 H         -38.9100    7.8850   27.5220 H       1  UNL1        0.0280
    101 H         -39.2920    8.3360   29.2010 H       1  UNL1        0.0280
    102 H         -39.2270    9.5870   27.9380 H       1  UNL1        0.0280
@<TRIPOS>BOND
     1    27    25    1
     2    26    25    1
     3    28    25    1
     4    25    21    1
     5    21    23   ar
     6    21    20   ar
     7    84    80    1
     8    88    89    1
     9    88    83    1
    10    23    24   ar
    11    73    72    1
    12    22    20    1
    13    20    19   ar
    14    80    85    1
    15    80    83    1
    16    80    77    1
    17    83    86    1
    18    83    75    1
    19    81    77    1
    20    24    19   ar
    21    72    74    1
    22    72    75    1
    23    72    47    1
    24    77    76    1
    25    77    82    1
    26    19    16    1
    27    78    76    1
    28    75    76    1
    29    75    87    1
    30    51    49    1
    31    48    47    1
    32    50    49    1
    33    76    79    1
    34    47    49    1
    35    47    45    1
    36    49    52    1
    37    18    15    1
    38    16    15   am
    39    16    17    2
    40    15    13    1
    41    45    46    1
    42    45    43   am
    43    44    43    2
    44    56    55    2
    45    53    52    1
    46    52    55    1
    47    52    54    1
    48    43     1    1
    49    30    29    1
    50    55    57    1
    51    32    29    1
    52    59    58    1
    53    29    13    1
    54    29    31    1
    55    13    14    1
    56    13    10    1
    57    92    90    1
    58     6     3    1
    59    11    10    2
    60    60    58    1
    61    58    57    1
    62    58    61    1
    63    10     9   am
    64     1    90    1
    65     1     3    1
    66     1     2    1
    67    90    91    1
    68    90    93    1
    69     3     4   am
    70   100    99    1
    71    64    62    1
    72   102    99    1
    73     9    12    1
    74     9     7    1
    75    99    93    1
    76    99   101    1
    77     8     7    1
    78    61    62   ar
    79    61    69   ar
    80    93    94    1
    81    93    95    1
    82    62    63   ar
    83     4     7    1
    84     4     5    2
    85     7    33    1
    86    71    69    1
    87    98    95    1
    88    69    67   ar
    89    95    97    1
    90    95    96    1
    91    63    66    1
    92    63    65   ar
    93    37    35    1
    94    33    35    1
    95    33    34    1
    96    33    39    1
    97    40    39    1
    98    67    65   ar
    99    67    70    1
   100    38    35    1
   101    35    36    1
   102    41    39    1
   103    65    68    1
   104    39    42    1
@<TRIPOS>MOLECULE
crystal_redock_e24_er3_1.pdbqt
 102 104 0 0 0
SMALL
GASTEIGER

@<TRIPOS>ATOM
      1 C         -32.1900    7.0520   24.7740 C.3     1  UNL1        0.0890
      2 H         -31.1060    6.9820   24.8640 H       1  UNL1        0.0870
      3 N         -32.7640    5.9260   25.4950 N.am    1  UNL1       -0.3460
      4 C         -32.4550    5.7200   26.9570 C.2     1  UNL1        0.2410
      5 O         -31.7400    6.4730   27.5310 O.2     1  UNL1       -0.2710
      6 H         -33.3690    5.2960   24.9880 H       1  UNL1        0.1630
      7 C         -33.0630    4.5530   27.6890 C.3     1  UNL1        0.0920
      8 H         -32.3160    3.7650   27.7900 H       1  UNL1        0.0880
      9 N         -33.4410    4.9670   29.0430 N.am    1  UNL1       -0.3460
     10 C         -33.0480    4.1680   30.1770 C.2     1  UNL1        0.2400
     11 O         -32.4290    3.1880   30.0190 O.2     1  UNL1       -0.2710
     12 H         -33.9770    5.8100   29.1950 H       1  UNL1        0.1630
     13 C         -33.4570    4.6130   31.6160 C.3     1  UNL1        0.0860
     14 H         -32.8780    5.4640   31.9750 H       1  UNL1        0.0860
     15 N         -34.8480    5.0330   31.6020 N.am    1  UNL1       -0.3430
     16 C         -35.1730    6.4460   31.3940 C.2     1  UNL1        0.2730
     17 O         -34.3070    7.2370   31.2420 O.2     1  UNL1       -0.2660
     18 H         -35.5810    4.3510   31.7360 H       1  UNL1        0.1630
     19 C         -36.6390    6.9050   31.3760 C.ar    1  UNL1        0.1540
     20 C         -37.1240    8.2510   31.3390 C.ar    1  UNL1       -0.0170
     21 C         -38.5320    8.1300   31.3350 C.ar    1  UNL1        0.0770
     22 H         -36.5440    9.1730   31.3190 H       1  UNL1        0.0910
     23 O         -38.8120    6.8600   31.3650 O.2     1  UNL1       -0.2180
     24 N         -37.7240    6.1250   31.3890 N.ar    1  UNL1       -0.1230
     25 C         -39.5350    9.2750   31.3010 C.3     1  UNL1       -0.0290
     26 H         -39.1490   10.1130   31.8810 H       1  UNL1        0.0360
     27 H         -39.6930    9.5890   30.2700 H       1  UNL1        0.0360
     28 H         -40.4810    8.9430   31.7280 H       1  UNL1        0.0360
     29 C         -33.2750    3.4620   32.5720 C.3     1  UNL1       -0.0490
     30 H         -33.8400    2.6000   32.2150 H       1  UNL1        0.0300
     31 H         -32.2180    3.2030   32.6320 H       1  UNL1        0.0300
     32 H         -33.6350    3.7490   33.5600 H       1  UNL1        0.0300
     33 C         -34.3290    4.0640   26.9260 C.3     1  UNL1       -0.0330
     34 H         -34.3010    4.5020   25.9280 H       1  UNL1        0.0420
     35 C         -34.3280    2.5130   26.7580 C.3     1  UNL1       -0.0710
     36 H         -34.6800    2.2550   25.7590 H       1  UNL1        0.0280
     37 H         -33.3160    2.1330   26.8960 H       1  UNL1        0.0280
     38 H         -34.9890    2.0660   27.5010 H       1  UNL1        0.0280
     39 C         -35.6320    4.5570   27.6330 C.3     1  UNL1       -0.0710
     40 H         -35.5030    4.5010   28.7140 H       1  UNL1        0.0280
     41 H         -35.8350    5.5880   27.3440 H       1  UNL1        0.0280
     42 H         -36.4690    3.9260   27.3330 H       1  UNL1        0.0280
     43 C         -32.7450    8.3690   25.3890 C.2     1  UNL1        0.2400
     44 O         -33.9190    8.5520   25.4330 O.2     1  UNL1       -0.2710
     45 N         -31.8140    9.3990   25.9300 N.am    1  UNL1       -0.3550
     46 H         -30.8150    9.2530   25.9030 H       1  UNL1        0.1620
     47 C         -32.3570   10.6450   26.5130 C.3     1  UNL1        0.0130
     48 H         -33.4350   10.6500   26.3490 H       1  UNL1        0.0720
     49 C         -31.7250   11.8350   25.8270 C.3     1  UNL1       -0.0380
     50 H         -30.7140   11.9040   26.2290 H       1  UNL1        0.0360
     51 H         -31.8780   11.6740   24.7590 H       1  UNL1        0.0360
     52 C         -32.4250   13.1670   26.1720 C.3     1  UNL1        0.0180
     53 H         -32.8610   13.5220   25.2390 H       1  UNL1        0.0480
     54 H         -33.0670   12.9510   27.0270 H       1  UNL1        0.0480
     55 C         -31.4500   14.2830   26.6410 C.2     1  UNL1        0.2590
     56 O         -31.0510   14.3040   27.7600 O.2     1  UNL1       -0.2650
     57 O         -31.0490   15.2900   25.7200 O.3     1  UNL1       -0.3170
     58 C         -31.9770   15.5060   24.6520 C.3     1  UNL1        0.0520
     59 H         -32.7360   14.7300   24.7600 H       1  UNL1        0.0820
     60 H         -32.2590   16.5560   24.7140 H       1  UNL1        0.0820
     61 C         -31.2270   15.2770   23.3130 C.ar    1  UNL1       -0.0340
     62 C         -31.2690   16.2480   22.3170 C.ar    1  UNL1       -0.0750
     63 C         -30.5960   16.0420   21.1130 C.ar    1  UNL1       -0.0820
     64 H         -31.8290   17.1690   22.4790 H       1  UNL1        0.0840
     65 C         -29.8810   14.8590   20.9060 C.ar    1  UNL1       -0.0830
     66 H         -30.6300   16.8050   20.3350 H       1  UNL1        0.0830
     67 C         -29.8450   13.8930   21.9020 C.ar    1  UNL1       -0.0820
     68 H         -29.3520   14.6910   19.9690 H       1  UNL1        0.0830
     69 C         -30.5150   14.0940   23.1070 C.ar    1  UNL1       -0.0750
     70 H         -29.2880   12.9700   21.7370 H       1  UNL1        0.0830
     71 H         -30.4810   13.3310   23.8850 H       1  UNL1        0.0840
     72 C         -32.0480   10.6940   28.0080 C.3     1  UNL1       -0.0390
     73 H         -31.7310    9.6850   28.2720 H       1  UNL1        0.0360
     74 H         -31.3610   11.5310   28.1340 H       1  UNL1        0.0360
     75 C         -33.3550   11.0210   28.8730 C.3     1  UNL1       -0.0010
     76 C         -32.9550   11.9690   30.1570 C.3     1  UNL1       -0.0350
     77 C         -33.4540   11.4090   31.2850 C.3     1  UNL1        0.0850
     78 H         -31.8770   11.9460   30.3160 H       1  UNL1        0.0360
     79 H         -33.4780   12.9240   30.0940 H       1  UNL1        0.0360
     80 N         -33.8740   10.0020   30.9310 N.4     1  UNL1       -0.0490
     81 H         -32.6170   11.3650   31.9820 H       1  UNL1        0.0750
     82 H         -34.3400   11.9920   31.5320 H       1  UNL1        0.0750
     83 C         -33.9040    9.9400   29.3180 C.3     1  UNL1        0.1930
     84 H         -33.1400    9.3930   31.2630 H       1  UNL1        0.2800
     85 H         -34.8170    9.8910   31.2750 H       1  UNL1        0.2800
     86 H         -34.8520    9.9640   28.7810 H       1  UNL1        0.1290
     87 H         -34.1890   11.3520   28.2530 H       1  UNL1        0.0460
     88 O         -33.2330    8.7660   28.8570 O.3     1  UNL1       -0.3690
     89 H         -33.0120    8.8680   27.9280 H       1  UNL1        0.2120
     90 C         -32.5920    6.9620   23.3110 C.3     1  UNL1       -0.0350
     91 H         -32.7040    5.8970   23.1070 H       1  UNL1        0.0370
     92 H         -33.4480    7.6290   23.2050 H       1  UNL1        0.0370
     93 C         -31.4990    7.4860   22.3260 C.3     1  UNL1       -0.0590
     94 H         -31.7570    7.1340   21.3280 H       1  UNL1        0.0380
     95 C         -31.4460    9.0470   22.2820 C.3     1  UNL1       -0.0730
     96 H         -32.0470    9.4080   21.4480 H       1  UNL1        0.0280
     97 H         -31.8400    9.4510   23.2140 H       1  UNL1        0.0280
     98 H         -30.4140    9.3720   22.1530 H       1  UNL1        0.0280
     99 C         -30.1260    6.9040   22.6740 C.3     1  UNL1       -0.0730
    100 H         -30.2410    5.8670   22.9900 H       1  UNL1        0.0280
    101 H         -29.4810    6.9470   21.7960 H       1  UNL1        0.0280
    102 H         -29.6800    7.4840   23.4810 H       1  UNL1        0.0280
@<TRIPOS>BOND
     1    68    65    1
     2    66    63    1
     3    65    63   ar
     4    65    67   ar
     5    63    62   ar
     6    94    93    1
     7    96    95    1
     8    70    67    1
     9   101    99    1
    10    67    69   ar
    11    98    95    1
    12    95    93    1
    13    95    97    1
    14    62    64    1
    15    62    61   ar
    16    93    99    1
    17    93    90    1
    18    99   100    1
    19    99   102    1
    20    91    90    1
    21    69    61   ar
    22    69    71    1
    23    92    90    1
    24    90     1    1
    25    61    58    1
    26    58    60    1
    27    58    59    1
    28    58    57    1
    29    51    49    1
    30     1     2    1
    31     1    43    1
    32     1     3    1
    33     6     3    1
    34    53    52    1
    35    43    44    2
    36    43    45   am
    37     3     4   am
    38    57    55    1
    39    36    35    1
    40    49    52    1
    41    49    50    1
    42    49    47    1
    43    46    45    1
    44    34    33    1
    45    45    47    1
    46    52    55    1
    47    52    54    1
    48    48    47    1
    49    47    72    1
    50    55    56    2
    51    35    37    1
    52    35    33    1
    53    35    38    1
    54    33    39    1
    55    33     7    1
    56     4     5    2
    57     4     7    1
    58    42    39    1
    59    41    39    1
    60    39    40    1
    61     7     8    1
    62     7     9    1
    63    89    88    1
    64    72    74    1
    65    72    73    1
    66    72    75    1
    67    87    75    1
    68    86    83    1
    69    88    83    1
    70    75    83    1
    71    75    76    1
    72     9    12    1
    73     9    10   am
    74    83    80    1
    75    11    10    2
    76    79    76    1
    77    76    78    1
    78    76    77    1
    79    10    13    1
    80    27    25    1
    81    80    84    1
    82    80    85    1
    83    80    77    1
    84    17    16    2
    85    77    82    1
    86    77    81    1
    87    25    21    1
    88    25    28    1
    89    25    26    1
    90    22    20    1
    91    21    20   ar
    92    21    23   ar
    93    20    19   ar
    94    23    24   ar
    95    19    24   ar
    96    19    16    1
    97    16    15   am
    98    15    13    1
    99    15    18    1
   100    13    14    1
   101    13    29    1
   102    30    29    1
   103    29    31    1
   104    29    32    1
@<TRIPOS>MOLECULE
crystal_redock_e24_er3_1.pdbqt
 102 104 0 0 0
SMALL
GASTEIGER

@<TRIPOS>ATOM
      1 C         -34.9410    8.3420   31.2220 C.3     1  UNL1        0.0890
      2 H         -34.5400    8.4190   32.2330 H       1  UNL1        0.0870
      3 N         -34.0360    9.0600   30.3370 N.am    1  UNL1       -0.3460
      4 C         -33.4730   10.3980   30.7450 C.2     1  UNL1        0.2410
      5 O         -33.7650   10.8780   31.7900 O.2     1  UNL1       -0.2710
      6 H         -33.8020    8.6350   29.4500 H       1  UNL1        0.1630
      7 C         -32.5340   11.1250   29.8180 C.3     1  UNL1        0.0920
      8 H         -31.8450   10.4080   29.3720 H       1  UNL1        0.0880
      9 N         -33.2980   11.7300   28.7240 N.am    1  UNL1       -0.3460
     10 C         -33.4420   11.0300   27.4710 C.2     1  UNL1        0.2400
     11 O         -32.9480    9.9780   27.3270 O.2     1  UNL1       -0.2710
     12 H         -33.7290   12.6370   28.8330 H       1  UNL1        0.1630
     13 C         -34.2530   11.6810   26.3090 C.3     1  UNL1        0.0860
     14 H         -35.0090   12.3820   26.6630 H       1  UNL1        0.0860
     15 N         -33.3440   12.4400   25.4660 N.am    1  UNL1       -0.3430
     16 C         -33.0130   13.8210   25.8230 C.2     1  UNL1        0.2730
     17 O         -33.4860   14.3130   26.7880 O.2     1  UNL1       -0.2660
     18 H         -32.9470   12.0120   24.6420 H       1  UNL1        0.1630
     19 C         -32.0520   14.6350   24.9420 C.ar    1  UNL1        0.1540
     20 C         -31.0640   14.1250   24.0410 C.ar    1  UNL1       -0.0170
     21 C         -30.4570   15.2720   23.4820 C.ar    1  UNL1        0.0770
     22 H         -30.8250   13.0840   23.8260 H       1  UNL1        0.0910
     23 O         -31.0360   16.3120   24.0060 O.2     1  UNL1       -0.2180
     24 N         -31.9700   15.9660   24.8620 N.ar    1  UNL1       -0.1230
     25 C         -29.3330   15.2860   22.4550 C.3     1  UNL1       -0.0290
     26 H         -29.6620   15.8190   21.5630 H       1  UNL1        0.0360
     27 H         -28.4620   15.7870   22.8770 H       1  UNL1        0.0360
     28 H         -29.0700   14.2620   22.1890 H       1  UNL1        0.0360
     29 C         -34.9300   10.6040   25.4990 C.3     1  UNL1       -0.0490
     30 H         -34.2300   10.2090   24.7630 H       1  UNL1        0.0300
     31 H         -35.2520    9.8000   26.1620 H       1  UNL1        0.0300
     32 H         -35.7970   11.0230   24.9880 H       1  UNL1        0.0300
     33 C         -31.7890   12.2410   30.6070 C.3     1  UNL1       -0.0330
     34 H         -32.3030   12.3710   31.5590 H       1  UNL1        0.0420
     35 C         -30.3170   11.8280   30.9220 C.3     1  UNL1       -0.0710
     36 H         -29.6680   12.6990   30.8310 H       1  UNL1        0.0280
     37 H         -30.2590   11.4360   31.9370 H       1  UNL1        0.0280
     38 H         -29.9960   11.0610   30.2170 H       1  UNL1        0.0280
     39 C         -31.8430   13.6000   29.8380 C.3     1  UNL1       -0.0710
     40 H         -32.4290   14.3190   30.4120 H       1  UNL1        0.0280
     41 H         -30.8310   13.9820   29.7030 H       1  UNL1        0.0280
     42 H         -32.3060   13.4480   28.8630 H       1  UNL1        0.0280
     43 C         -35.0380    6.8660   30.7400 C.2     1  UNL1        0.2400
     44 O         -35.5550    6.0510   31.4330 O.2     1  UNL1       -0.2710
     45 N         -34.4930    6.4700   29.4100 N.am    1  UNL1       -0.3550
     46 H         -34.0560    7.1550   28.8100 H       1  UNL1        0.1620
     47 C         -34.5940    5.0630   28.9660 C.3     1  UNL1        0.0130
     48 H         -34.9520    4.4710   29.8080 H       1  UNL1        0.0720
     49 C         -33.2300    4.5760   28.5340 C.3     1  UNL1       -0.0380
     50 H         -32.5130    5.2450   29.0120 H       1  UNL1        0.0360
     51 H         -33.2140    3.5100   28.7580 H       1  UNL1        0.0360
     52 C         -33.0010    4.7060   27.0120 C.3     1  UNL1        0.0180
     53 H         -32.3380    3.8860   26.7420 H       1  UNL1        0.0480
     54 H         -33.9950    4.7730   26.5690 H       1  UNL1        0.0480
     55 C         -32.2600    6.0090   26.5990 C.2     1  UNL1        0.2590
     56 O         -31.8870    6.7780   27.4250 O.2     1  UNL1       -0.2650
     57 O         -32.0440    6.2790   25.2200 O.3     1  UNL1       -0.3170
     58 C         -32.7250    7.4430   24.7410 C.3     1  UNL1        0.0520
     59 H         -33.5100    7.0740   24.0800 H       1  UNL1        0.0820
     60 H         -32.9860    8.0180   25.6280 H       1  UNL1        0.0820
     61 C         -31.7210    8.2710   23.8960 C.ar    1  UNL1       -0.0340
     62 C         -30.7980    7.6260   23.0800 C.ar    1  UNL1       -0.0750
     63 C         -29.8960    8.3700   22.3210 C.ar    1  UNL1       -0.0820
     64 H         -30.7800    6.5360   23.0350 H       1  UNL1        0.0840
     65 C         -29.9180    9.7660   22.3820 C.ar    1  UNL1       -0.0830
     66 H         -29.1740    7.8610   21.6810 H       1  UNL1        0.0830
     67 C         -30.8390   10.4060   23.2000 C.ar    1  UNL1       -0.0820
     68 H         -29.2170   10.3550   21.7910 H       1  UNL1        0.0830
     69 C         -31.7440    9.6660   23.9590 C.ar    1  UNL1       -0.0750
     70 H         -30.8520   11.4950   23.2470 H       1  UNL1        0.0830
     71 H         -32.4650   10.1760   24.5980 H       1  UNL1        0.0840
     72 C         -35.5670    4.9610   27.7930 C.3     1  UNL1       -0.0390
     73 H         -35.0690    5.4560   26.9590 H       1  UNL1        0.0360
     74 H         -35.8270    3.9050   27.7230 H       1  UNL1        0.0360
     75 C         -36.9240    5.7630   28.0770 C.3     1  UNL1       -0.0010
     76 C         -37.9190    4.8630   29.0270 C.3     1  UNL1       -0.0350
     77 C         -39.1410    4.8030   28.4460 C.3     1  UNL1        0.0850
     78 H         -37.5900    3.8240   29.0350 H       1  UNL1        0.0360
     79 H         -38.1090    5.3820   29.9670 H       1  UNL1        0.0360
     80 N         -38.9820    5.3030   27.0310 N.4     1  UNL1       -0.0490
     81 H         -39.4010    3.7450   28.4230 H       1  UNL1        0.0750
     82 H         -39.7630    5.5040   29.0020 H       1  UNL1        0.0750
     83 C         -37.5450    6.0360   26.9780 C.3     1  UNL1        0.1930
     84 H         -38.9480    4.4840   26.4400 H       1  UNL1        0.2800
     85 H         -39.7030    5.9970   26.8900 H       1  UNL1        0.2800
     86 H         -37.4780    7.1240   26.9770 H       1  UNL1        0.1290
     87 H         -36.7390    6.7920   28.3880 H       1  UNL1        0.0460
     88 O         -36.8150    5.6080   25.8260 O.3     1  UNL1       -0.3690
     89 H         -36.6850    6.3530   25.2350 H       1  UNL1        0.2120
     90 C         -36.3140    8.9910   31.1610 C.3     1  UNL1       -0.0350
     91 H         -36.9460    8.3920   31.8170 H       1  UNL1        0.0370
     92 H         -36.1450   10.0450   31.3800 H       1  UNL1        0.0370
     93 C         -36.9710    8.9340   29.7450 C.3     1  UNL1       -0.0590
     94 H         -36.4180    8.2060   29.1530 H       1  UNL1        0.0380
     95 C         -38.4610    8.4680   29.8050 C.3     1  UNL1       -0.0730
     96 H         -38.9610    8.9530   30.6430 H       1  UNL1        0.0280
     97 H         -38.9650    8.7380   28.8770 H       1  UNL1        0.0280
     98 H         -38.4980    7.3870   29.9370 H       1  UNL1        0.0280
     99 C         -36.8520   10.2840   29.0330 C.3     1  UNL1       -0.0730
    100 H         -37.1530   11.0820   29.7120 H       1  UNL1        0.0280
    101 H         -35.8180   10.4420   28.7230 H       1  UNL1        0.0280
    102 H         -37.4980   10.2900   28.1550 H       1  UNL1        0.0280
@<TRIPOS>BOND
     1    26    25    1
     2    66    63    1
     3    68    65    1
     4    28    25    1
     5    63    65   ar
     6    63    62   ar
     7    65    67   ar
     8    25    27    1
     9    25    21    1
    10    64    62    1
    11    62    61   ar
    12    67    70    1
    13    67    69   ar
    14    21    23   ar
    15    21    20   ar
    16    22    20    1
    17    61    69   ar
    18    61    58    1
    19    69    71    1
    20    23    24   ar
    21    20    19   ar
    22    59    58    1
    23    18    15    1
    24    58    57    1
    25    58    60    1
    26    30    29    1
    27    24    19   ar
    28    19    16    1
    29    32    29    1
    30    57    55    1
    31    89    88    1
    32    15    16   am
    33    15    13    1
    34    29    31    1
    35    29    13    1
    36    16    17    2
    37    88    83    1
    38    13    14    1
    39    13    10    1
    40    84    80    1
    41    54    52    1
    42    55    52    1
    43    55    56    2
    44    53    52    1
    45    85    80    1
    46    73    72    1
    47    86    83    1
    48    83    80    1
    49    83    75    1
    50    52    49    1
    51    80    77    1
    52    11    10    2
    53    10     9   am
    54    74    72    1
    55    72    75    1
    56    72    47    1
    57    75    87    1
    58    75    76    1
    59   102    99    1
    60    81    77    1
    61    77    82    1
    62    77    76    1
    63    49    51    1
    64    49    47    1
    65    49    50    1
    66   101    99    1
    67     9    12    1
    68     9     7    1
    69    46    45    1
    70    42    39    1
    71    97    95    1
    72    47    45    1
    73    47    48    1
    74    76    78    1
    75    76    79    1
    76    99   100    1
    77    99    93    1
    78    94    93    1
    79     8     7    1
    80    45    43   am
    81     6     3    1
    82    41    39    1
    83    93    95    1
    84    93    90    1
    85    95    98    1
    86    95    96    1
    87     7    33    1
    88     7     4    1
    89    39    40    1
    90    39    33    1
    91    38    35    1
    92     3     4   am
    93     3     1    1
    94    33    35    1
    95    33    34    1
    96    43     1    1
    97    43    44    2
    98     4     5    2
    99    36    35    1
   100    35    37    1
   101    90     1    1
   102    90    92    1
   103    90    91    1
   104     1     2    1
@<TRIPOS>MOLECULE
crystal_redock_e24_er3_1.pdbqt
 102 104 0 0 0
SMALL
GASTEIGER

@<TRIPOS>ATOM
      1 C         -30.7660   14.2140   24.1040 C.3     1  UNL1        0.0890
      2 H         -29.6860   14.1930   23.9580 H       1  UNL1        0.0870
      3 N         -31.2100   12.8410   24.2890 N.am    1  UNL1       -0.3460
      4 C         -30.6380   11.7350   23.4390 C.2     1  UNL1        0.2410
      5 O         -29.8230   11.9750   22.6100 O.2     1  UNL1       -0.2710
      6 H         -31.9060   12.6570   24.9980 H       1  UNL1        0.1630
      7 C         -31.1050   10.3180   23.6470 C.3     1  UNL1        0.0920
      8 H         -30.6270    9.9100   24.5380 H       1  UNL1        0.0880
      9 N         -32.5510   10.3100   23.8890 N.am    1  UNL1       -0.3460
     10 C         -33.0550   10.3370   25.2400 C.2     1  UNL1        0.2400
     11 O         -32.3120   10.3650   26.1430 O.2     1  UNL1       -0.2710
     12 H         -33.2040   10.2850   23.1190 H       1  UNL1        0.1630
     13 C         -34.5950   10.3260   25.4910 C.3     1  UNL1        0.0860
     14 H         -35.1490    9.8390   24.6880 H       1  UNL1        0.0860
     15 N         -34.8690    9.5710   26.7020 N.am    1  UNL1       -0.3430
     16 C         -35.1220    8.1310   26.6130 C.2     1  UNL1        0.2730
     17 O         -35.1050    7.5900   25.5630 O.2     1  UNL1       -0.2660
     18 H         -34.8840   10.0420   27.5960 H       1  UNL1        0.1630
     19 C         -35.4120    7.3200   27.8860 C.ar    1  UNL1        0.1540
     20 C         -36.6910    7.0550   28.4700 C.ar    1  UNL1       -0.0170
     21 C         -36.4140    6.2760   29.6150 C.ar    1  UNL1        0.0770
     22 H         -37.6710    7.3790   28.1170 H       1  UNL1        0.0910
     23 O         -35.1240    6.1160   29.6720 O.2     1  UNL1       -0.2180
     24 N         -34.5180    6.7170   28.6740 N.ar    1  UNL1       -0.1230
     25 C         -37.4370    5.7230   30.5990 C.3     1  UNL1       -0.0290
     26 H         -38.3940    6.2190   30.4450 H       1  UNL1        0.0360
     27 H         -37.5530    4.6520   30.4390 H       1  UNL1        0.0360
     28 H         -37.0940    5.9030   31.6180 H       1  UNL1        0.0360
     29 C         -35.0940   11.7410   25.6400 C.3     1  UNL1       -0.0490
     30 H         -35.6850   11.8230   26.5510 H       1  UNL1        0.0300
     31 H         -34.2440   12.4210   25.6950 H       1  UNL1        0.0300
     32 H         -35.7120   12.0000   24.7800 H       1  UNL1        0.0300
     33 C         -30.7890    9.4760   22.3760 C.3     1  UNL1       -0.0330
     34 H         -30.6870   10.1680   21.5400 H       1  UNL1        0.0420
     35 C         -29.4360    8.7120   22.5210 C.3     1  UNL1       -0.0710
     36 H         -28.6110    9.4220   22.4690 H       1  UNL1        0.0280
     37 H         -29.4120    8.1960   23.4810 H       1  UNL1        0.0280
     38 H         -29.3410    7.9850   21.7150 H       1  UNL1        0.0280
     39 C         -31.9610    8.4950   22.0500 C.3     1  UNL1       -0.0710
     40 H         -31.5850    7.4720   22.0340 H       1  UNL1        0.0280
     41 H         -32.7350    8.5860   22.8130 H       1  UNL1        0.0280
     42 H         -32.3830    8.7440   21.0760 H       1  UNL1        0.0280
     43 C         -31.1730   15.0390   25.3590 C.2     1  UNL1        0.2400
     44 O         -30.9710   16.2100   25.3880 O.2     1  UNL1       -0.2710
     45 N         -31.8210   14.3690   26.5230 N.am    1  UNL1       -0.3550
     46 H         -32.0010   13.3760   26.5090 H       1  UNL1        0.1620
     47 C         -32.2020   15.1680   27.7080 C.3     1  UNL1        0.0130
     48 H         -31.2990   15.6280   28.1070 H       1  UNL1        0.0720
     49 C         -32.8200   14.2570   28.7460 C.3     1  UNL1       -0.0380
     50 H         -32.5270   14.6700   29.7120 H       1  UNL1        0.0360
     51 H         -33.8750   14.1830   28.4810 H       1  UNL1        0.0360
     52 C         -32.2550   12.8210   28.6960 C.3     1  UNL1        0.0180
     53 H         -33.0850   12.1880   28.3840 H       1  UNL1        0.0480
     54 H         -31.3540   12.8800   28.0840 H       1  UNL1        0.0480
     55 C         -31.7990   12.2790   30.0790 C.2     1  UNL1        0.2590
     56 O         -31.0620   12.9140   30.7630 O.2     1  UNL1       -0.2650
     57 O         -32.2620   11.0070   30.5160 O.3     1  UNL1       -0.3170
     58 C         -33.1550   10.3670   29.6000 C.3     1  UNL1        0.0520
     59 H         -33.4360   11.1330   28.8780 H       1  UNL1        0.0820
     60 H         -32.6400    9.4660   29.2660 H       1  UNL1        0.0820
     61 C         -34.4240    9.9430   30.3870 C.ar    1  UNL1       -0.0340
     62 C         -34.3130    9.1000   31.4870 C.ar    1  UNL1       -0.0750
     63 C         -35.4530    8.7190   32.1930 C.ar    1  UNL1       -0.0820
     64 H         -33.3320    8.7370   31.7960 H       1  UNL1        0.0840
     65 C         -36.7090    9.1830   31.7940 C.ar    1  UNL1       -0.0830
     66 H         -35.3620    8.0590   33.0570 H       1  UNL1        0.0830
     67 C         -36.8150   10.0220   30.6930 C.ar    1  UNL1       -0.0820
     68 H         -37.6050    8.8910   32.3400 H       1  UNL1        0.0830
     69 C         -35.6780   10.4070   29.9850 C.ar    1  UNL1       -0.0750
     70 H         -37.7970   10.3800   30.3820 H       1  UNL1        0.0830
     71 H         -35.7700   11.0670   29.1220 H       1  UNL1        0.0840
     72 C         -33.2120   16.2400   27.3050 C.3     1  UNL1       -0.0390
     73 H         -33.3650   16.8450   28.2000 H       1  UNL1        0.0360
     74 H         -32.8060   16.6970   26.4030 H       1  UNL1        0.0360
     75 C         -34.6300   15.6040   26.9170 C.3     1  UNL1       -0.0010
     76 C         -34.8720   15.7230   25.2950 C.3     1  UNL1       -0.0350
     77 C         -36.0840   16.2870   25.0750 C.3     1  UNL1        0.0850
     78 H         -34.1740   16.4420   24.8650 H       1  UNL1        0.0360
     79 H         -34.9690   14.7300   24.8570 H       1  UNL1        0.0360
     80 N         -36.5490   16.8610   26.3910 N.4     1  UNL1       -0.0490
     81 H         -35.9020   17.1030   24.3750 H       1  UNL1        0.0750
     82 H         -36.7400   15.4640   24.7940 H       1  UNL1        0.0750
     83 C         -35.5960   16.2120   27.5210 C.3     1  UNL1        0.1930
     84 H         -36.3690   17.8540   26.3500 H       1  UNL1        0.2800
     85 H         -37.4910   16.5240   26.5320 H       1  UNL1        0.2800
     86 H         -35.9640   15.4110   28.1620 H       1  UNL1        0.1290
     87 H         -34.7810   14.6240   27.3700 H       1  UNL1        0.0460
     88 O         -35.1240   17.2260   28.4090 O.3     1  UNL1       -0.3690
     89 H         -34.3390   16.9120   28.8650 H       1  UNL1        0.2120
     90 C         -31.4430   14.7930   22.8720 C.3     1  UNL1       -0.0350
     91 H         -31.7950   13.9320   22.3050 H       1  UNL1        0.0370
     92 H         -32.1560   15.5250   23.2510 H       1  UNL1        0.0370
     93 C         -30.4690   15.5710   21.9300 C.3     1  UNL1       -0.0590
     94 H         -30.6920   16.6330   22.0280 H       1  UNL1        0.0380
     95 C         -28.9720   15.3600   22.3260 C.3     1  UNL1       -0.0730
     96 H         -28.3300   15.8080   21.5690 H       1  UNL1        0.0280
     97 H         -28.7810   15.8330   23.2890 H       1  UNL1        0.0280
     98 H         -28.7620   14.2930   22.3970 H       1  UNL1        0.0280
     99 C         -30.7040   15.1910   20.4660 C.3     1  UNL1       -0.0730
    100 H         -30.9250   14.1250   20.3980 H       1  UNL1        0.0280
    101 H         -31.5450   15.7610   20.0720 H       1  UNL1        0.0280
    102 H         -29.8100   15.4140   19.8850 H       1  UNL1        0.0280
@<TRIPOS>BOND
     1   102    99    1
     2   101    99    1
     3   100    99    1
     4    99    93    1
     5    42    39    1
     6    34    33    1
     7    96    95    1
     8    38    35    1
     9    93    94    1
    10    93    95    1
    11    93    90    1
    12    40    39    1
    13    39    33    1
    14    39    41    1
    15    91    90    1
    16    95    98    1
    17    95    97    1
    18    33    35    1
    19    33     7    1
    20    36    35    1
    21    35    37    1
    22     5     4    2
    23    90    92    1
    24    90     1    1
    25    12     9    1
    26     4     7    1
    27     4     3   am
    28     7     9    1
    29     7     8    1
    30     9    10   am
    31     2     1    1
    32     1     3    1
    33     1    43    1
    34     3     6    1
    35    81    77    1
    36    14    13    1
    37    32    29    1
    38    82    77    1
    39    79    76    1
    40    78    76    1
    41    77    76    1
    42    77    80    1
    43    10    13    1
    44    10    11    2
    45    76    75    1
    46    43    44    2
    47    43    45   am
    48    13    29    1
    49    13    15    1
    50    17    16    2
    51    29    31    1
    52    29    30    1
    53    84    80    1
    54    80    85    1
    55    80    83    1
    56    74    72    1
    57    46    45    1
    58    45    47    1
    59    16    15   am
    60    16    19    1
    61    15    18    1
    62    75    72    1
    63    75    87    1
    64    75    83    1
    65    72    47    1
    66    72    73    1
    67    83    86    1
    68    83    88    1
    69    47    48    1
    70    47    49    1
    71    19    20   ar
    72    19    24   ar
    73    54    52    1
    74    22    20    1
    75    53    52    1
    76    88    89    1
    77    20    21   ar
    78    51    49    1
    79    24    23   ar
    80    52    49    1
    81    52    55    1
    82    49    50    1
    83    59    58    1
    84    71    69    1
    85    60    58    1
    86    58    61    1
    87    58    57    1
    88    21    23   ar
    89    21    25    1
    90    69    61   ar
    91    69    67   ar
    92    55    57    1
    93    55    56    2
    94    70    67    1
    95    61    62   ar
    96    27    25    1
    97    26    25    1
    98    25    28    1
    99    67    65   ar
   100    62    64    1
   101    62    63   ar
   102    65    63   ar
   103    65    68    1
   104    63    66    1
@<TRIPOS>MOLECULE
crystal_redock_e24_er3_1.pdbqt
 102 104 0 0 0
SMALL
GASTEIGER

@<TRIPOS>ATOM
      1 C         -33.9750    7.2500   25.2750 C.3     1  UNL1        0.0890
      2 H         -33.0580    6.7190   25.5330 H       1  UNL1        0.0870
      3 N         -34.7690    7.3680   26.4890 N.am    1  UNL1       -0.3460
      4 C         -34.1110    7.7270   27.7980 C.2     1  UNL1        0.2410
      5 O         -32.9400    7.9140   27.8490 O.2     1  UNL1       -0.2710
      6 H         -35.7630    7.2020   26.4240 H       1  UNL1        0.1630
      7 C         -34.9490    7.8500   29.0430 C.3     1  UNL1        0.0920
      8 H         -34.6550    7.0740   29.7510 H       1  UNL1        0.0880
      9 N         -34.6870    9.1420   29.6840 N.am    1  UNL1       -0.3460
     10 C         -34.4590    9.2080   31.1070 C.2     1  UNL1        0.2400
     11 O         -34.4860    8.2310   31.7510 O.2     1  UNL1       -0.2710
     12 H         -34.6630    9.9930   29.1410 H       1  UNL1        0.1630
     13 C         -34.1840   10.5870   31.7830 C.3     1  UNL1        0.0860
     14 H         -33.3530   10.5520   32.4870 H       1  UNL1        0.0860
     15 N         -33.8210   11.5510   30.7580 N.am    1  UNL1       -0.3430
     16 C         -32.4150   11.9210   30.5810 C.2     1  UNL1        0.2730
     17 O         -31.5840   11.4400   31.2710 O.2     1  UNL1       -0.2660
     18 H         -34.5380   11.9590   30.1740 H       1  UNL1        0.1630
     19 C         -32.0170   12.9380   29.5000 C.ar    1  UNL1        0.1540
     20 C         -32.7370   14.1110   29.1080 C.ar    1  UNL1       -0.0170
     21 C         -31.9550   14.6940   28.0870 C.ar    1  UNL1        0.0770
     22 H         -33.6830   14.4820   29.5050 H       1  UNL1        0.0910
     23 O         -30.9090   13.9380   27.9210 O.2     1  UNL1       -0.2180
     24 N         -30.9230   12.9070   28.7330 N.ar    1  UNL1       -0.1230
     25 C         -32.2760   15.9720   27.3240 C.3     1  UNL1       -0.0290
     26 H         -31.3520   16.4170   26.9550 H       1  UNL1        0.0360
     27 H         -32.9280   15.7380   26.4820 H       1  UNL1        0.0360
     28 H         -32.7780   16.6750   27.9880 H       1  UNL1        0.0360
     29 C         -35.4200   11.0480   32.5120 C.3     1  UNL1       -0.0490
     30 H         -35.9130   11.8300   31.9320 H       1  UNL1        0.0300
     31 H         -36.1020   10.2080   32.6390 H       1  UNL1        0.0300
     32 H         -35.1410   11.4420   33.4890 H       1  UNL1        0.0300
     33 C         -36.4560    7.7580   28.6650 C.3     1  UNL1       -0.0330
     34 H         -36.5200    7.3150   27.6710 H       1  UNL1        0.0420
     35 C         -37.2320    6.8230   29.6450 C.3     1  UNL1       -0.0710
     36 H         -38.3030    6.9960   29.5410 H       1  UNL1        0.0280
     37 H         -37.0070    5.7830   29.4090 H       1  UNL1        0.0280
     38 H         -36.9280    7.0370   30.6690 H       1  UNL1        0.0280
     39 C         -37.1050    9.1780   28.6040 C.3     1  UNL1       -0.0710
     40 H         -38.1870    9.0790   28.5140 H       1  UNL1        0.0280
     41 H         -36.8650    9.7270   29.5160 H       1  UNL1        0.0280
     42 H         -36.7160    9.7190   27.7420 H       1  UNL1        0.0280
     43 C         -33.6920    8.6790   24.7280 C.2     1  UNL1        0.2400
     44 O         -34.4000    9.1430   23.8930 O.2     1  UNL1       -0.2710
     45 N         -32.5440    9.4720   25.2510 N.am    1  UNL1       -0.3550
     46 H         -31.9390    9.0910   25.9640 H       1  UNL1        0.1620
     47 C         -32.2890   10.8300   24.7220 C.3     1  UNL1        0.0130
     48 H         -32.8520   10.9390   23.7950 H       1  UNL1        0.0720
     49 C         -30.8110   10.9910   24.4510 C.3     1  UNL1       -0.0380
     50 H         -30.5930   12.0450   24.6240 H       1  UNL1        0.0360
     51 H         -30.3170   10.2260   25.0510 H       1  UNL1        0.0360
     52 C         -30.4360   10.7030   22.9810 C.3     1  UNL1        0.0180
     53 H         -31.3530   10.8420   22.4100 H       1  UNL1        0.0480
     54 H         -29.5640   11.3240   22.7720 H       1  UNL1        0.0480
     55 C         -29.9890    9.2370   22.7240 C.2     1  UNL1        0.2590
     56 O         -29.0090    9.0070   22.0930 O.2     1  UNL1       -0.2650
     57 O         -30.7740    8.1690   23.2420 O.3     1  UNL1       -0.3170
     58 C         -30.4720    6.8940   22.6690 C.3     1  UNL1        0.0520
     59 H         -29.5600    7.0400   22.0890 H       1  UNL1        0.0820
     60 H         -30.4830    6.1870   23.4980 H       1  UNL1        0.0820
     61 C         -31.6210    6.5240   21.6930 C.ar    1  UNL1       -0.0340
     62 C         -31.7030    5.2380   21.1690 C.ar    1  UNL1       -0.0750
     63 C         -32.7340    4.9050   20.2930 C.ar    1  UNL1       -0.0820
     64 H         -30.9590    4.4900   21.4460 H       1  UNL1        0.0840
     65 C         -33.6850    5.8660   19.9370 C.ar    1  UNL1       -0.0830
     66 H         -32.7970    3.8960   19.8850 H       1  UNL1        0.0830
     67 C         -33.5970    7.1490   20.4600 C.ar    1  UNL1       -0.0820
     68 H         -34.4950    5.6140   19.2530 H       1  UNL1        0.0830
     69 C         -32.5690    7.4850   21.3380 C.ar    1  UNL1       -0.0750
     70 H         -34.3390    7.8970   20.1790 H       1  UNL1        0.0830
     71 H         -32.5070    8.4950   21.7450 H       1  UNL1        0.0840
     72 C         -32.7390   11.8740   25.7410 C.3     1  UNL1       -0.0390
     73 H         -32.4770   11.4600   26.7160 H       1  UNL1        0.0360
     74 H         -32.2930   12.8120   25.4110 H       1  UNL1        0.0360
     75 C         -34.3280   12.0740   25.7240 C.3     1  UNL1       -0.0010
     76 C         -34.6900   13.6780   25.6820 C.3     1  UNL1       -0.0350
     77 C         -35.5760   13.9510   26.6700 C.3     1  UNL1        0.0850
     78 H         -33.8140   14.2660   25.9550 H       1  UNL1        0.0360
     79 H         -35.2430   13.9130   24.7720 H       1  UNL1        0.0360
     80 N         -35.6000   12.7510   27.5850 N.4     1  UNL1       -0.0490
     81 H         -35.1570   14.8010   27.2090 H       1  UNL1        0.0750
     82 H         -36.5430   14.0410   26.1770 H       1  UNL1        0.0750
     83 C         -34.8750   11.5590   26.7740 C.3     1  UNL1        0.1930
     84 H         -35.0310   12.9890   28.3850 H       1  UNL1        0.2800
     85 H         -36.5730   12.5090   27.7120 H       1  UNL1        0.2800
     86 H         -35.4630   10.7610   26.3190 H       1  UNL1        0.1290
     87 H         -34.8160   11.4360   24.9880 H       1  UNL1        0.0460
     88 O         -33.9220   10.9010   27.6110 O.3     1  UNL1       -0.3690
     89 H         -34.3810   10.3290   28.2310 H       1  UNL1        0.2120
     90 C         -34.7590    6.4540   24.2450 C.3     1  UNL1       -0.0350
     91 H         -35.8080    6.6080   24.4980 H       1  UNL1        0.0370
     92 H         -34.3780    6.7810   23.2770 H       1  UNL1        0.0370
     93 C         -34.5090    4.9140   24.3200 C.3     1  UNL1       -0.0590
     94 H         -35.0590    4.5320   25.1800 H       1  UNL1        0.0380
     95 C         -35.0330    4.1690   23.0510 C.3     1  UNL1       -0.0730
     96 H         -34.6240    3.1600   23.0270 H       1  UNL1        0.0280
     97 H         -36.1210    4.1180   23.0820 H       1  UNL1        0.0280
     98 H         -34.7210    4.7090   22.1580 H       1  UNL1        0.0280
     99 C         -33.0270    4.6110   24.5560 C.3     1  UNL1       -0.0730
    100 H         -32.9240    3.6170   24.9910 H       1  UNL1        0.0280
    101 H         -32.4920    4.6500   23.6070 H       1  UNL1        0.0280
    102 H         -32.6090    5.3520   25.2380 H       1  UNL1        0.0280
@<TRIPOS>BOND
     1    68    65    1
     2    66    63    1
     3    65    63   ar
     4    65    67   ar
     5    70    67    1
     6    63    62   ar
     7    67    69   ar
     8    62    64    1
     9    62    61   ar
    10    69    61   ar
    11    69    71    1
    12    61    58    1
    13    59    58    1
    14    56    55    2
    15    98    95    1
    16    53    52    1
    17    58    57    1
    18    58    60    1
    19    55    52    1
    20    55    57    1
    21    54    52    1
    22    52    49    1
    23    96    95    1
    24    95    97    1
    25    95    93    1
    26    92    90    1
    27   101    99    1
    28    48    47    1
    29    44    43    2
    30    90    93    1
    31    90    91    1
    32    90     1    1
    33    93    99    1
    34    93    94    1
    35    49    50    1
    36    49    47    1
    37    49    51    1
    38    99   100    1
    39    99   102    1
    40    47    45    1
    41    47    72    1
    42    43    45   am
    43    43     1    1
    44    79    76    1
    45    87    75    1
    46    45    46    1
    47     1     2    1
    48     1     3    1
    49    74    72    1
    50    76    75    1
    51    76    78    1
    52    76    77    1
    53    75    72    1
    54    75    83    1
    55    72    73    1
    56    82    77    1
    57    86    83    1
    58     6     3    1
    59    27    25    1
    60     3     4   am
    61    77    81    1
    62    77    80    1
    63    83    80    1
    64    83    88    1
    65    26    25    1
    66    25    28    1
    67    25    21    1
    68    80    85    1
    69    80    84    1
    70    88    89    1
    71    34    33    1
    72    42    39    1
    73     4     5    2
    74     4     7    1
    75    23    21   ar
    76    23    24   ar
    77    21    20   ar
    78    40    39    1
    79    39    33    1
    80    39    41    1
    81    33     7    1
    82    33    35    1
    83    24    19   ar
    84     7     9    1
    85     7     8    1
    86    20    19   ar
    87    20    22    1
    88    12     9    1
    89    37    35    1
    90    19    16    1
    91    36    35    1
    92    35    38    1
    93     9    10   am
    94    18    15    1
    95    16    15   am
    96    16    17    2
    97    15    13    1
    98    10    11    2
    99    10    13    1
   100    13    14    1
   101    13    29    1
   102    30    29    1
   103    29    31    1
   104    29    32    1
@<TRIPOS>MOLECULE
crystal_redock_e24_er3_1.pdbqt
 102 104 0 0 0
SMALL
GASTEIGER

@<TRIPOS>ATOM
      1 C         -32.1750    8.9160   24.6780 C.3     1  UNL1        0.0890
      2 H         -31.1760    8.4960   24.7970 H       1  UNL1        0.0870
      3 N         -33.1140    7.8060   24.6270 N.am    1  UNL1       -0.3460
      4 C         -32.6230    6.3860   24.7560 C.2     1  UNL1        0.2410
      5 O         -31.4660    6.1620   24.8970 O.2     1  UNL1       -0.2710
      6 H         -34.0940    8.0180   24.5040 H       1  UNL1        0.1630
      7 C         -33.6100    5.2490   24.7070 C.3     1  UNL1        0.0920
      8 H         -33.0760    4.3060   24.8200 H       1  UNL1        0.0880
      9 N         -34.5390    5.3590   25.8350 N.am    1  UNL1       -0.3460
     10 C         -34.3440    4.5460   27.0110 C.2     1  UNL1        0.2400
     11 O         -33.4450    3.7980   27.0640 O.2     1  UNL1       -0.2710
     12 H         -35.3190    5.9990   25.8030 H       1  UNL1        0.1630
     13 C         -35.3380    4.6650   28.2080 C.3     1  UNL1        0.0860
     14 H         -35.0200    4.0910   29.0780 H       1  UNL1        0.0860
     15 N         -35.4050    6.0550   28.6280 N.am    1  UNL1       -0.3430
     16 C         -35.1930    6.3940   30.0370 C.2     1  UNL1        0.2730
     17 O         -34.9710    5.5410   30.8250 O.2     1  UNL1       -0.2660
     18 H         -35.5970    6.7770   27.9480 H       1  UNL1        0.1630
     19 C         -35.2600    7.8590   30.4950 C.ar    1  UNL1        0.1540
     20 C         -35.1540    8.3520   31.8340 C.ar    1  UNL1       -0.0170
     21 C         -35.2780    9.7540   31.7160 C.ar    1  UNL1        0.0770
     22 H         -35.0100    7.7800   32.7510 H       1  UNL1        0.0910
     23 O         -35.4340   10.0240   30.4540 O.2     1  UNL1       -0.2180
     24 N         -35.4270    8.9350   29.7210 N.ar    1  UNL1       -0.1230
     25 C         -35.2340   10.7620   32.8570 C.3     1  UNL1       -0.0290
     26 H         -35.7090   10.3340   33.7390 H       1  UNL1        0.0360
     27 H         -34.1970   11.0070   33.0860 H       1  UNL1        0.0360
     28 H         -35.7640   11.6680   32.5630 H       1  UNL1        0.0360
     29 C         -36.7020    4.1880   27.7810 C.3     1  UNL1       -0.0490
     30 H         -36.6240    3.6720   26.8240 H       1  UNL1        0.0300
     31 H         -37.0990    3.5040   28.5300 H       1  UNL1        0.0300
     32 H         -37.3710    5.0430   27.6780 H       1  UNL1        0.0300
     33 C         -34.4090    5.3140   23.3720 C.3     1  UNL1       -0.0330
     34 H         -34.7970    6.3270   23.2700 H       1  UNL1        0.0420
     35 C         -33.4870    5.0390   22.1440 C.3     1  UNL1       -0.0710
     36 H         -32.5540    5.5910   22.2580 H       1  UNL1        0.0280
     37 H         -33.2730    3.9720   22.0820 H       1  UNL1        0.0280
     38 H         -33.9900    5.3620   21.2320 H       1  UNL1        0.0280
     39 C         -35.6240    4.3320   23.4000 C.3     1  UNL1       -0.0710
     40 H         -35.2600    3.3050   23.4480 H       1  UNL1        0.0280
     41 H         -36.2400    4.5400   24.2760 H       1  UNL1        0.0280
     42 H         -36.2200    4.4660   22.4980 H       1  UNL1        0.0280
     43 C         -32.5670    9.8430   25.8640 C.2     1  UNL1        0.2400
     44 O         -32.9320    9.3680   26.8900 O.2     1  UNL1       -0.2710
     45 N         -32.4790   11.3250   25.7230 N.am    1  UNL1       -0.3550
     46 H         -32.1660   11.7400   24.8580 H       1  UNL1        0.1620
     47 C         -32.8540   12.1920   26.8610 C.3     1  UNL1        0.0130
     48 H         -33.3510   11.5720   27.6060 H       1  UNL1        0.0720
     49 C         -33.7960   13.2720   26.3760 C.3     1  UNL1       -0.0380
     50 H         -33.4750   13.5090   25.3620 H       1  UNL1        0.0360
     51 H         -34.8000   12.8880   26.5550 H       1  UNL1        0.0360
     52 C         -33.6770   14.5790   27.1890 C.3     1  UNL1        0.0180
     53 H         -34.6840   14.8010   27.5410 H       1  UNL1        0.0480
     54 H         -32.8740   14.4090   27.9070 H       1  UNL1        0.0480
     55 C         -33.2410   15.8070   26.3410 C.2     1  UNL1        0.2590
     56 O         -33.9530   16.7530   26.2390 O.2     1  UNL1       -0.2650
     57 O         -31.9840   15.7830   25.6760 O.3     1  UNL1       -0.3170
     58 C         -32.0230   16.2940   24.3400 C.3     1  UNL1        0.0520
     59 H         -33.0650   16.2250   24.0280 H       1  UNL1        0.0820
     60 H         -31.5300   17.2640   24.3820 H       1  UNL1        0.0820
     61 C         -31.1780   15.3520   23.4420 C.ar    1  UNL1       -0.0340
     62 C         -30.9530   14.0350   23.8310 C.ar    1  UNL1       -0.0750
     63 C         -30.1930   13.1890   23.0250 C.ar    1  UNL1       -0.0820
     64 H         -31.3700   13.6660   24.7690 H       1  UNL1        0.0840
     65 C         -29.6560   13.6640   21.8260 C.ar    1  UNL1       -0.0830
     66 H         -30.0200   12.1570   23.3320 H       1  UNL1        0.0830
     67 C         -29.8800   14.9800   21.4430 C.ar    1  UNL1       -0.0820
     68 H         -29.0610   13.0090   21.1890 H       1  UNL1        0.0830
     69 C         -30.6410   15.8280   22.2450 C.ar    1  UNL1       -0.0750
     70 H         -29.4580   15.3480   20.5080 H       1  UNL1        0.0830
     71 H         -30.8140   16.8600   21.9370 H       1  UNL1        0.0840
     72 C         -31.6030   12.8360   27.4550 C.3     1  UNL1       -0.0390
     73 H         -30.8210   12.6920   26.7080 H       1  UNL1        0.0360
     74 H         -31.9030   13.8430   27.7420 H       1  UNL1        0.0360
     75 C         -31.1270   12.0860   28.7880 C.3     1  UNL1       -0.0010
     76 C         -32.4300   11.4680   29.5780 C.3     1  UNL1       -0.0350
     77 C         -32.3860   11.8680   30.8720 C.3     1  UNL1        0.0850
     78 H         -33.3460   11.9230   29.2020 H       1  UNL1        0.0360
     79 H         -32.3470   10.3830   29.6440 H       1  UNL1        0.0360
     80 N         -31.3540   12.9670   30.9590 N.4     1  UNL1       -0.0490
     81 H         -33.3700   12.2870   31.0800 H       1  UNL1        0.0750
     82 H         -32.0310   11.0040   31.4320 H       1  UNL1        0.0750
     83 C         -30.5110   12.8940   29.5840 C.3     1  UNL1        0.1930
     84 H         -31.8650   13.8380   30.9770 H       1  UNL1        0.2800
     85 H         -30.7420   12.7240   31.7250 H       1  UNL1        0.2800
     86 H         -29.5100   12.4620   29.5710 H       1  UNL1        0.1290
     87 H         -30.2910   11.4100   28.6060 H       1  UNL1        0.0460
     88 O         -30.3700   14.2010   29.0230 O.3     1  UNL1       -0.3690
     89 H         -30.3890   14.8550   29.7260 H       1  UNL1        0.2120
     90 C         -32.2550    9.6940   23.3740 C.3     1  UNL1       -0.0350
     91 H         -33.1550    9.3330   22.8770 H       1  UNL1        0.0370
     92 H         -32.1720   10.7430   23.6580 H       1  UNL1        0.0370
     93 C         -31.0690    9.4050   22.3990 C.3     1  UNL1       -0.0590
     94 H         -31.1050   10.1500   21.6040 H       1  UNL1        0.0380
     95 C         -29.6810    9.5300   23.1060 C.3     1  UNL1       -0.0730
     96 H         -29.7480   10.2600   23.9120 H       1  UNL1        0.0280
     97 H         -29.3940    8.5620   23.5160 H       1  UNL1        0.0280
     98 H         -28.9330    9.8540   22.3830 H       1  UNL1        0.0280
     99 C         -31.2230    8.0310   21.7410 C.3     1  UNL1       -0.0730
    100 H         -32.1930    7.6080   22.0070 H       1  UNL1        0.0280
    101 H         -31.1580    8.1370   20.6580 H       1  UNL1        0.0280
    102 H         -30.4300    7.3700   22.0900 H       1  UNL1        0.0280
@<TRIPOS>BOND
     1    70    67    1
     2   101    99    1
     3    68    65    1
     4    38    35    1
     5    67    65   ar
     6    67    69   ar
     7    94    93    1
     8    99   100    1
     9    99   102    1
    10    99    93    1
    11    65    63   ar
    12    71    69    1
    13    37    35    1
    14    35    36    1
    15    35    33    1
    16    69    61   ar
    17    98    95    1
    18    93    95    1
    19    93    90    1
    20    42    39    1
    21    91    90    1
    22    63    66    1
    23    63    62   ar
    24    95    97    1
    25    95    96    1
    26    34    33    1
    27    33    39    1
    28    33     7    1
    29    90    92    1
    30    90     1    1
    31    39    40    1
    32    39    41    1
    33    61    62   ar
    34    61    58    1
    35    62    64    1
    36    59    58    1
    37    58    60    1
    38    58    57    1
    39     6     3    1
    40     3     1    1
    41     3     4   am
    42     1     2    1
    43     1    43    1
    44     7     4    1
    45     7     8    1
    46     7     9    1
    47     4     5    2
    48    46    45    1
    49    50    49    1
    50    57    55    1
    51    45    43   am
    52    45    47    1
    53    12     9    1
    54     9    10   am
    55    43    44    2
    56    56    55    2
    57    55    52    1
    58    49    51    1
    59    49    47    1
    60    49    52    1
    61    73    72    1
    62    30    29    1
    63    47    72    1
    64    47    48    1
    65    10    11    2
    66    10    13    1
    67    52    53    1
    68    52    54    1
    69    72    74    1
    70    72    75    1
    71    32    29    1
    72    29    13    1
    73    29    31    1
    74    18    15    1
    75    13    15    1
    76    13    14    1
    77    87    75    1
    78    15    16   am
    79    75    76    1
    80    75    83    1
    81    88    83    1
    82    88    89    1
    83    78    76    1
    84    86    83    1
    85    76    79    1
    86    76    77    1
    87    83    80    1
    88    24    23   ar
    89    24    19   ar
    90    16    19    1
    91    16    17    2
    92    23    21   ar
    93    19    20   ar
    94    77    80    1
    95    77    81    1
    96    77    82    1
    97    80    84    1
    98    80    85    1
    99    21    20   ar
   100    21    25    1
   101    20    22    1
   102    28    25    1
   103    25    27    1
   104    25    26    1
@<TRIPOS>MOLECULE
crystal_redock_e24_er3_1.pdbqt
 102 104 0 0 0
SMALL
GASTEIGER

@<TRIPOS>ATOM
      1 C         -33.9820    6.8400   27.8120 C.3     1  UNL1        0.0890
      2 H         -33.0320    6.4690   27.4260 H       1  UNL1        0.0870
      3 N         -33.6900    7.9670   28.6860 N.am    1  UNL1       -0.3460
      4 C         -32.9970    9.1910   28.1440 C.2     1  UNL1        0.2410
      5 O         -32.6810    9.2460   27.0020 O.2     1  UNL1       -0.2710
      6 H         -33.9650    7.8990   29.6560 H       1  UNL1        0.1630
      7 C         -32.7080   10.3500   29.0620 C.3     1  UNL1        0.0920
      8 H         -31.6520   10.3400   29.3300 H       1  UNL1        0.0880
      9 N         -32.9630   11.6090   28.3550 N.am    1  UNL1       -0.3460
     10 C         -31.8680   12.4940   28.0410 C.2     1  UNL1        0.2400
     11 O         -30.7760   12.2090   28.3500 O.2     1  UNL1       -0.2710
     12 H         -33.9010   11.8690   28.0830 H       1  UNL1        0.1630
     13 C         -32.1470   13.8340   27.2910 C.3     1  UNL1        0.0860
     14 H         -31.5710   14.6680   27.6910 H       1  UNL1        0.0860
     15 N         -31.7530   13.6860   25.9000 N.am    1  UNL1       -0.3430
     16 C         -31.3030   14.8600   25.1490 C.2     1  UNL1        0.2730
     17 O         -31.2640   15.9190   25.6720 O.2     1  UNL1       -0.2660
     18 H         -31.7920   12.7770   25.4590 H       1  UNL1        0.1630
     19 C         -30.8820   14.7180   23.6780 C.ar    1  UNL1        0.1540
     20 C         -31.2640   15.5590   22.5840 C.ar    1  UNL1       -0.0170
     21 C         -30.6150   15.0070   21.4570 C.ar    1  UNL1        0.0770
     22 H         -31.9120   16.4360   22.6050 H       1  UNL1        0.0910
     23 O         -29.9420   13.9710   21.8670 O.2     1  UNL1       -0.2180
     24 N         -30.0820   13.7830   23.1590 N.ar    1  UNL1       -0.1230
     25 C         -30.6900   15.5280   20.0280 C.3     1  UNL1       -0.0290
     26 H         -31.0170   16.5670   20.0370 H       1  UNL1        0.0360
     27 H         -29.7060   15.4620   19.5660 H       1  UNL1        0.0360
     28 H         -31.4000   14.9280   19.4590 H       1  UNL1        0.0360
     29 C         -33.6150   14.1670   27.3800 C.3     1  UNL1       -0.0490
     30 H         -34.1060   13.4670   28.0560 H       1  UNL1        0.0300
     31 H         -33.7340   15.1820   27.7580 H       1  UNL1        0.0300
     32 H         -34.0650   14.0920   26.3900 H       1  UNL1        0.0300
     33 C         -33.6310   10.2640   30.3120 C.3     1  UNL1       -0.0330
     34 H         -33.4260    9.3150   30.8070 H       1  UNL1        0.0420
     35 C         -33.3150   11.4030   31.3320 C.3     1  UNL1       -0.0710
     36 H         -32.2490   11.4000   31.5610 H       1  UNL1        0.0280
     37 H         -33.5910   12.3640   30.9000 H       1  UNL1        0.0280
     38 H         -33.8830   11.2390   32.2470 H       1  UNL1        0.0280
     39 C         -35.1380   10.2780   29.8970 C.3     1  UNL1       -0.0710
     40 H         -35.6860   10.9650   30.5430 H       1  UNL1        0.0280
     41 H         -35.2260   10.6040   28.8610 H       1  UNL1        0.0280
     42 H         -35.5510    9.2750   29.9990 H       1  UNL1        0.0280
     43 C         -34.9270    7.3260   26.6760 C.2     1  UNL1        0.2400
     44 O         -36.0810    7.5000   26.9020 O.2     1  UNL1       -0.2710
     45 N         -34.3920    7.5820   25.3090 N.am    1  UNL1       -0.3550
     46 H         -33.4130    7.4420   25.1060 H       1  UNL1        0.1620
     47 C         -35.3040    8.0450   24.2400 C.3     1  UNL1        0.0130
     48 H         -36.3270    7.8830   24.5790 H       1  UNL1        0.0720
     49 C         -35.0440    7.2480   22.9820 C.3     1  UNL1       -0.0380
     50 H         -36.0200    6.8940   22.6510 H       1  UNL1        0.0360
     51 H         -34.4530    7.9000   22.3380 H       1  UNL1        0.0360
     52 C         -34.1860    5.9900   23.2360 C.3     1  UNL1        0.0180
     53 H         -33.5880    6.2140   24.1180 H       1  UNL1        0.0480
     54 H         -34.8840    5.1530   23.2480 H       1  UNL1        0.0480
     55 C         -33.1720    5.6840   22.0990 C.2     1  UNL1        0.2590
     56 O         -33.5540    5.4180   21.0050 O.2     1  UNL1       -0.2650
     57 O         -31.7780    5.7130   22.3810 O.3     1  UNL1       -0.3170
     58 C         -31.4400    6.4310   23.5710 C.3     1  UNL1        0.0520
     59 H         -32.3800    6.5800   24.1030 H       1  UNL1        0.0820
     60 H         -30.6330    5.8670   24.0380 H       1  UNL1        0.0820
     61 C         -30.8880    7.8200   23.1520 C.ar    1  UNL1       -0.0340
     62 C         -31.5600    8.9790   23.5270 C.ar    1  UNL1       -0.0750
     63 C         -31.0650   10.2260   23.1510 C.ar    1  UNL1       -0.0820
     64 H         -32.4750    8.9100   24.1160 H       1  UNL1        0.0840
     65 C         -29.8940   10.3120   22.3930 C.ar    1  UNL1       -0.0830
     66 H         -31.5930   11.1330   23.4480 H       1  UNL1        0.0830
     67 C         -29.2290    9.1530   22.0180 C.ar    1  UNL1       -0.0820
     68 H         -29.4990   11.2840   22.0950 H       1  UNL1        0.0830
     69 C         -29.7190    7.9040   22.3940 C.ar    1  UNL1       -0.0750
     70 H         -28.3160    9.2230   21.4250 H       1  UNL1        0.0830
     71 H         -29.1900    6.9980   22.0970 H       1  UNL1        0.0840
     72 C         -35.0650    9.5280   23.9640 C.3     1  UNL1       -0.0390
     73 H         -34.0250    9.7100   24.2380 H       1  UNL1        0.0360
     74 H         -35.3930    9.6880   22.9370 H       1  UNL1        0.0360
     75 C         -35.9700   10.4590   24.9010 C.3     1  UNL1       -0.0010
     76 C         -37.1130   11.2210   23.9960 C.3     1  UNL1       -0.0350
     77 C         -37.0680   12.5480   24.2630 C.3     1  UNL1        0.0850
     78 H         -36.8520   11.1650   22.9390 H       1  UNL1        0.0360
     79 H         -38.1090   10.9290   24.3280 H       1  UNL1        0.0360
     80 N         -35.7860   12.8030   25.0180 N.4     1  UNL1       -0.0490
     81 H         -37.0120   13.0390   23.2910 H       1  UNL1        0.0750
     82 H         -37.9130   12.7420   24.9230 H       1  UNL1        0.0750
     83 C         -35.2580   11.3550   25.4980 C.3     1  UNL1        0.1930
     84 H         -35.1290   13.1790   24.3490 H       1  UNL1        0.2800
     85 H         -36.0380   13.3410   25.8350 H       1  UNL1        0.2800
     86 H         -35.3730   11.0400   26.5360 H       1  UNL1        0.1290
     87 H         -36.3120    9.9380   25.7950 H       1  UNL1        0.0460
     88 O         -33.8660   11.2170   25.2100 O.3     1  UNL1       -0.3690
     89 H         -33.3860   11.9600   25.5840 H       1  UNL1        0.2120
     90 C         -34.6700    5.7510   28.6190 C.3     1  UNL1       -0.0350
     91 H         -35.5930    5.5340   28.0830 H       1  UNL1        0.0370
     92 H         -33.9190    4.9710   28.7500 H       1  UNL1        0.0370
     93 C         -35.0890    6.2050   30.0540 C.3     1  UNL1       -0.0590
     94 H         -34.7140    7.2170   30.2030 H       1  UNL1        0.0380
     95 C         -36.6410    6.2400   30.2310 C.3     1  UNL1       -0.0730
     96 H         -37.0520    5.2510   30.0320 H       1  UNL1        0.0280
     97 H         -36.8840    6.5360   31.2510 H       1  UNL1        0.0280
     98 H         -37.0700    6.9590   29.5320 H       1  UNL1        0.0280
     99 C         -34.4400    5.3180   31.1200 C.3     1  UNL1       -0.0730
    100 H         -34.9690    5.4400   32.0650 H       1  UNL1        0.0280
    101 H         -34.4920    4.2750   30.8060 H       1  UNL1        0.0280
    102 H         -33.3970    5.6060   31.2460 H       1  UNL1        0.0280
@<TRIPOS>BOND
     1    28    25    1
     2    27    25    1
     3    25    26    1
     4    25    21    1
     5    56    55    2
     6    70    67    1
     7    21    23   ar
     8    21    20   ar
     9    23    24   ar
    10    67    65   ar
    11    67    69   ar
    12    68    65    1
    13    71    69    1
    14    55    57    1
    15    55    52    1
    16    51    49    1
    17    57    58    1
    18    65    63   ar
    19    69    61   ar
    20    20    22    1
    21    20    19   ar
    22    50    49    1
    23    74    72    1
    24    78    76    1
    25    49    52    1
    26    49    47    1
    27    63    66    1
    28    63    62   ar
    29    61    62   ar
    30    61    58    1
    31    24    19   ar
    32    52    54    1
    33    52    53    1
    34    81    77    1
    35    62    64    1
    36    58    60    1
    37    58    59    1
    38    19    16    1
    39    72    73    1
    40    72    47    1
    41    72    75    1
    42    76    77    1
    43    76    79    1
    44    76    75    1
    45    47    48    1
    46    47    45    1
    47    77    82    1
    48    77    80    1
    49    84    80    1
    50    75    83    1
    51    75    87    1
    52    80    83    1
    53    80    85    1
    54    46    45    1
    55    16    17    2
    56    16    15   am
    57    88    83    1
    58    88    89    1
    59    45    43   am
    60    18    15    1
    61    83    86    1
    62    15    13    1
    63    32    29    1
    64    43    44    2
    65    43     1    1
    66     5     4    2
    67    13    29    1
    68    13    14    1
    69    13    10    1
    70    29    31    1
    71    29    30    1
    72     2     1    1
    73     1    90    1
    74     1     3    1
    75    10    11    2
    76    10     9   am
    77    91    90    1
    78    12     9    1
    79     4     3   am
    80     4     7    1
    81     9     7    1
    82    90    92    1
    83    90    93    1
    84     3     6    1
    85    41    39    1
    86     7     8    1
    87     7    33    1
    88    98    95    1
    89    39    42    1
    90    39    33    1
    91    39    40    1
    92    96    95    1
    93    93    94    1
    94    93    95    1
    95    93    99    1
    96    95    97    1
    97    33    34    1
    98    33    35    1
    99   101    99    1
   100    37    35    1
   101    99   102    1
   102    99   100    1
   103    35    36    1
   104    35    38    1
@<TRIPOS>MOLECULE
crystal_redock_e24_er3_1.pdbqt
 102 104 0 0 0
SMALL
GASTEIGER

@<TRIPOS>ATOM
      1 C         -33.7460    7.2240   27.6100 C.3     1  UNL1        0.0890
      2 H         -33.1720    6.7520   28.4080 H       1  UNL1        0.0870
      3 N         -34.2190    8.5070   28.1100 N.am    1  UNL1       -0.3460
      4 C         -34.7430    8.6290   29.5180 C.2     1  UNL1        0.2410
      5 O         -34.7780    7.6800   30.2300 O.2     1  UNL1       -0.2710
      6 H         -34.1830    9.3010   27.4870 H       1  UNL1        0.1630
      7 C         -35.2230    9.9660   30.0200 C.3     1  UNL1        0.0920
      8 H         -35.2180    9.9620   31.1100 H       1  UNL1        0.0880
      9 N         -34.2950   11.0140   29.5860 N.am    1  UNL1       -0.3460
     10 C         -33.1300   11.3180   30.3790 C.2     1  UNL1        0.2400
     11 O         -32.9250   10.7310   31.3710 O.2     1  UNL1       -0.2710
     12 H         -34.4600   11.5300   28.7330 H       1  UNL1        0.1630
     13 C         -32.1470   12.4370   29.9130 C.3     1  UNL1        0.0860
     14 H         -31.6270   12.1830   28.9890 H       1  UNL1        0.0860
     15 N         -32.9040   13.6480   29.6450 N.am    1  UNL1       -0.3430
     16 C         -32.3100   14.7020   28.8200 C.2     1  UNL1        0.2730
     17 O         -31.2220   14.5670   28.3790 O.2     1  UNL1       -0.2660
     18 H         -33.8320   13.7560   30.0290 H       1  UNL1        0.1630
     19 C         -33.1000   15.9870   28.5280 C.ar    1  UNL1        0.1540
     20 C         -34.4220   16.0860   27.9890 C.ar    1  UNL1       -0.0170
     21 C         -34.6820   17.4730   27.9160 C.ar    1  UNL1        0.0770
     22 H         -35.0900   15.2760   27.6960 H       1  UNL1        0.0910
     23 O         -33.6280   18.0890   28.3640 O.2     1  UNL1       -0.2180
     24 N         -32.6910   17.2430   28.7260 N.ar    1  UNL1       -0.1230
     25 C         -35.9620   18.1250   27.4080 C.3     1  UNL1       -0.0290
     26 H         -36.3000   18.8700   28.1270 H       1  UNL1        0.0360
     27 H         -35.7680   18.6070   26.4500 H       1  UNL1        0.0360
     28 H         -36.7320   17.3640   27.2830 H       1  UNL1        0.0360
     29 C         -31.1260   12.6940   30.9920 C.3     1  UNL1       -0.0490
     30 H         -31.4850   12.2850   31.9370 H       1  UNL1        0.0300
     31 H         -30.1850   12.2140   30.7230 H       1  UNL1        0.0300
     32 H         -30.9700   13.7680   31.0970 H       1  UNL1        0.0300
     33 C         -36.6390   10.2590   29.4420 C.3     1  UNL1       -0.0330
     34 H         -37.1250   10.9710   30.1090 H       1  UNL1        0.0420
     35 C         -36.5520   10.9210   28.0320 C.3     1  UNL1       -0.0710
     36 H         -36.4960   12.0040   28.1420 H       1  UNL1        0.0280
     37 H         -35.6610   10.5620   27.5170 H       1  UNL1        0.0280
     38 H         -37.4370   10.6600   27.4530 H       1  UNL1        0.0280
     39 C         -37.5080    8.9600   29.4050 C.3     1  UNL1       -0.0710
     40 H         -37.3880    8.4700   28.4390 H       1  UNL1        0.0280
     41 H         -37.1860    8.2850   30.1980 H       1  UNL1        0.0280
     42 H         -38.5560    9.2200   29.5540 H       1  UNL1        0.0280
     43 C         -32.8870    7.4740   26.3380 C.2     1  UNL1        0.2400
     44 O         -32.1060    6.6520   25.9810 O.2     1  UNL1       -0.2710
     45 N         -33.0430    8.7360   25.5590 N.am    1  UNL1       -0.3550
     46 H         -33.7060    9.4390   25.8500 H       1  UNL1        0.1620
     47 C         -32.2200    8.9580   24.3510 C.3     1  UNL1        0.0130
     48 H         -31.3110    8.3640   24.4500 H       1  UNL1        0.0720
     49 C         -31.8690   10.4250   24.2480 C.3     1  UNL1       -0.0380
     50 H         -30.9270   10.4650   23.7020 H       1  UNL1        0.0360
     51 H         -32.7560   10.9110   23.8420 H       1  UNL1        0.0360
     52 C         -31.6050   11.0760   25.6230 C.3     1  UNL1        0.0180
     53 H         -31.8350   10.3090   26.3620 H       1  UNL1        0.0480
     54 H         -30.6000   11.4930   25.5640 H       1  UNL1        0.0480
     55 C         -32.5460   12.2710   25.9410 C.2     1  UNL1        0.2590
     56 O         -33.3850   12.1730   26.7770 O.2     1  UNL1       -0.2650
     57 O         -32.4030   13.4840   25.2110 O.3     1  UNL1       -0.3170
     58 C         -31.0590   13.9690   25.1460 C.3     1  UNL1        0.0520
     59 H         -31.0350   14.8560   25.7790 H       1  UNL1        0.0820
     60 H         -30.4250   13.1150   25.3810 H       1  UNL1        0.0820
     61 C         -30.7770   14.4020   23.6820 C.ar    1  UNL1       -0.0340
     62 C         -31.3210   15.5830   23.1880 C.ar    1  UNL1       -0.0750
     63 C         -31.0680   15.9710   21.8730 C.ar    1  UNL1       -0.0820
     64 H         -31.9460   16.2040   23.8300 H       1  UNL1        0.0840
     65 C         -30.2690   15.1730   21.0510 C.ar    1  UNL1       -0.0830
     66 H         -31.4950   16.8980   21.4890 H       1  UNL1        0.0830
     67 C         -29.7310   13.9930   21.5480 C.ar    1  UNL1       -0.0820
     68 H         -30.0650   15.4690   20.0220 H       1  UNL1        0.0830
     69 C         -29.9790   13.6020   22.8620 C.ar    1  UNL1       -0.0750
     70 H         -29.1090   13.3710   20.9030 H       1  UNL1        0.0830
     71 H         -29.5520   12.6750   23.2450 H       1  UNL1        0.0840
     72 C         -32.9990    8.5310   23.1090 C.3     1  UNL1       -0.0390
     73 H         -34.0010    8.2870   23.4650 H       1  UNL1        0.0360
     74 H         -32.8590    9.3360   22.3880 H       1  UNL1        0.0360
     75 C         -32.3920    7.2000   22.4560 C.3     1  UNL1       -0.0010
     76 C         -32.2620    7.3840   20.8270 C.3     1  UNL1       -0.0350
     77 C         -32.8520    6.3270   20.2200 C.3     1  UNL1        0.0850
     78 H         -32.8610    8.2330   20.4980 H       1  UNL1        0.0360
     79 H         -31.2190    7.3030   20.5240 H       1  UNL1        0.0360
     80 N         -33.6570    5.6050   21.2740 N.4     1  UNL1       -0.0490
     81 H         -33.5330    6.7560   19.4850 H       1  UNL1        0.0750
     82 H         -32.0350    5.6840   19.8960 H       1  UNL1        0.0750
     83 C         -33.1440    6.1780   22.6940 C.3     1  UNL1        0.1930
     84 H         -34.6180    5.8860   21.1430 H       1  UNL1        0.2800
     85 H         -33.4020    4.6300   21.2100 H       1  UNL1        0.2800
     86 H         -32.4790    5.5850   23.3220 H       1  UNL1        0.1290
     87 H         -31.5080    6.8460   22.9870 H       1  UNL1        0.0460
     88 O         -34.2590    6.5100   23.5230 O.3     1  UNL1       -0.3690
     89 H         -34.4520    5.7740   24.1090 H       1  UNL1        0.2120
     90 C         -34.9440    6.3570   27.2560 C.3     1  UNL1       -0.0350
     91 H         -35.7410    6.6790   27.9260 H       1  UNL1        0.0370
     92 H         -35.0640    6.4590   26.1770 H       1  UNL1        0.0370
     93 C         -34.7210    4.8370   27.5350 C.3     1  UNL1       -0.0590
     94 H         -34.1890    4.4190   26.6810 H       1  UNL1        0.0380
     95 C         -33.8480    4.5920   28.8070 C.3     1  UNL1       -0.0730
     96 H         -32.8100    4.8380   28.5880 H       1  UNL1        0.0280
     97 H         -34.2060    5.2240   29.6200 H       1  UNL1        0.0280
     98 H         -33.9200    3.5460   29.1010 H       1  UNL1        0.0280
     99 C         -36.0580    4.0990   27.6420 C.3     1  UNL1       -0.0730
    100 H         -36.8760    4.8190   27.5900 H       1  UNL1        0.0280
    101 H         -36.1490    3.3880   26.8210 H       1  UNL1        0.0280
    102 H         -36.1040    3.5650   28.5910 H       1  UNL1        0.0280
@<TRIPOS>BOND
     1    81    77    1
     2    82    77    1
     3    68    65    1
     4    77    76    1
     5    77    80    1
     6    78    76    1
     7    79    76    1
     8    76    75    1
     9    70    67    1
    10    65    67   ar
    11    65    63   ar
    12    84    80    1
    13    85    80    1
    14    80    83    1
    15    66    63    1
    16    67    69   ar
    17    63    62   ar
    18    74    72    1
    19    75    83    1
    20    75    87    1
    21    75    72    1
    22    83    86    1
    23    83    88    1
    24    69    71    1
    25    69    61   ar
    26    72    73    1
    27    72    47    1
    28    62    61   ar
    29    62    64    1
    30    88    89    1
    31    61    58    1
    32    50    49    1
    33    51    49    1
    34    49    47    1
    35    49    52    1
    36    47    48    1
    37    47    45    1
    38    58    57    1
    39    58    60    1
    40    58    59    1
    41    57    55    1
    42    45    46    1
    43    45    43   am
    44    54    52    1
    45    52    55    1
    46    52    53    1
    47    55    56    2
    48    44    43    2
    49    92    90    1
    50    43     1    1
    51    27    25    1
    52    94    93    1
    53   101    99    1
    54    90    93    1
    55    90     1    1
    56    90    91    1
    57    28    25    1
    58    25    21    1
    59    25    26    1
    60    38    35    1
    61     6     3    1
    62    37    35    1
    63    93    99    1
    64    93    95    1
    65   100    99    1
    66     1     3    1
    67     1     2    1
    68    99   102    1
    69    22    20    1
    70    21    20   ar
    71    21    23   ar
    72    20    19   ar
    73    35    36    1
    74    35    33    1
    75     3     4   am
    76    23    24   ar
    77    17    16    2
    78    40    39    1
    79    19    24   ar
    80    19    16    1
    81    96    95    1
    82    12     9    1
    83    95    98    1
    84    95    97    1
    85    16    15   am
    86    14    13    1
    87    39    33    1
    88    39    42    1
    89    39    41    1
    90    33     7    1
    91    33    34    1
    92     4     7    1
    93     4     5    2
    94     9     7    1
    95     9    10   am
    96    15    13    1
    97    15    18    1
    98    13    10    1
    99    13    29    1
   100     7     8    1
   101    10    11    2
   102    31    29    1
   103    29    32    1
   104    29    30    1
@<TRIPOS>MOLECULE
crystal_redock_e32_er3_1.pdbqt
 102 104 0 0 0
SMALL
GASTEIGER

@<TRIPOS>ATOM
      1 C         -30.7860   14.4470   23.9560 C.3     1  UNL1        0.0890
      2 H         -29.7010   14.4890   23.8570 H       1  UNL1        0.0870
      3 N         -31.1470   13.0640   24.2310 N.am    1  UNL1       -0.3460
      4 C         -30.5650   11.9460   23.4030 C.2     1  UNL1        0.2410
      5 O         -29.8100   12.1840   22.5190 O.2     1  UNL1       -0.2710
      6 H         -31.7930   12.8830   24.9860 H       1  UNL1        0.1630
      7 C         -30.9460   10.5200   23.7050 C.3     1  UNL1        0.0920
      8 H         -30.3850   10.1760   24.5740 H       1  UNL1        0.0880
      9 N         -32.3680   10.4570   24.0540 N.am    1  UNL1       -0.3460
     10 C         -32.7650   10.1900   25.4150 C.2     1  UNL1        0.2400
     11 O         -31.9530   10.0220   26.2410 O.2     1  UNL1       -0.2710
     12 H         -33.0800   10.5980   23.3520 H       1  UNL1        0.1630
     13 C         -34.2800   10.1210   25.7800 C.3     1  UNL1        0.0860
     14 H         -34.4580   10.1640   26.8540 H       1  UNL1        0.0860
     15 N         -34.9580   11.2680   25.1990 N.am    1  UNL1       -0.3430
     16 C         -35.7500   12.1500   26.0600 C.2     1  UNL1        0.2730
     17 O         -35.8380   11.9250   27.2170 O.2     1  UNL1       -0.2660
     18 H         -34.8790   11.4510   24.2090 H       1  UNL1        0.1630
     19 C         -36.4700   13.3670   25.4600 C.ar    1  UNL1        0.1540
     20 C         -36.9070   13.5340   24.1080 C.ar    1  UNL1       -0.0170
     21 C         -37.5050   14.8130   24.0740 C.ar    1  UNL1        0.0770
     22 H         -36.8050   12.8340   23.2780 H       1  UNL1        0.0910
     23 O         -37.4180   15.3130   25.2720 O.2     1  UNL1       -0.2180
     24 N         -36.8170   14.4890   26.0980 N.ar    1  UNL1       -0.1230
     25 C         -38.1360   15.4820   22.8600 C.3     1  UNL1       -0.0290
     26 H         -39.0110   16.0510   23.1720 H       1  UNL1        0.0360
     27 H         -37.4120   16.1520   22.3970 H       1  UNL1        0.0360
     28 H         -38.4360   14.7200   22.1400 H       1  UNL1        0.0360
     29 C         -34.8720    8.8440   25.2390 C.3     1  UNL1       -0.0490
     30 H         -35.0590    8.1540   26.0620 H       1  UNL1        0.0300
     31 H         -35.8100    9.0650   24.7310 H       1  UNL1        0.0300
     32 H         -34.1750    8.3890   24.5350 H       1  UNL1        0.0300
     33 C         -30.6830    9.6370   22.4510 C.3     1  UNL1       -0.0330
     34 H         -30.5930   10.3030   21.5920 H       1  UNL1        0.0420
     35 C         -29.3390    8.8540   22.5780 C.3     1  UNL1       -0.0710
     36 H         -28.9720    8.9260   23.6020 H       1  UNL1        0.0280
     37 H         -29.5020    7.8070   22.3240 H       1  UNL1        0.0280
     38 H         -28.6020    9.2830   21.8990 H       1  UNL1        0.0280
     39 C         -31.8800    8.6670   22.1880 C.3     1  UNL1       -0.0710
     40 H         -31.6520    7.6870   22.6070 H       1  UNL1        0.0280
     41 H         -32.7790    9.0650   22.6600 H       1  UNL1        0.0280
     42 H         -32.0440    8.5760   21.1140 H       1  UNL1        0.0280
     43 C         -31.3040   15.3350   25.1240 C.2     1  UNL1        0.2400
     44 O         -31.3130   16.5180   25.0070 O.2     1  UNL1       -0.2710
     45 N         -31.7950   14.7100   26.3850 N.am    1  UNL1       -0.3550
     46 H         -31.7960   13.7070   26.4940 H       1  UNL1        0.1620
     47 C         -32.2860   15.5690   27.4850 C.3     1  UNL1        0.0130
     48 H         -31.8350   16.5540   27.3680 H       1  UNL1        0.0720
     49 C         -31.8740   14.9670   28.8100 C.3     1  UNL1       -0.0380
     50 H         -30.8190   14.7150   28.7040 H       1  UNL1        0.0360
     51 H         -32.1910   15.6820   29.5690 H       1  UNL1        0.0360
     52 C         -32.6090   13.6450   29.1210 C.3     1  UNL1        0.0180
     53 H         -32.9640   13.7390   30.1470 H       1  UNL1        0.0480
     54 H         -33.3220   13.5040   28.3080 H       1  UNL1        0.0480
     55 C         -31.6860   12.3950   29.1020 C.2     1  UNL1        0.2590
     56 O         -30.7720   12.3320   28.3450 O.2     1  UNL1       -0.2650
     57 O         -31.9520   11.3180   29.9920 O.3     1  UNL1       -0.3170
     58 C         -32.9700   10.4230   29.5350 C.3     1  UNL1        0.0520
     59 H         -33.5350   10.9770   28.7860 H       1  UNL1        0.0820
     60 H         -32.4530    9.5050   29.2580 H       1  UNL1        0.0820
     61 C         -33.9090   10.1150   30.7310 C.ar    1  UNL1       -0.0340
     62 C         -34.1970   11.1060   31.6640 C.ar    1  UNL1       -0.0750
     63 C         -35.0400   10.8290   32.7390 C.ar    1  UNL1       -0.0820
     64 H         -33.7610   12.0990   31.5540 H       1  UNL1        0.0840
     65 C         -35.5950    9.5540   32.8810 C.ar    1  UNL1       -0.0830
     66 H         -35.2650   11.6090   33.4680 H       1  UNL1        0.0830
     67 C         -35.3020    8.5680   31.9490 C.ar    1  UNL1       -0.0820
     68 H         -36.2560    9.3300   33.7180 H       1  UNL1        0.0830
     69 C         -34.4620    8.8410   30.8720 C.ar    1  UNL1       -0.0750
     70 H         -35.7350    7.5740   32.0640 H       1  UNL1        0.0830
     71 H         -34.2370    8.0610   30.1440 H       1  UNL1        0.0840
     72 C         -33.8080   15.6700   27.4220 C.3     1  UNL1       -0.0390
     73 H         -34.1010   15.0980   26.5410 H       1  UNL1        0.0360
     74 H         -34.1600   15.3690   28.4090 H       1  UNL1        0.0360
     75 C         -34.2920   17.1790   27.1870 C.3     1  UNL1       -0.0010
     76 C         -35.5690   17.5160   28.1670 C.3     1  UNL1       -0.0350
     77 C         -36.5700   18.0360   27.4160 C.3     1  UNL1        0.0850
     78 H         -35.9960   16.5920   28.5550 H       1  UNL1        0.0360
     79 H         -35.3140   18.3280   28.8490 H       1  UNL1        0.0360
     80 N         -36.2150   17.7820   25.9710 N.4     1  UNL1       -0.0490
     81 H         -37.4570   17.4570   27.6720 H       1  UNL1        0.0750
     82 H         -36.5460   19.1090   27.6040 H       1  UNL1        0.0750
     83 C         -34.6550   17.3690   25.9630 C.3     1  UNL1        0.1930
     84 H         -36.7610   16.9840   25.6790 H       1  UNL1        0.2800
     85 H         -36.3170   18.6660   25.4930 H       1  UNL1        0.2800
     86 H         -33.8950   18.0810   25.6390 H       1  UNL1        0.1290
     87 H         -33.4620   17.8850   27.1950 H       1  UNL1        0.0460
     88 O         -34.4570   16.2060   25.1560 O.3     1  UNL1       -0.3690
     89 H         -34.8250   16.3570   24.2820 H       1  UNL1        0.2120
     90 C         -31.4400   14.8810   22.6550 C.3     1  UNL1       -0.0350
     91 H         -31.6920   13.9570   22.1360 H       1  UNL1        0.0370
     92 H         -32.2290   15.5750   22.9460 H       1  UNL1        0.0370
     93 C         -30.4840   15.6720   21.7060 C.3     1  UNL1       -0.0590
     94 H         -30.7370   16.7290   21.7880 H       1  UNL1        0.0380
     95 C         -28.9840   15.5080   22.1120 C.3     1  UNL1       -0.0730
     96 H         -28.9090   14.8340   22.9640 H       1  UNL1        0.0280
     97 H         -28.4230   15.0960   21.2730 H       1  UNL1        0.0280
     98 H         -28.5720   16.4810   22.3810 H       1  UNL1        0.0280
     99 C         -30.7010   15.2650   20.2470 C.3     1  UNL1       -0.0730
    100 H         -30.5940   16.1400   19.6050 H       1  UNL1        0.0280
    101 H         -29.9620   14.5150   19.9650 H       1  UNL1        0.0280
    102 H         -31.7020   14.8490   20.1310 H       1  UNL1        0.0280
@<TRIPOS>BOND
     1   100    99    1
     2   101    99    1
     3   102    99    1
     4    99    93    1
     5    42    39    1
     6    97    95    1
     7    34    33    1
     8    93    94    1
     9    93    95    1
    10    93    90    1
    11    38    35    1
    12    95    98    1
    13    95    96    1
    14    91    90    1
    15    28    25    1
    16    39    33    1
    17    39    40    1
    18    39    41    1
    19    37    35    1
    20    27    25    1
    21    33    35    1
    22    33     7    1
    23     5     4    2
    24    35    36    1
    25    90    92    1
    26    90     1    1
    27    25    26    1
    28    25    21    1
    29    22    20    1
    30    12     9    1
    31     4     7    1
    32     4     3   am
    33     7     9    1
    34     7     8    1
    35     2     1    1
    36     1     3    1
    37     1    43    1
    38     9    10   am
    39    21    20   ar
    40    21    23   ar
    41    20    19   ar
    42    18    15    1
    43     3     6    1
    44    89    88    1
    45    32    29    1
    46    31    29    1
    47    44    43    2
    48    43    45   am
    49    88    83    1
    50    15    13    1
    51    15    16   am
    52    29    13    1
    53    29    30    1
    54    23    24   ar
    55    10    13    1
    56    10    11    2
    57    19    16    1
    58    19    24   ar
    59    85    80    1
    60    86    83    1
    61    84    80    1
    62    13    14    1
    63    83    80    1
    64    83    75    1
    65    80    77    1
    66    16    17    2
    67    45    46    1
    68    45    47    1
    69    73    72    1
    70    75    87    1
    71    75    72    1
    72    75    76    1
    73    48    47    1
    74    77    82    1
    75    77    81    1
    76    77    76    1
    77    72    47    1
    78    72    74    1
    79    47    49    1
    80    76    78    1
    81    76    79    1
    82    54    52    1
    83    56    55    2
    84    50    49    1
    85    59    58    1
    86    49    52    1
    87    49    51    1
    88    55    52    1
    89    55    57    1
    90    52    53    1
    91    60    58    1
    92    58    57    1
    93    58    61    1
    94    71    69    1
    95    61    69   ar
    96    61    62   ar
    97    69    67   ar
    98    64    62    1
    99    62    63   ar
   100    67    70    1
   101    67    65   ar
   102    63    65   ar
   103    63    66    1
   104    65    68    1
@<TRIPOS>MOLECULE
crystal_redock_e32_er3_1.pdbqt
 102 104 0 0 0
SMALL
GASTEIGER

@<TRIPOS>ATOM
      1 C         -31.1080   14.0710   24.3990 C.3     1  UNL1        0.0890
      2 H         -30.1250   13.6420   24.5990 H       1  UNL1        0.0870
      3 N         -32.0950   13.0240   24.6140 N.am    1  UNL1       -0.3460
      4 C         -31.8510   11.9440   25.6380 C.2     1  UNL1        0.2410
      5 O         -30.8500   11.9380   26.2760 O.2     1  UNL1       -0.2710
      6 H         -32.9390   13.0450   24.0590 H       1  UNL1        0.1630
      7 C         -32.8860   10.8710   25.8510 C.3     1  UNL1        0.0920
      8 H         -33.0380   10.7270   26.9200 H       1  UNL1        0.0880
      9 N         -34.1660   11.3080   25.2850 N.am    1  UNL1       -0.3460
     10 C         -35.1890   11.8450   26.1490 C.2     1  UNL1        0.2400
     11 O         -34.9990   11.9320   27.3010 O.2     1  UNL1       -0.2710
     12 H         -34.3450   11.2380   24.2940 H       1  UNL1        0.1630
     13 C         -36.5510   12.3060   25.5420 C.3     1  UNL1        0.0860
     14 H         -37.3990   12.0700   26.1840 H       1  UNL1        0.0860
     15 N         -36.5340   13.7510   25.3880 N.am    1  UNL1       -0.3430
     16 C         -37.5050   14.5660   26.1210 C.2     1  UNL1        0.2730
     17 O         -38.2980   14.0480   26.8300 O.2     1  UNL1       -0.2660
     18 H         -35.8550   14.1840   24.7790 H       1  UNL1        0.1630
     19 C         -37.4980   16.0950   25.9700 C.ar    1  UNL1        0.1540
     20 C         -37.1160   16.8470   24.8140 C.ar    1  UNL1       -0.0170
     21 C         -37.2880   18.1990   25.1870 C.ar    1  UNL1        0.0770
     22 H         -36.7680   16.4700   23.8520 H       1  UNL1        0.0910
     23 O         -37.7190   18.2100   26.4150 O.2     1  UNL1       -0.2180
     24 N         -37.8500   16.9940   26.8930 N.ar    1  UNL1       -0.1230
     25 C         -37.0190   19.4170   24.3140 C.3     1  UNL1       -0.0290
     26 H         -36.1630   19.9650   24.7070 H       1  UNL1        0.0360
     27 H         -36.8040   19.0930   23.2950 H       1  UNL1        0.0360
     28 H         -37.8950   20.0640   24.3120 H       1  UNL1        0.0360
     29 C         -36.7550   11.6460   24.2020 C.3     1  UNL1       -0.0490
     30 H         -37.4520   10.8150   24.3080 H       1  UNL1        0.0300
     31 H         -37.1610   12.3720   23.4980 H       1  UNL1        0.0300
     32 H         -35.8000   11.2740   23.8300 H       1  UNL1        0.0300
     33 C         -32.4290    9.5620   25.1430 C.3     1  UNL1       -0.0330
     34 H         -31.3490    9.6200   25.0090 H       1  UNL1        0.0420
     35 C         -32.7260    8.3070   26.0210 C.3     1  UNL1       -0.0710
     36 H         -32.5610    7.4040   25.4330 H       1  UNL1        0.0280
     37 H         -32.0640    8.3040   26.8860 H       1  UNL1        0.0280
     38 H         -33.7630    8.3360   26.3570 H       1  UNL1        0.0280
     39 C         -33.0840    9.4330   23.7300 C.3     1  UNL1       -0.0710
     40 H         -33.5760   10.3700   23.4700 H       1  UNL1        0.0280
     41 H         -32.3130    9.2090   22.9910 H       1  UNL1        0.0280
     42 H         -33.8180    8.6270   23.7420 H       1  UNL1        0.0280
     43 C         -31.4330   15.2600   25.3480 C.2     1  UNL1        0.2400
     44 O         -30.9950   16.3400   25.1140 O.2     1  UNL1       -0.2710
     45 N         -32.2990   15.0550   26.5430 N.am    1  UNL1       -0.3550
     46 H         -32.6820   14.1430   26.7500 H       1  UNL1        0.1620
     47 C         -32.6010   16.1960   27.4350 C.3     1  UNL1        0.0130
     48 H         -31.8660   16.9770   27.2390 H       1  UNL1        0.0720
     49 C         -32.5040   15.7440   28.8740 C.3     1  UNL1       -0.0380
     50 H         -31.5140   16.0510   29.2140 H       1  UNL1        0.0360
     51 H         -33.3950   16.1370   29.3660 H       1  UNL1        0.0360
     52 C         -32.5620   14.2090   29.0260 C.3     1  UNL1        0.0180
     53 H         -33.0600   14.0250   29.9770 H       1  UNL1        0.0480
     54 H         -33.0010   13.8370   28.1000 H       1  UNL1        0.0480
     55 C         -31.1650   13.5380   29.1380 C.2     1  UNL1        0.2590
     56 O         -30.1950   14.0930   28.7360 O.2     1  UNL1       -0.2650
     57 O         -31.0590   12.2420   29.7160 O.3     1  UNL1       -0.3170
     58 C         -31.7750   12.0920   30.9450 C.3     1  UNL1        0.0520
     59 H         -31.0710   11.6390   31.6430 H       1  UNL1        0.0820
     60 H         -32.2020   13.0720   31.1590 H       1  UNL1        0.0820
     61 C         -32.9380   11.0940   30.7020 C.ar    1  UNL1       -0.0340
     62 C         -34.0090   11.0420   31.5890 C.ar    1  UNL1       -0.0750
     63 C         -35.0530   10.1450   31.3720 C.ar    1  UNL1       -0.0820
     64 H         -34.0300   11.7050   32.4550 H       1  UNL1        0.0840
     65 C         -35.0230    9.2950   30.2630 C.ar    1  UNL1       -0.0830
     66 H         -35.8920   10.1090   32.0680 H       1  UNL1        0.0830
     67 C         -33.9510    9.3470   29.3830 C.ar    1  UNL1       -0.0820
     68 H         -35.8360    8.5910   30.0850 H       1  UNL1        0.0830
     69 C         -32.9060   10.2440   29.5950 C.ar    1  UNL1       -0.0750
     70 H         -33.9290    8.6800   28.5200 H       1  UNL1        0.0830
     71 H         -32.0680   10.2790   28.8990 H       1  UNL1        0.0840
     72 C         -34.0110   16.7110   27.1550 C.3     1  UNL1       -0.0390
     73 H         -34.3420   16.1810   26.2620 H       1  UNL1        0.0360
     74 H         -34.5540   16.5920   28.0920 H       1  UNL1        0.0360
     75 C         -34.0120   18.2740   26.8040 C.3     1  UNL1       -0.0010
     76 C         -32.4850   18.8760   26.9220 C.3     1  UNL1       -0.0350
     77 C         -32.5100   19.9770   27.7090 C.3     1  UNL1        0.0850
     78 H         -31.8520   18.1820   27.4730 H       1  UNL1        0.0360
     79 H         -32.1600   19.2610   25.9550 H       1  UNL1        0.0360
     80 N         -33.8510   19.9940   28.4030 N.4     1  UNL1       -0.0490
     81 H         -31.7270   19.8220   28.4510 H       1  UNL1        0.0750
     82 H         -32.4530   20.8240   27.0270 H       1  UNL1        0.0750
     83 C         -34.7750   18.9340   27.6100 C.3     1  UNL1        0.1930
     84 H         -33.6930   19.6460   29.3390 H       1  UNL1        0.2800
     85 H         -34.2320   20.9190   28.2660 H       1  UNL1        0.2800
     86 H         -35.5430   19.2790   26.9180 H       1  UNL1        0.1290
     87 H         -34.5610   18.4910   25.8880 H       1  UNL1        0.0460
     88 O         -35.4490   18.0790   28.5350 O.3     1  UNL1       -0.3690
     89 H         -36.0630   17.5150   28.0590 H       1  UNL1        0.2120
     90 C         -31.1830   14.5350   22.9530 C.3     1  UNL1       -0.0350
     91 H         -31.9760   13.9410   22.5000 H       1  UNL1        0.0370
     92 H         -31.2750   15.6200   23.0030 H       1  UNL1        0.0370
     93 C         -29.8870   14.2390   22.1320 C.3     1  UNL1       -0.0590
     94 H         -30.0740   14.5380   21.1010 H       1  UNL1        0.0380
     95 C         -28.6610   15.0570   22.6510 C.3     1  UNL1       -0.0730
     96 H         -27.7400   14.5850   22.3120 H       1  UNL1        0.0280
     97 H         -28.7120   16.0740   22.2630 H       1  UNL1        0.0280
     98 H         -28.6770   15.0830   23.7400 H       1  UNL1        0.0280
     99 C         -29.5770   12.7400   22.1220 C.3     1  UNL1       -0.0730
    100 H         -30.2290   12.2380   21.4070 H       1  UNL1        0.0280
    101 H         -28.5360   12.5860   21.8360 H       1  UNL1        0.0280
    102 H         -29.7440   12.3280   23.1170 H       1  UNL1        0.0280
@<TRIPOS>BOND
     1    94    93    1
     2   100    99    1
     3   101    99    1
     4    99    93    1
     5    99   102    1
     6    93    95    1
     7    93    90    1
     8    97    95    1
     9    96    95    1
    10    91    90    1
    11    95    98    1
    12    90    92    1
    13    90     1    1
    14    41    39    1
    15    27    25    1
    16    40    39    1
    17    31    29    1
    18    39    42    1
    19    39    33    1
    20    32    29    1
    21    22    20    1
    22     6     3    1
    23    29    30    1
    24    29    13    1
    25    12     9    1
    26    28    25    1
    27    25    26    1
    28    25    21    1
    29     1     2    1
    30     1     3    1
    31     1    43    1
    32     3     4   am
    33    18    15    1
    34    20    21   ar
    35    20    19   ar
    36    34    33    1
    37    44    43    2
    38    33     7    1
    39    33    35    1
    40    21    23   ar
    41     9     7    1
    42     9    10   am
    43    43    45   am
    44    15    13    1
    45    15    16   am
    46    36    35    1
    47    13    10    1
    48    13    14    1
    49     4     7    1
    50     4     5    2
    51     7     8    1
    52    87    75    1
    53    79    76    1
    54    19    16    1
    55    19    24   ar
    56    35    38    1
    57    35    37    1
    58    16    17    2
    59    10    11    2
    60    73    72    1
    61    23    24   ar
    62    45    46    1
    63    45    47    1
    64    75    76    1
    65    75    72    1
    66    75    83    1
    67    86    83    1
    68    76    78    1
    69    76    77    1
    70    82    77    1
    71    72    47    1
    72    72    74    1
    73    48    47    1
    74    47    49    1
    75    83    80    1
    76    83    88    1
    77    77    80    1
    78    77    81    1
    79    89    88    1
    80    54    52    1
    81    85    80    1
    82    80    84    1
    83    70    67    1
    84    56    55    2
    85    49    52    1
    86    49    50    1
    87    49    51    1
    88    71    69    1
    89    52    55    1
    90    52    53    1
    91    55    57    1
    92    67    69   ar
    93    67    65   ar
    94    69    61   ar
    95    57    58    1
    96    68    65    1
    97    65    63   ar
    98    61    58    1
    99    61    62   ar
   100    58    60    1
   101    58    59    1
   102    63    62   ar
   103    63    66    1
   104    62    64    1
@<TRIPOS>MOLECULE
crystal_redock_e32_er3_1.pdbqt
 102 104 0 0 0
SMALL
GASTEIGER

@<TRIPOS>ATOM
      1 C         -32.9720   10.3960   25.5270 C.3     1  UNL1        0.0890
      2 H         -33.6660   10.4750   24.6900 H       1  UNL1        0.0870
      3 N         -32.4080    9.0550   25.5050 N.am    1  UNL1       -0.3460
      4 C         -33.1130    7.9440   24.7690 C.2     1  UNL1        0.2410
      5 O         -34.1360    8.1530   24.2040 O.2     1  UNL1       -0.2710
      6 H         -31.5380    8.8970   25.9940 H       1  UNL1        0.1630
      7 C         -32.5120    6.5630   24.7510 C.3     1  UNL1        0.0920
      8 H         -31.4470    6.6330   24.9730 H       1  UNL1        0.0880
      9 N         -33.1230    5.7510   25.8070 N.am    1  UNL1       -0.3460
     10 C         -32.6460    5.8570   27.1650 C.2     1  UNL1        0.2400
     11 O         -31.7720    6.5910   27.4240 O.2     1  UNL1       -0.2710
     12 H         -33.8770    5.1120   25.5990 H       1  UNL1        0.1630
     13 C         -33.2980    4.9870   28.2840 C.3     1  UNL1        0.0860
     14 H         -32.6600    4.8810   29.1610 H       1  UNL1        0.0860
     15 N         -34.5190    5.6360   28.7340 N.am    1  UNL1       -0.3430
     16 C         -34.9080    5.5420   30.1430 C.2     1  UNL1        0.2730
     17 O         -34.2340    4.9400   30.9050 O.2     1  UNL1       -0.2660
     18 H         -35.0900    6.1460   28.0750 H       1  UNL1        0.1630
     19 C         -36.1950    6.2240   30.6330 C.ar    1  UNL1        0.1540
     20 C         -36.4580    7.6290   30.6970 C.ar    1  UNL1       -0.0170
     21 C         -37.7700    7.7300   31.2130 C.ar    1  UNL1        0.0770
     22 H         -35.7990    8.4500   30.4130 H       1  UNL1        0.0910
     23 O         -38.2000    6.5190   31.4170 O.2     1  UNL1       -0.2180
     24 N         -37.2990    5.6230   31.0860 N.ar    1  UNL1       -0.1230
     25 C         -38.5370    9.0180   31.4800 C.3     1  UNL1       -0.0290
     26 H         -38.6190    9.1760   32.5550 H       1  UNL1        0.0360
     27 H         -38.0070    9.8560   31.0290 H       1  UNL1        0.0360
     28 H         -39.5340    8.9430   31.0470 H       1  UNL1        0.0360
     29 C         -33.6120    3.6170   27.7410 C.3     1  UNL1       -0.0490
     30 H         -34.2870    3.1010   28.4230 H       1  UNL1        0.0300
     31 H         -34.0860    3.7130   26.7640 H       1  UNL1        0.0300
     32 H         -32.6890    3.0450   27.6420 H       1  UNL1        0.0300
     33 C         -32.7800    5.8990   23.3690 C.3     1  UNL1       -0.0330
     34 H         -33.6310    6.4090   22.9180 H       1  UNL1        0.0420
     35 C         -31.5630    6.0770   22.4080 C.3     1  UNL1       -0.0710
     36 H         -31.8080    5.6610   21.4300 H       1  UNL1        0.0280
     37 H         -31.3350    7.1370   22.3040 H       1  UNL1        0.0280
     38 H         -30.6970    5.5560   22.8170 H       1  UNL1        0.0280
     39 C         -33.1530    4.3910   23.5360 C.3     1  UNL1       -0.0710
     40 H         -33.8920    4.1140   22.7850 H       1  UNL1        0.0280
     41 H         -32.2590    3.7790   23.4100 H       1  UNL1        0.0280
     42 H         -33.5670    4.2270   24.5310 H       1  UNL1        0.0280
     43 C         -31.8090   11.4250   25.4240 C.2     1  UNL1        0.2400
     44 O         -30.7300   11.1400   25.8320 O.2     1  UNL1       -0.2710
     45 N         -32.0390   12.7620   24.8070 N.am    1  UNL1       -0.3550
     46 H         -32.9500   13.0140   24.4520 H       1  UNL1        0.1620
     47 C         -30.9230   13.7280   24.7140 C.3     1  UNL1        0.0130
     48 H         -30.1270   13.3850   25.3740 H       1  UNL1        0.0720
     49 C         -31.4060   15.0920   25.1520 C.3     1  UNL1       -0.0380
     50 H         -30.9570   15.2640   26.1310 H       1  UNL1        0.0360
     51 H         -31.1800   15.7640   24.3240 H       1  UNL1        0.0360
     52 C         -32.9350   15.1500   25.3580 C.3     1  UNL1        0.0180
     53 H         -33.3330   15.6460   24.4730 H       1  UNL1        0.0480
     54 H         -33.2400   14.1300   25.5950 H       1  UNL1        0.0480
     55 C         -33.3720   16.0200   26.5690 C.2     1  UNL1        0.2590
     56 O         -33.7990   17.1160   26.4020 O.2     1  UNL1       -0.2650
     57 O         -33.2440   15.4960   27.8850 O.3     1  UNL1       -0.3170
     58 C         -33.6470   14.1290   28.0090 C.3     1  UNL1        0.0520
     59 H         -34.5960   14.1480   28.5450 H       1  UNL1        0.0820
     60 H         -33.5980   13.7140   27.0030 H       1  UNL1        0.0820
     61 C         -32.6000   13.3990   28.8920 C.ar    1  UNL1       -0.0340
     62 C         -31.2580   13.3960   28.5230 C.ar    1  UNL1       -0.0750
     63 C         -30.3170   12.7410   29.3160 C.ar    1  UNL1       -0.0820
     64 H         -30.9440   13.9070   27.6130 H       1  UNL1        0.0840
     65 C         -30.7230   12.0840   30.4810 C.ar    1  UNL1       -0.0830
     66 H         -29.2670   12.7410   29.0250 H       1  UNL1        0.0830
     67 C         -32.0630   12.0870   30.8440 C.ar    1  UNL1       -0.0820
     68 H         -29.9940   11.5700   31.1070 H       1  UNL1        0.0830
     69 C         -33.0060   12.7430   30.0560 C.ar    1  UNL1       -0.0750
     70 H         -32.3760   11.5720   31.7520 H       1  UNL1        0.0830
     71 H         -34.0570   12.7410   30.3480 H       1  UNL1        0.0840
     72 C         -30.4230   13.8030   23.2730 C.3     1  UNL1       -0.0390
     73 H         -29.4490   13.3120   23.2780 H       1  UNL1        0.0360
     74 H         -31.2320   13.4010   22.6640 H       1  UNL1        0.0360
     75 C         -30.1860   15.3170   22.8060 C.3     1  UNL1       -0.0010
     76 C         -31.2810   15.7230   21.6470 C.3     1  UNL1       -0.0350
     77 C         -30.6200   16.2470   20.5870 C.3     1  UNL1        0.0850
     78 H         -31.7440   14.8240   21.2400 H       1  UNL1        0.0360
     79 H         -31.9030   16.5480   21.9930 H       1  UNL1        0.0360
     80 N         -29.1560   15.9350   20.7820 N.4     1  UNL1       -0.0490
     81 H         -30.9870   15.7020   19.7170 H       1  UNL1        0.0750
     82 H         -30.7660   17.3240   20.6570 H       1  UNL1        0.0750
     83 C         -29.0000   15.4770   22.3220 C.3     1  UNL1        0.1930
     84 H         -28.9500   15.1440   20.1880 H       1  UNL1        0.2800
     85 H         -28.6590   16.8050   20.6530 H       1  UNL1        0.2800
     86 H         -28.5740   16.1550   23.0610 H       1  UNL1        0.1290
     87 H         -30.0820   15.9980   23.6500 H       1  UNL1        0.0460
     88 O         -28.2190   14.2830   22.4040 O.3     1  UNL1       -0.3690
     89 H         -28.7780   13.5530   22.6790 H       1  UNL1        0.2120
     90 C         -33.7180   10.5990   26.8360 C.3     1  UNL1       -0.0350
     91 H         -33.0220   11.1270   27.4870 H       1  UNL1        0.0370
     92 H         -34.6650   11.0640   26.5600 H       1  UNL1        0.0370
     93 C         -34.0780    9.2650   27.5650 C.3     1  UNL1       -0.0590
     94 H         -33.5600    8.4570   27.0500 H       1  UNL1        0.0380
     95 C         -33.6040    9.2620   29.0540 C.3     1  UNL1       -0.0730
     96 H         -34.3900    9.6740   29.6870 H       1  UNL1        0.0280
     97 H         -33.3880    8.2400   29.3650 H       1  UNL1        0.0280
     98 H         -32.7040    9.8690   29.1510 H       1  UNL1        0.0280
     99 C         -35.5780    8.9770   27.4700 C.3     1  UNL1       -0.0730
    100 H         -35.9370    8.5960   28.4270 H       1  UNL1        0.0280
    101 H         -36.1100    9.8960   27.2230 H       1  UNL1        0.0280
    102 H         -35.7570    8.2350   26.6930 H       1  UNL1        0.0280
@<TRIPOS>BOND
     1    81    77    1
     2    84    80    1
     3    77    82    1
     4    77    80    1
     5    77    76    1
     6    85    80    1
     7    80    83    1
     8    78    76    1
     9    36    35    1
    10    76    79    1
    11    76    75    1
    12    37    35    1
    13    83    88    1
    14    83    75    1
    15    83    86    1
    16    88    89    1
    17    35    38    1
    18    35    33    1
    19    74    72    1
    20    40    39    1
    21    75    72    1
    22    75    87    1
    23    34    33    1
    24    72    73    1
    25    72    47    1
    26    33    39    1
    27    33     7    1
    28    41    39    1
    29    39    42    1
    30     5     4    2
    31    51    49    1
    32    46    45    1
    33    53    52    1
    34     2     1    1
    35    47    45    1
    36    47    49    1
    37    47    48    1
    38     7     4    1
    39     7     8    1
    40     7     9    1
    41     4     3   am
    42    45    43   am
    43    49    52    1
    44    49    50    1
    45    52    54    1
    46    52    55    1
    47    43     1    1
    48    43    44    2
    49     3     1    1
    50     3     6    1
    51     1    90    1
    52    12     9    1
    53     9    10   am
    54    56    55    2
    55    92    90    1
    56    55    57    1
    57   102    99    1
    58    31    29    1
    59    90    91    1
    60    90    93    1
    61    60    58    1
    62    94    93    1
    63    10    11    2
    64    10    13    1
    65   101    99    1
    66    99    93    1
    67    99   100    1
    68    93    95    1
    69    64    62    1
    70    32    29    1
    71    29    13    1
    72    29    30    1
    73    57    58    1
    74    58    59    1
    75    58    61    1
    76    18    15    1
    77    13    15    1
    78    13    14    1
    79    62    61   ar
    80    62    63   ar
    81    15    16   am
    82    61    69   ar
    83    66    63    1
    84    95    98    1
    85    95    97    1
    86    95    96    1
    87    63    65   ar
    88    69    71    1
    89    69    67   ar
    90    16    19    1
    91    16    17    2
    92    22    20    1
    93    65    67   ar
    94    65    68    1
    95    19    20   ar
    96    19    24   ar
    97    20    21   ar
    98    67    70    1
    99    27    25    1
   100    28    25    1
   101    24    23   ar
   102    21    23   ar
   103    21    25    1
   104    25    26    1
@<TRIPOS>MOLECULE
crystal_redock_e32_er3_1.pdbqt
 102 104 0 0 0
SMALL
GASTEIGER

@<TRIPOS>ATOM
      1 C         -32.9580   10.2500   25.4440 C.3     1  UNL1        0.0890
      2 H         -33.6350   10.3260   24.5920 H       1  UNL1        0.0870
      3 N         -32.3940    8.9080   25.4370 N.am    1  UNL1       -0.3460
      4 C         -33.1450    7.7690   24.7950 C.2     1  UNL1        0.2410
      5 O         -34.2040    7.9570   24.2920 O.2     1  UNL1       -0.2710
      6 H         -31.4930    8.7690   25.8720 H       1  UNL1        0.1630
      7 C         -32.5440    6.3880   24.7920 C.3     1  UNL1        0.0920
      8 H         -31.4770    6.4620   25.0030 H       1  UNL1        0.0880
      9 N         -33.1450    5.5910   25.8660 N.am    1  UNL1       -0.3460
     10 C         -32.6890    5.7530   27.2250 C.2     1  UNL1        0.2400
     11 O         -31.8390    6.5190   27.4710 O.2     1  UNL1       -0.2710
     12 H         -33.8780    4.9260   25.6680 H       1  UNL1        0.1630
     13 C         -33.3300    4.9000   28.3630 C.3     1  UNL1        0.0860
     14 H         -32.6920    4.8250   29.2440 H       1  UNL1        0.0860
     15 N         -34.5620    5.5390   28.7950 N.am    1  UNL1       -0.3430
     16 C         -34.9220    5.5260   30.2140 C.2     1  UNL1        0.2730
     17 O         -34.2160    4.9960   31.0000 O.2     1  UNL1       -0.2660
     18 H         -35.1610    5.9880   28.1160 H       1  UNL1        0.1630
     19 C         -36.2210    6.1990   30.6850 C.ar    1  UNL1        0.1540
     20 C         -36.5080    7.6010   30.7100 C.ar    1  UNL1       -0.0170
     21 C         -37.8220    7.6930   31.2220 C.ar    1  UNL1        0.0770
     22 H         -35.8630    8.4240   30.4040 H       1  UNL1        0.0910
     23 O         -38.2320    6.4820   31.4590 O.2     1  UNL1       -0.2180
     24 N         -37.3150    5.5920   31.1530 N.ar    1  UNL1       -0.1230
     25 C         -38.6110    8.9750   31.4540 C.3     1  UNL1       -0.0290
     26 H         -38.9180    9.0300   32.4980 H       1  UNL1        0.0360
     27 H         -37.9850    9.8350   31.2140 H       1  UNL1        0.0360
     28 H         -39.4940    8.9790   30.8150 H       1  UNL1        0.0360
     29 C         -33.6200    3.5120   27.8510 C.3     1  UNL1       -0.0490
     30 H         -34.0330    3.5750   26.8440 H       1  UNL1        0.0300
     31 H         -32.6970    2.9330   27.8300 H       1  UNL1        0.0300
     32 H         -34.3400    3.0250   28.5090 H       1  UNL1        0.0300
     33 C         -32.8250    5.7040   23.4220 C.3     1  UNL1       -0.0330
     34 H         -33.7050    6.1800   22.9910 H       1  UNL1        0.0420
     35 C         -31.6410    5.9150   22.4280 C.3     1  UNL1       -0.0710
     36 H         -31.6090    5.0880   21.7190 H       1  UNL1        0.0280
     37 H         -31.7830    6.8510   21.8880 H       1  UNL1        0.0280
     38 H         -30.7030    5.9540   22.9820 H       1  UNL1        0.0280
     39 C         -33.1410    4.1850   23.6110 C.3     1  UNL1       -0.0710
     40 H         -34.2020    4.0600   23.8290 H       1  UNL1        0.0280
     41 H         -32.8920    3.6460   22.6970 H       1  UNL1        0.0280
     42 H         -32.5510    3.7910   24.4370 H       1  UNL1        0.0280
     43 C         -31.7930   11.2770   25.3610 C.2     1  UNL1        0.2400
     44 O         -30.7180   10.9870   25.7780 O.2     1  UNL1       -0.2710
     45 N         -32.0150   12.6200   24.7530 N.am    1  UNL1       -0.3550
     46 H         -32.9220   12.8760   24.3910 H       1  UNL1        0.1620
     47 C         -30.8960   13.5860   24.6800 C.3     1  UNL1        0.0130
     48 H         -30.0820   13.2020   25.2940 H       1  UNL1        0.0720
     49 C         -31.3570   14.9240   25.2110 C.3     1  UNL1       -0.0380
     50 H         -30.5560   15.6260   24.9760 H       1  UNL1        0.0360
     51 H         -32.3540   15.0770   24.7990 H       1  UNL1        0.0360
     52 C         -31.5120   14.9390   26.7470 C.3     1  UNL1        0.0180
     53 H         -30.9830   14.0570   27.1060 H       1  UNL1        0.0480
     54 H         -31.1960   15.9320   27.0670 H       1  UNL1        0.0480
     55 C         -32.9810   14.7820   27.2290 C.2     1  UNL1        0.2590
     56 O         -33.7340   14.0700   26.6480 O.2     1  UNL1       -0.2650
     57 O         -33.4220   15.5110   28.3690 O.3     1  UNL1       -0.3170
     58 C         -34.5070   16.4040   28.1040 C.3     1  UNL1        0.0520
     59 H         -35.1460   15.8880   27.3870 H       1  UNL1        0.0820
     60 H         -34.9020   16.6860   29.0800 H       1  UNL1        0.0820
     61 C         -33.9290   17.6730   27.4240 C.ar    1  UNL1       -0.0340
     62 C         -34.3860   18.0610   26.1690 C.ar    1  UNL1       -0.0750
     63 C         -33.8660   19.2010   25.5580 C.ar    1  UNL1       -0.0820
     64 H         -35.1510   17.4710   25.6640 H       1  UNL1        0.0840
     65 C         -32.8820   19.9530   26.2060 C.ar    1  UNL1       -0.0830
     66 H         -34.2270   19.5030   24.5740 H       1  UNL1        0.0830
     67 C         -32.4270   19.5600   27.4570 C.ar    1  UNL1       -0.0820
     68 H         -32.4710   20.8460   25.7350 H       1  UNL1        0.0830
     69 C         -32.9450   18.4230   28.0730 C.ar    1  UNL1       -0.0750
     70 H         -31.6580   20.1480   27.9590 H       1  UNL1        0.0830
     71 H         -32.5830   18.1220   29.0560 H       1  UNL1        0.0840
     72 C         -30.4410   13.7410   23.2310 C.3     1  UNL1       -0.0390
     73 H         -29.4700   13.2480   23.1770 H       1  UNL1        0.0360
     74 H         -31.2710   13.3760   22.6250 H       1  UNL1        0.0360
     75 C         -30.2130   15.2780   22.8420 C.3     1  UNL1       -0.0010
     76 C         -31.3000   15.7330   21.6960 C.3     1  UNL1       -0.0350
     77 C         -30.6340   16.3150   20.6700 C.3     1  UNL1        0.0850
     78 H         -31.7530   14.8530   21.2390 H       1  UNL1        0.0360
     79 H         -31.9320   16.5350   22.0770 H       1  UNL1        0.0360
     80 N         -29.1700   16.0060   20.8620 N.4     1  UNL1       -0.0490
     81 H         -30.9890   15.8130   19.7700 H       1  UNL1        0.0750
     82 H         -30.7900   17.3870   20.7920 H       1  UNL1        0.0750
     83 C         -29.0240   15.4710   22.3780 C.3     1  UNL1        0.1930
     84 H         -28.9520   15.2470   20.2310 H       1  UNL1        0.2800
     85 H         -28.6790   16.8850   20.7820 H       1  UNL1        0.2800
     86 H         -28.6100   16.1150   23.1550 H       1  UNL1        0.1290
     87 H         -30.1230   15.9170   23.7210 H       1  UNL1        0.0460
     88 O         -28.2340   14.2810   22.4080 O.3     1  UNL1       -0.3690
     89 H         -28.3470   13.8430   23.2540 H       1  UNL1        0.2120
     90 C         -33.7310   10.4570   26.7360 C.3     1  UNL1       -0.0350
     91 H         -33.9200   11.5280   26.7910 H       1  UNL1        0.0370
     92 H         -34.5660    9.7580   26.6880 H       1  UNL1        0.0370
     93 C         -32.9190   10.0860   28.0180 C.3     1  UNL1       -0.0590
     94 H         -31.9920    9.6110   27.6970 H       1  UNL1        0.0380
     95 C         -32.5410   11.3460   28.8610 C.3     1  UNL1       -0.0730
     96 H         -33.3840   12.0360   28.8810 H       1  UNL1        0.0280
     97 H         -32.2970   11.0430   29.8790 H       1  UNL1        0.0280
     98 H         -31.6790   11.8390   28.4120 H       1  UNL1        0.0280
     99 C         -33.6790    9.0680   28.8720 C.3     1  UNL1       -0.0730
    100 H         -34.2090    9.5870   29.6710 H       1  UNL1        0.0280
    101 H         -34.3970    8.5340   28.2480 H       1  UNL1        0.0280
    102 H         -32.9750    8.3570   29.3030 H       1  UNL1        0.0280
@<TRIPOS>BOND
     1    81    77    1
     2    84    80    1
     3    77    82    1
     4    77    80    1
     5    77    76    1
     6    85    80    1
     7    80    83    1
     8    78    76    1
     9    76    79    1
    10    76    75    1
    11    36    35    1
    12    37    35    1
    13    83    88    1
    14    83    75    1
    15    83    86    1
    16    88    89    1
    17    35    38    1
    18    35    33    1
    19    74    72    1
    20    41    39    1
    21    75    72    1
    22    75    87    1
    23    34    33    1
    24    73    72    1
    25    72    47    1
    26    33    39    1
    27    33     7    1
    28    39    40    1
    29    39    42    1
    30     5     4    2
    31    46    45    1
    32    66    63    1
    33     2     1    1
    34    47    45    1
    35    47    49    1
    36    47    48    1
    37    45    43   am
    38     7     4    1
    39     7     8    1
    40     7     9    1
    41     4     3   am
    42    51    49    1
    43    50    49    1
    44    49    52    1
    45    43     1    1
    46    43    44    2
    47     3     1    1
    48     3     6    1
    49     1    90    1
    50    63    62   ar
    51    63    65   ar
    52    64    62    1
    53    12     9    1
    54    68    65    1
    55     9    10   am
    56    62    61   ar
    57    65    67   ar
    58    56    55    2
    59    92    90    1
    60    90    91    1
    61    90    93    1
    62    52    54    1
    63    52    53    1
    64    52    55    1
    65    30    29    1
    66    10    11    2
    67    10    13    1
    68    55    57    1
    69    59    58    1
    70    61    69   ar
    71    61    58    1
    72    67    70    1
    73    67    69   ar
    74    94    93    1
    75    31    29    1
    76    29    13    1
    77    29    32    1
    78    93    95    1
    79    93    99    1
    80    69    71    1
    81    58    57    1
    82    58    60    1
    83    18    15    1
    84   101    99    1
    85    13    15    1
    86    13    14    1
    87    98    95    1
    88    15    16   am
    89    95    96    1
    90    95    97    1
    91    99   102    1
    92    99   100    1
    93    16    19    1
    94    16    17    2
    95    22    20    1
    96    19    20   ar
    97    19    24   ar
    98    20    21   ar
    99    28    25    1
   100    24    23   ar
   101    27    25    1
   102    21    25    1
   103    21    23   ar
   104    25    26    1
@<TRIPOS>MOLECULE
crystal_redock_e32_er3_1.pdbqt
 102 104 0 0 0
SMALL
GASTEIGER

@<TRIPOS>ATOM
      1 C         -31.3340   14.6070   24.2250 C.3     1  UNL1        0.0890
      2 H         -30.3110   14.5550   24.5990 H       1  UNL1        0.0870
      3 N         -31.8380   13.2450   24.1350 N.am    1  UNL1       -0.3460
      4 C         -31.6210   12.2770   25.2700 C.2     1  UNL1        0.2410
      5 O         -31.0350   12.6160   26.2450 O.2     1  UNL1       -0.2710
      6 H         -32.3310   12.9750   23.2960 H       1  UNL1        0.1630
      7 C         -32.1540   10.8720   25.1630 C.3     1  UNL1        0.0920
      8 H         -33.0140   10.8650   24.4930 H       1  UNL1        0.0880
      9 N         -31.1330   10.0050   24.5670 N.am    1  UNL1       -0.3460
     10 C         -31.3920    9.3450   23.3110 C.2     1  UNL1        0.2400
     11 O         -32.4180    9.4980   22.7680 O.2     1  UNL1       -0.2710
     12 H         -30.2440    9.8620   25.0250 H       1  UNL1        0.1630
     13 C         -30.3030    8.4210   22.6830 C.3     1  UNL1        0.0860
     14 H         -29.8950    7.7050   23.3960 H       1  UNL1        0.0860
     15 N         -30.9040    7.6450   21.6110 N.am    1  UNL1       -0.3430
     16 C         -31.5150    6.3490   21.9140 C.2     1  UNL1        0.2730
     17 O         -31.5150    5.9390   23.0230 O.2     1  UNL1       -0.2660
     18 H         -30.8960    8.0020   20.6660 H       1  UNL1        0.1630
     19 C         -32.1550    5.5180   20.7910 C.ar    1  UNL1        0.1540
     20 C         -32.1250    4.0950   20.6440 C.ar    1  UNL1       -0.0170
     21 C         -32.8530    3.8370   19.4610 C.ar    1  UNL1        0.0770
     22 H         -31.6490    3.3620   21.2950 H       1  UNL1        0.0910
     23 O         -33.2510    4.9840   18.9930 O.2     1  UNL1       -0.2180
     24 N         -32.8550    5.9800   19.7510 N.ar    1  UNL1       -0.1230
     25 C         -33.1230    2.4690   18.8490 C.3     1  UNL1       -0.0290
     26 H         -32.3010    1.7950   19.0880 H       1  UNL1        0.0360
     27 H         -34.0520    2.0670   19.2540 H       1  UNL1        0.0360
     28 H         -33.2110    2.5660   17.7670 H       1  UNL1        0.0360
     29 C         -29.1770    9.2650   22.1420 C.3     1  UNL1       -0.0490
     30 H         -29.5750    9.9910   21.4330 H       1  UNL1        0.0300
     31 H         -28.6880    9.7880   22.9630 H       1  UNL1        0.0300
     32 H         -28.4530    8.6240   21.6370 H       1  UNL1        0.0300
     33 C         -32.5140   10.3440   26.5830 C.3     1  UNL1       -0.0330
     34 H         -31.7940   10.7670   27.2830 H       1  UNL1        0.0420
     35 C         -33.9330   10.8220   27.0240 C.3     1  UNL1       -0.0710
     36 H         -34.3390   11.4970   26.2710 H       1  UNL1        0.0280
     37 H         -34.5900    9.9590   27.1310 H       1  UNL1        0.0280
     38 H         -33.8600   11.3440   27.9780 H       1  UNL1        0.0280
     39 C         -32.3950    8.7870   26.6470 C.3     1  UNL1       -0.0710
     40 H         -33.3710    8.3570   26.8730 H       1  UNL1        0.0280
     41 H         -32.0450    8.4100   25.6860 H       1  UNL1        0.0280
     42 H         -31.6850    8.5090   27.4260 H       1  UNL1        0.0280
     43 C         -32.2640   15.4180   25.1710 C.2     1  UNL1        0.2400
     44 O         -33.2760   15.8810   24.7520 O.2     1  UNL1       -0.2710
     45 N         -31.8990   15.6110   26.6040 N.am    1  UNL1       -0.3550
     46 H         -31.0450   15.2190   26.9730 H       1  UNL1        0.1620
     47 C         -32.7950   16.3830   27.4910 C.3     1  UNL1        0.0130
     48 H         -33.8130   16.2730   27.1190 H       1  UNL1        0.0720
     49 C         -32.3900   17.8400   27.4650 C.3     1  UNL1       -0.0380
     50 H         -31.8890   18.0240   28.4150 H       1  UNL1        0.0360
     51 H         -31.8510   17.9780   26.5270 H       1  UNL1        0.0360
     52 C         -33.6010   18.7970   27.4180 C.3     1  UNL1        0.0180
     53 H         -34.4140   18.2700   27.9140 H       1  UNL1        0.0480
     54 H         -33.2430   19.7470   27.8170 H       1  UNL1        0.0480
     55 C         -34.1040   19.1010   25.9790 C.2     1  UNL1        0.2590
     56 O         -33.3490   19.4830   25.1440 O.2     1  UNL1       -0.2650
     57 O         -35.4820   18.9300   25.6720 O.3     1  UNL1       -0.3170
     58 C         -36.2080   18.1810   26.6510 C.3     1  UNL1        0.0520
     59 H         -35.5910   18.1930   27.5490 H       1  UNL1        0.0820
     60 H         -37.2080   18.6130   26.6720 H       1  UNL1        0.0820
     61 C         -36.3170   16.7160   26.1500 C.ar    1  UNL1       -0.0340
     62 C         -36.0480   15.6610   27.0160 C.ar    1  UNL1       -0.0750
     63 C         -36.1450   14.3460   26.5660 C.ar    1  UNL1       -0.0820
     64 H         -35.7600   15.8660   28.0480 H       1  UNL1        0.0840
     65 C         -36.5110   14.0860   25.2420 C.ar    1  UNL1       -0.0830
     66 H         -35.9350   13.5210   27.2480 H       1  UNL1        0.0830
     67 C         -36.7760   15.1420   24.3810 C.ar    1  UNL1       -0.0820
     68 H         -36.5910   13.0600   24.8820 H       1  UNL1        0.0830
     69 C         -36.6820   16.4580   24.8270 C.ar    1  UNL1       -0.0750
     70 H         -37.0590   14.9360   23.3480 H       1  UNL1        0.0830
     71 H         -36.8920   17.2820   24.1440 H       1  UNL1        0.0840
     72 C         -32.6920   15.8510   28.9190 C.3     1  UNL1       -0.0390
     73 H         -32.2370   16.6570   29.4970 H       1  UNL1        0.0360
     74 H         -33.6920   15.4980   29.1700 H       1  UNL1        0.0360
     75 C         -31.7080   14.5900   29.0120 C.3     1  UNL1       -0.0010
     76 C         -32.5650   13.2380   29.3880 C.3     1  UNL1       -0.0350
     77 C         -31.9770   12.6290   30.4450 C.3     1  UNL1        0.0850
     78 H         -33.5490   13.5130   29.7670 H       1  UNL1        0.0360
     79 H         -32.4750   12.5040   28.5870 H       1  UNL1        0.0360
     80 N         -30.9920   13.6120   31.0300 N.4     1  UNL1       -0.0490
     81 H         -32.7780   12.4570   31.1640 H       1  UNL1        0.0750
     82 H         -31.4300   11.7840   30.0270 H       1  UNL1        0.0750
     83 C         -30.8050   14.7670   29.9180 C.3     1  UNL1        0.1930
     84 H         -31.4380   14.0150   31.8410 H       1  UNL1        0.2800
     85 H         -30.1180   13.1150   31.1280 H       1  UNL1        0.2800
     86 H         -29.9080   14.8010   29.3000 H       1  UNL1        0.1290
     87 H         -31.0340   14.5290   28.1580 H       1  UNL1        0.0460
     88 O         -30.8980   16.0570   30.5270 O.3     1  UNL1       -0.3690
     89 H         -31.7710   16.1670   30.9120 H       1  UNL1        0.2120
     90 C         -31.3440   15.2330   22.8390 C.3     1  UNL1       -0.0350
     91 H         -32.2870   14.9230   22.3900 H       1  UNL1        0.0370
     92 H         -31.1380   16.2910   22.9980 H       1  UNL1        0.0370
     93 C         -30.2140   14.6990   21.9020 C.3     1  UNL1       -0.0590
     94 H         -30.2590   13.6100   21.9170 H       1  UNL1        0.0380
     95 C         -30.4060   15.1640   20.4230 C.3     1  UNL1       -0.0730
     96 H         -29.6110   15.8590   20.1540 H       1  UNL1        0.0280
     97 H         -30.3700   14.2980   19.7620 H       1  UNL1        0.0280
     98 H         -31.3710   15.6590   20.3210 H       1  UNL1        0.0280
     99 C         -28.8340   15.1040   22.4260 C.3     1  UNL1       -0.0730
    100 H         -28.6270   16.1370   22.1450 H       1  UNL1        0.0280
    101 H         -28.8150   15.0130   23.5120 H       1  UNL1        0.0280
    102 H         -28.0750   14.4510   21.9940 H       1  UNL1        0.0280
@<TRIPOS>BOND
     1    28    25    1
     2    25    26    1
     3    25    27    1
     4    25    21    1
     5    23    21   ar
     6    23    24   ar
     7    21    20   ar
     8    24    19   ar
     9    97    95    1
    10    96    95    1
    11    98    95    1
    12    95    93    1
    13    20    19   ar
    14    20    22    1
    15    18    15    1
    16    19    16    1
    17    30    29    1
    18    15    16   am
    19    15    13    1
    20    32    29    1
    21    93    94    1
    22    93    99    1
    23    93    90    1
    24    16    17    2
    25   102    99    1
    26    29    13    1
    27    29    31    1
    28   100    99    1
    29    91    90    1
    30    99   101    1
    31    13    10    1
    32    13    14    1
    33    11    10    2
    34    90    92    1
    35    90     1    1
    36     6     3    1
    37    10     9   am
    38    70    67    1
    39     3     1    1
    40     3     4   am
    41    71    69    1
    42     1     2    1
    43     1    43    1
    44    67    69   ar
    45    67    65   ar
    46     8     7    1
    47     9    12    1
    48     9     7    1
    49    44    43    2
    50    69    61   ar
    51    68    65    1
    52    56    55    2
    53     7     4    1
    54     7    33    1
    55    43    45   am
    56    65    63   ar
    57     4     5    2
    58    57    55    1
    59    57    58    1
    60    41    39    1
    61    55    52    1
    62    61    58    1
    63    61    62   ar
    64    36    35    1
    65    51    49    1
    66    63    62   ar
    67    63    66    1
    68    33    39    1
    69    33    35    1
    70    33    34    1
    71    45    46    1
    72    45    47    1
    73    39    40    1
    74    39    42    1
    75    58    60    1
    76    58    59    1
    77    62    64    1
    78    35    37    1
    79    35    38    1
    80    48    47    1
    81    52    49    1
    82    52    54    1
    83    52    53    1
    84    49    47    1
    85    49    50    1
    86    47    72    1
    87    87    75    1
    88    79    76    1
    89    72    75    1
    90    72    74    1
    91    72    73    1
    92    75    76    1
    93    75    83    1
    94    86    83    1
    95    76    78    1
    96    76    77    1
    97    83    88    1
    98    83    80    1
    99    82    77    1
   100    77    80    1
   101    77    81    1
   102    88    89    1
   103    80    85    1
   104    80    84    1
@<TRIPOS>MOLECULE
crystal_redock_e32_er3_1.pdbqt
 102 104 0 0 0
SMALL
GASTEIGER

@<TRIPOS>ATOM
      1 C         -36.4680   16.0620   26.4850 C.3     1  UNL1        0.0890
      2 H         -37.0620   16.6090   27.2170 H       1  UNL1        0.0870
      3 N         -35.0670   16.2440   26.8340 N.am    1  UNL1       -0.3460
      4 C         -34.6710   17.2260   27.9080 C.2     1  UNL1        0.2410
      5 O         -35.4980   17.8600   28.4760 O.2     1  UNL1       -0.2710
      6 H         -34.3780   15.6970   26.3370 H       1  UNL1        0.1630
      7 C         -33.2160   17.3970   28.2600 C.3     1  UNL1        0.0920
      8 H         -33.1380   17.9130   29.2170 H       1  UNL1        0.0880
      9 N         -32.5940   16.0800   28.4240 N.am    1  UNL1       -0.3460
     10 C         -31.7320   15.8270   29.5520 C.2     1  UNL1        0.2400
     11 O         -31.5270   16.6710   30.3360 O.2     1  UNL1       -0.2710
     12 H         -32.7600   15.3420   27.7550 H       1  UNL1        0.1630
     13 C         -31.0700   14.4240   29.7200 C.3     1  UNL1        0.0860
     14 H         -30.4010   14.3730   30.5790 H       1  UNL1        0.0860
     15 N         -32.1110   13.4350   29.9440 N.am    1  UNL1       -0.3430
     16 C         -31.7860   12.1920   30.6470 C.2     1  UNL1        0.2730
     17 O         -30.6830   11.9950   31.0250 O.2     1  UNL1       -0.2660
     18 H         -33.0500   13.6090   29.6150 H       1  UNL1        0.1630
     19 C         -32.8770   11.1380   30.8920 C.ar    1  UNL1        0.1540
     20 C         -33.2370   10.0500   30.0350 C.ar    1  UNL1       -0.0170
     21 C         -34.2850    9.3860   30.7110 C.ar    1  UNL1        0.0770
     22 H         -32.8040    9.7830   29.0710 H       1  UNL1        0.0910
     23 O         -34.4930   10.0240   31.8250 O.2     1  UNL1       -0.2180
     24 N         -33.6840   11.0510   31.9530 N.ar    1  UNL1       -0.1230
     25 C         -35.0300    8.1500   30.2260 C.3     1  UNL1       -0.0290
     26 H         -35.9270    8.0060   30.8280 H       1  UNL1        0.0360
     27 H         -35.3120    8.2830   29.1810 H       1  UNL1        0.0360
     28 H         -34.3860    7.2760   30.3200 H       1  UNL1        0.0360
     29 C         -30.2910   14.0800   28.4760 C.3     1  UNL1       -0.0490
     30 H         -30.6010   14.7350   27.6610 H       1  UNL1        0.0300
     31 H         -29.2260   14.2160   28.6650 H       1  UNL1        0.0300
     32 H         -30.4820   13.0430   28.2010 H       1  UNL1        0.0300
     33 C         -32.4940   18.1710   27.1180 C.3     1  UNL1       -0.0330
     34 H         -31.4370   18.2290   27.3780 H       1  UNL1        0.0420
     35 C         -32.6010   17.4090   25.7600 C.3     1  UNL1       -0.0710
     36 H         -33.4870   17.7490   25.2220 H       1  UNL1        0.0280
     37 H         -31.7130   17.6090   25.1610 H       1  UNL1        0.0280
     38 H         -32.6800   16.3390   25.9490 H       1  UNL1        0.0280
     39 C         -33.0430   19.6280   26.9950 C.3     1  UNL1       -0.0710
     40 H         -33.6400   19.7160   26.0870 H       1  UNL1        0.0280
     41 H         -33.6630   19.8570   27.8630 H       1  UNL1        0.0280
     42 H         -32.2090   20.3280   26.9520 H       1  UNL1        0.0280
     43 C         -36.7850   14.5390   26.4900 C.2     1  UNL1        0.2400
     44 O         -37.8740   14.1630   26.7830 O.2     1  UNL1       -0.2710
     45 N         -35.7340   13.5490   26.1190 N.am    1  UNL1       -0.3550
     46 H         -34.8070   13.8570   25.8630 H       1  UNL1        0.1620
     47 C         -36.0520   12.1050   26.1270 C.3     1  UNL1        0.0130
     48 H         -36.9640   11.9650   26.7080 H       1  UNL1        0.0720
     49 C         -34.9110   11.3450   26.7670 C.3     1  UNL1       -0.0380
     50 H         -35.3020   10.9680   27.7120 H       1  UNL1        0.0360
     51 H         -34.5590   10.6490   26.0060 H       1  UNL1        0.0360
     52 C         -33.7120   12.2510   27.1200 C.3     1  UNL1        0.0180
     53 H         -33.9330   13.2210   26.6760 H       1  UNL1        0.0480
     54 H         -33.5820   12.1620   28.1990 H       1  UNL1        0.0480
     55 C         -32.3700   11.7880   26.4870 C.2     1  UNL1        0.2590
     56 O         -31.6500   11.0470   27.0750 O.2     1  UNL1       -0.2650
     57 O         -32.0030   12.2700   25.2000 O.3     1  UNL1       -0.3170
     58 C         -31.7620   13.6790   25.1530 C.3     1  UNL1        0.0520
     59 H         -32.7330   14.1390   24.9670 H       1  UNL1        0.0820
     60 H         -31.2130   13.9150   26.0650 H       1  UNL1        0.0820
     61 C         -30.8410   13.9670   23.9380 C.ar    1  UNL1       -0.0340
     62 C         -30.3590   12.9160   23.1640 C.ar    1  UNL1       -0.0750
     63 C         -29.5320   13.1740   22.0720 C.ar    1  UNL1       -0.0820
     64 H         -30.6300   11.8900   23.4130 H       1  UNL1        0.0840
     65 C         -29.1840   14.4900   21.7570 C.ar    1  UNL1       -0.0830
     66 H         -29.1570   12.3480   21.4670 H       1  UNL1        0.0830
     67 C         -29.6640   15.5360   22.5340 C.ar    1  UNL1       -0.0820
     68 H         -28.5380   14.7010   20.9040 H       1  UNL1        0.0830
     69 C         -30.4930   15.2830   23.6240 C.ar    1  UNL1       -0.0750
     70 H         -29.3880   16.5620   22.2860 H       1  UNL1        0.0830
     71 H         -30.8670   16.1090   24.2290 H       1  UNL1        0.0840
     72 C         -36.2540   11.6120   24.6960 C.3     1  UNL1       -0.0390
     73 H         -35.7030   12.3130   24.0680 H       1  UNL1        0.0360
     74 H         -35.9750   10.5580   24.7100 H       1  UNL1        0.0360
     75 C         -37.7910   11.6890   24.2540 C.3     1  UNL1       -0.0010
     76 C         -38.2540   10.2590   23.5860 C.3     1  UNL1       -0.0350
     77 C         -38.8380   10.5050   22.3890 C.3     1  UNL1        0.0850
     78 H         -37.3770    9.6670   23.3260 H       1  UNL1        0.0360
     79 H         -39.0570    9.8140   24.1740 H       1  UNL1        0.0360
     80 N         -38.5220   11.9370   22.0300 N.4     1  UNL1       -0.0490
     81 H         -38.3390    9.8430   21.6810 H       1  UNL1        0.0750
     82 H         -39.9090   10.4100   22.5620 H       1  UNL1        0.0750
     83 C         -37.9820   12.6260   23.3870 C.3     1  UNL1        0.1930
     84 H         -37.7650   11.9050   21.3620 H       1  UNL1        0.2800
     85 H         -39.4000   12.3680   21.7780 H       1  UNL1        0.2800
     86 H         -38.6220   13.2980   23.9590 H       1  UNL1        0.1290
     87 H         -38.4270   12.0980   25.0390 H       1  UNL1        0.0460
     88 O         -36.7900   13.3670   23.1220 O.3     1  UNL1       -0.3690
     89 H         -36.4890   13.1810   22.2300 H       1  UNL1        0.2120
     90 C         -36.7110   16.6300   25.0960 C.3     1  UNL1       -0.0350
     91 H         -35.7220   16.7470   24.6540 H       1  UNL1        0.0370
     92 H         -37.4390   15.9630   24.6340 H       1  UNL1        0.0370
     93 C         -37.3590   18.0510   25.1050 C.3     1  UNL1       -0.0590
     94 H         -37.9380   18.1570   24.1880 H       1  UNL1        0.0380
     95 C         -38.3360   18.2460   26.3090 C.3     1  UNL1       -0.0730
     96 H         -38.0250   19.1110   26.8930 H       1  UNL1        0.0280
     97 H         -39.3470   18.4040   25.9360 H       1  UNL1        0.0280
     98 H         -38.3170   17.3570   26.9390 H       1  UNL1        0.0280
     99 C         -36.2860   19.1420   25.0930 C.3     1  UNL1       -0.0730
    100 H         -35.4520   18.8390   25.7270 H       1  UNL1        0.0280
    101 H         -35.9300   19.2920   24.0740 H       1  UNL1        0.0280
    102 H         -36.7090   20.0730   25.4700 H       1  UNL1        0.0280
@<TRIPOS>BOND
     1    68    65    1
     2    84    80    1
     3    66    63    1
     4    81    77    1
     5    65    63   ar
     6    65    67   ar
     7    85    80    1
     8    80    77    1
     9    80    83    1
    10    63    62   ar
    11    89    88    1
    12    70    67    1
    13    77    82    1
    14    77    76    1
    15    67    69   ar
    16    88    83    1
    17    62    64    1
    18    62    61   ar
    19    78    76    1
    20    83    86    1
    21    83    75    1
    22    76    79    1
    23    76    75    1
    24    69    61   ar
    25    69    71    1
    26    61    58    1
    27    73    72    1
    28   101    99    1
    29    94    93    1
    30    75    72    1
    31    75    87    1
    32    92    90    1
    33    91    90    1
    34    72    74    1
    35    72    47    1
    36    59    58    1
    37    99    93    1
    38    99   102    1
    39    99   100    1
    40    90    93    1
    41    90     1    1
    42    93    95    1
    43    58    57    1
    44    58    60    1
    45    37    35    1
    46    57    55    1
    47    36    35    1
    48    35    38    1
    49    35    33    1
    50    46    45    1
    51    97    95    1
    52    51    49    1
    53    40    39    1
    54    45    47    1
    55    45    43   am
    56    47    48    1
    57    47    49    1
    58    95    96    1
    59    95    98    1
    60     6     3    1
    61     1    43    1
    62     1     3    1
    63     1     2    1
    64    55    56    2
    65    55    52    1
    66    43    44    2
    67    53    52    1
    68    49    52    1
    69    49    50    1
    70     3     4   am
    71    42    39    1
    72    39    33    1
    73    39    41    1
    74    33    34    1
    75    33     7    1
    76    52    54    1
    77    30    29    1
    78    12     9    1
    79     4     7    1
    80     4     5    2
    81    32    29    1
    82     7     9    1
    83     7     8    1
    84     9    10   am
    85    29    31    1
    86    29    13    1
    87    22    20    1
    88    27    25    1
    89    10    13    1
    90    10    11    2
    91    18    15    1
    92    13    15    1
    93    13    14    1
    94    15    16   am
    95    20    21   ar
    96    20    19   ar
    97    25    28    1
    98    25    21    1
    99    25    26    1
   100    16    19    1
   101    16    17    2
   102    21    23   ar
   103    19    24   ar
   104    23    24   ar
@<TRIPOS>MOLECULE
crystal_redock_e32_er3_1.pdbqt
 102 104 0 0 0
SMALL
GASTEIGER

@<TRIPOS>ATOM
      1 C         -31.1450   14.5200   23.8880 C.3     1  UNL1        0.0890
      2 H         -30.1120   14.7660   24.1350 H       1  UNL1        0.0870
      3 N         -31.3380   13.1050   24.1670 N.am    1  UNL1       -0.3460
      4 C         -30.5470   12.0650   23.4130 C.2     1  UNL1        0.2410
      5 O         -29.7630   12.3920   22.5840 O.2     1  UNL1       -0.2710
      6 H         -32.0110   12.8470   24.8750 H       1  UNL1        0.1630
      7 C         -30.7550   10.6050   23.7190 C.3     1  UNL1        0.0920
      8 H         -30.0530   10.2980   24.4950 H       1  UNL1        0.0880
      9 N         -32.1060   10.4040   24.2520 N.am    1  UNL1       -0.3460
     10 C         -32.3250   10.4030   25.6770 C.2     1  UNL1        0.2400
     11 O         -31.4260   10.5600   26.4100 O.2     1  UNL1       -0.2710
     12 H         -32.8910   10.2660   23.6320 H       1  UNL1        0.1630
     13 C         -33.7650   10.1860   26.2380 C.3     1  UNL1        0.0860
     14 H         -33.7740    9.9840   27.3090 H       1  UNL1        0.0860
     15 N         -34.5370   11.4000   26.0370 N.am    1  UNL1       -0.3430
     16 C         -35.4880   11.8290   27.0650 C.2     1  UNL1        0.2730
     17 O         -35.6260   11.1880   28.0490 O.2     1  UNL1       -0.2660
     18 H         -34.4150   11.9400   25.1920 H       1  UNL1        0.1630
     19 C         -36.3100   13.1120   26.8670 C.ar    1  UNL1        0.1540
     20 C         -35.8150   14.4140   26.5400 C.ar    1  UNL1       -0.0170
     21 C         -36.9640   15.2330   26.4710 C.ar    1  UNL1        0.0770
     22 H         -34.7810   14.7190   26.3790 H       1  UNL1        0.0910
     23 O         -37.9930   14.4790   26.7280 O.2     1  UNL1       -0.2180
     24 N         -37.6370   13.2370   26.9620 N.ar    1  UNL1       -0.1230
     25 C         -36.9930   16.7220   26.1540 C.3     1  UNL1       -0.0290
     26 H         -38.0250   17.0710   26.1360 H       1  UNL1        0.0360
     27 H         -36.4390   17.2670   26.9190 H       1  UNL1        0.0360
     28 H         -36.5330   16.8960   25.1810 H       1  UNL1        0.0360
     29 C         -34.4190    9.0330   25.5200 C.3     1  UNL1       -0.0490
     30 H         -35.3310    8.7490   26.0430 H       1  UNL1        0.0300
     31 H         -34.6630    9.3320   24.5010 H       1  UNL1        0.0300
     32 H         -33.7340    8.1840   25.4960 H       1  UNL1        0.0300
     33 C         -30.5860    9.7730   22.4140 C.3     1  UNL1       -0.0330
     34 H         -30.5910   10.4700   21.5760 H       1  UNL1        0.0420
     35 C         -29.2170    9.0240   22.3910 C.3     1  UNL1       -0.0710
     36 H         -29.1010    8.4500   23.3110 H       1  UNL1        0.0280
     37 H         -29.1860    8.3490   21.5360 H       1  UNL1        0.0280
     38 H         -28.4070    9.7490   22.3120 H       1  UNL1        0.0280
     39 C         -31.7780    8.7800   22.2250 C.3     1  UNL1       -0.0710
     40 H         -32.5360    9.2400   21.5920 H       1  UNL1        0.0280
     41 H         -31.4170    7.8650   21.7550 H       1  UNL1        0.0280
     42 H         -32.2100    8.5430   23.1970 H       1  UNL1        0.0280
     43 C         -32.1630   15.3350   24.7370 C.2     1  UNL1        0.2400
     44 O         -33.2320   15.5950   24.2880 O.2     1  UNL1       -0.2710
     45 N         -31.8070   15.7830   26.1130 N.am    1  UNL1       -0.3550
     46 H         -30.9030   15.5640   26.5060 H       1  UNL1        0.1620
     47 C         -32.7850   16.5560   26.9080 C.3     1  UNL1        0.0130
     48 H         -33.7690   16.4120   26.4620 H       1  UNL1        0.0720
     49 C         -32.4130   18.0210   26.8720 C.3     1  UNL1       -0.0380
     50 H         -32.3870   18.3440   27.9130 H       1  UNL1        0.0360
     51 H         -31.5130   18.0810   26.2600 H       1  UNL1        0.0360
     52 C         -33.4760   18.8930   26.1710 C.3     1  UNL1        0.0180
     53 H         -32.9260   19.7010   25.6900 H       1  UNL1        0.0480
     54 H         -34.0720   18.2060   25.5700 H       1  UNL1        0.0480
     55 C         -34.4700   19.5780   27.1500 C.2     1  UNL1        0.2590
     56 O         -34.5220   19.2420   28.2890 O.2     1  UNL1       -0.2650
     57 O         -35.3290   20.6040   26.6670 O.3     1  UNL1       -0.3170
     58 C         -36.7220   20.3120   26.8090 C.3     1  UNL1        0.0520
     59 H         -36.7730   19.2800   27.1550 H       1  UNL1        0.0820
     60 H         -37.1300   21.1130   27.4240 H       1  UNL1        0.0820
     61 C         -37.3730   20.3920   25.4030 C.ar    1  UNL1       -0.0340
     62 C         -36.6540   20.0010   24.2780 C.ar    1  UNL1       -0.0750
     63 C         -37.2380   20.0730   23.0150 C.ar    1  UNL1       -0.0820
     64 H         -35.6310   19.6380   24.3870 H       1  UNL1        0.0840
     65 C         -38.5480   20.5410   22.8780 C.ar    1  UNL1       -0.0830
     66 H         -36.6720   19.7640   22.1360 H       1  UNL1        0.0830
     67 C         -39.2610   20.9330   24.0020 C.ar    1  UNL1       -0.0820
     68 H         -39.0130   20.6000   21.8940 H       1  UNL1        0.0830
     69 C         -38.6810   20.8610   25.2670 C.ar    1  UNL1       -0.0750
     70 H         -40.2820   21.3000   23.8920 H       1  UNL1        0.0830
     71 H         -39.2480   21.1700   26.1460 H       1  UNL1        0.0840
     72 C         -32.7810   16.0640   28.3530 C.3     1  UNL1       -0.0390
     73 H         -32.4280   16.9080   28.9460 H       1  UNL1        0.0360
     74 H         -33.7770   15.6570   28.5250 H       1  UNL1        0.0360
     75 C         -31.7380   14.8670   28.5690 C.3     1  UNL1       -0.0010
     76 C         -32.5350   13.4300   28.6080 C.3     1  UNL1       -0.0350
     77 C         -32.1570   12.7510   29.7180 C.3     1  UNL1        0.0850
     78 H         -33.6010   13.5980   28.7630 H       1  UNL1        0.0360
     79 H         -32.1970   12.7920   27.7910 H       1  UNL1        0.0360
     80 N         -31.4250   13.7290   30.6050 N.4     1  UNL1       -0.0490
     81 H         -33.0840   12.4520   30.2060 H       1  UNL1        0.0750
     82 H         -31.4550   11.9940   29.3700 H       1  UNL1        0.0750
     83 C         -31.0890   15.0060   29.6760 C.3     1  UNL1        0.1930
     84 H         -32.0810   14.0140   31.3180 H       1  UNL1        0.2800
     85 H         -30.5570   13.2830   30.8660 H       1  UNL1        0.2800
     86 H         -30.0790   15.1640   29.2970 H       1  UNL1        0.1290
     87 H         -30.8810   14.9410   27.8980 H       1  UNL1        0.0460
     88 O         -31.4350   16.2140   30.3560 O.3     1  UNL1       -0.3690
     89 H         -30.7410   16.8650   30.2250 H       1  UNL1        0.2120
     90 C         -31.3950   14.7720   22.4090 C.3     1  UNL1       -0.0350
     91 H         -31.2300   13.8120   21.9210 H       1  UNL1        0.0370
     92 H         -32.3750   15.2480   22.3590 H       1  UNL1        0.0370
     93 C         -30.3840   15.7740   21.7650 C.3     1  UNL1       -0.0590
     94 H         -30.6610   16.7770   22.0890 H       1  UNL1        0.0380
     95 C         -28.9160   15.5100   22.2300 C.3     1  UNL1       -0.0730
     96 H         -28.6490   16.2210   23.0110 H       1  UNL1        0.0280
     97 H         -28.8350   14.4960   22.6200 H       1  UNL1        0.0280
     98 H         -28.2400   15.6290   21.3840 H       1  UNL1        0.0280
     99 C         -30.4850   15.7460   20.2380 C.3     1  UNL1       -0.0730
    100 H         -29.5290   16.0420   19.8050 H       1  UNL1        0.0280
    101 H         -30.7360   14.7370   19.9080 H       1  UNL1        0.0280
    102 H         -31.2620   16.4370   19.9120 H       1  UNL1        0.0280
@<TRIPOS>BOND
     1   100    99    1
     2   101    99    1
     3   102    99    1
     4    99    93    1
     5    98    95    1
     6    37    35    1
     7    34    33    1
     8    40    39    1
     9    41    39    1
    10    93    94    1
    11    93    95    1
    12    93    90    1
    13    68    65    1
    14    91    90    1
    15    66    63    1
    16    39    33    1
    17    39    42    1
    18    95    97    1
    19    95    96    1
    20    38    35    1
    21    92    90    1
    22    35    33    1
    23    35    36    1
    24    90     1    1
    25    33     7    1
    26     5     4    2
    27    65    63   ar
    28    65    67   ar
    29    63    62   ar
    30     4     7    1
    31     4     3   am
    32    12     9    1
    33     7     9    1
    34     7     8    1
    35     1     2    1
    36     1     3    1
    37     1    43    1
    38    70    67    1
    39    67    69   ar
    40     3     6    1
    41     9    10   am
    42    62    64    1
    43    62    61   ar
    44    44    43    2
    45    31    29    1
    46    43    45   am
    47    28    25    1
    48    18    15    1
    49    69    61   ar
    50    69    71    1
    51    61    58    1
    52    32    29    1
    53    29    30    1
    54    29    13    1
    55    54    52    1
    56    10    13    1
    57    10    11    2
    58    53    52    1
    59    15    13    1
    60    15    16   am
    61    45    46    1
    62    45    47    1
    63    26    25    1
    64    25    21    1
    65    25    27    1
    66    52    49    1
    67    52    55    1
    68    13    14    1
    69    51    49    1
    70    22    20    1
    71    48    47    1
    72    21    20   ar
    73    21    23   ar
    74    20    19   ar
    75    57    58    1
    76    57    55    1
    77    23    24   ar
    78    58    59    1
    79    58    60    1
    80    19    24   ar
    81    19    16    1
    82    49    47    1
    83    49    50    1
    84    47    72    1
    85    16    17    2
    86    55    56    2
    87    79    76    1
    88    87    75    1
    89    72    74    1
    90    72    75    1
    91    72    73    1
    92    75    76    1
    93    75    83    1
    94    76    78    1
    95    76    77    1
    96    86    83    1
    97    82    77    1
    98    83    88    1
    99    83    80    1
   100    77    81    1
   101    77    80    1
   102    89    88    1
   103    80    85    1
   104    80    84    1
@<TRIPOS>MOLECULE
crystal_redock_e32_er3_1.pdbqt
 102 104 0 0 0
SMALL
GASTEIGER

@<TRIPOS>ATOM
      1 C         -30.9400   13.8970   24.6340 C.3     1  UNL1        0.0890
      2 H         -29.9630   13.7640   25.1000 H       1  UNL1        0.0870
      3 N         -31.3760   12.5950   24.1500 N.am    1  UNL1       -0.3460
      4 C         -31.2780   11.3800   25.0380 C.2     1  UNL1        0.2410
      5 O         -30.8430   11.4740   26.1380 O.2     1  UNL1       -0.2710
      6 H         -31.7410   12.5360   23.2100 H       1  UNL1        0.1630
      7 C         -31.7390   10.0420   24.5220 C.3     1  UNL1        0.0920
      8 H         -31.3120    9.2530   25.1410 H       1  UNL1        0.0880
      9 N         -33.1970    9.9470   24.6440 N.am    1  UNL1       -0.3460
     10 C         -33.7820    9.2340   25.7530 C.2     1  UNL1        0.2400
     11 O         -33.0950    8.7310   26.5550 O.2     1  UNL1       -0.2710
     12 H         -33.8020   10.3750   23.9580 H       1  UNL1        0.1630
     13 C         -35.3340    9.1340   25.8750 C.3     1  UNL1        0.0860
     14 H         -35.6570    8.7440   26.8400 H       1  UNL1        0.0860
     15 N         -35.9040   10.4650   25.7540 N.am    1  UNL1       -0.3430
     16 C         -36.2660   11.2080   26.9630 C.2     1  UNL1        0.2730
     17 O         -36.0970   10.7250   28.0280 O.2     1  UNL1       -0.2660
     18 H         -36.0470   10.8700   24.8390 H       1  UNL1        0.1630
     19 C         -36.8670   12.6180   26.8490 C.ar    1  UNL1        0.1540
     20 C         -36.1710   13.8350   26.5670 C.ar    1  UNL1       -0.0170
     21 C         -37.1690   14.8350   26.5730 C.ar    1  UNL1        0.0770
     22 H         -35.1040   13.9720   26.3860 H       1  UNL1        0.0910
     23 O         -38.3020   14.2490   26.8270 O.2     1  UNL1       -0.2180
     24 N         -38.1520   12.9560   26.9930 N.ar    1  UNL1       -0.1230
     25 C         -36.9560   16.3230   26.3250 C.3     1  UNL1       -0.0290
     26 H         -37.8230   16.7320   25.8070 H       1  UNL1        0.0360
     27 H         -36.8280   16.8350   27.2780 H       1  UNL1        0.0360
     28 H         -36.0660   16.4660   25.7130 H       1  UNL1        0.0360
     29 C         -35.8700    8.2410   24.7850 C.3     1  UNL1       -0.0490
     30 H         -36.5900    7.5410   25.2090 H       1  UNL1        0.0300
     31 H         -36.3600    8.8500   24.0250 H       1  UNL1        0.0300
     32 H         -35.0480    7.6860   24.3320 H       1  UNL1        0.0300
     33 C         -31.3360    9.8970   23.0250 C.3     1  UNL1       -0.0330
     34 H         -31.5620   10.8410   22.5300 H       1  UNL1        0.0420
     35 C         -29.8030    9.6430   22.8720 C.3     1  UNL1       -0.0710
     36 H         -29.3770   10.3860   22.1980 H       1  UNL1        0.0280
     37 H         -29.3230    9.7180   23.8470 H       1  UNL1        0.0280
     38 H         -29.6400    8.6460   22.4620 H       1  UNL1        0.0280
     39 C         -32.1680    8.7730   22.3280 C.3     1  UNL1       -0.0710
     40 H         -31.8260    7.7980   22.6760 H       1  UNL1        0.0280
     41 H         -33.2240    8.8970   22.5750 H       1  UNL1        0.0280
     42 H         -32.0380    8.8410   21.2480 H       1  UNL1        0.0280
     43 C         -32.0010   14.4320   25.6380 C.2     1  UNL1        0.2400
     44 O         -33.0720   14.7640   25.2450 O.2     1  UNL1       -0.2710
     45 N         -31.6830   14.5230   27.0920 N.am    1  UNL1       -0.3550
     46 H         -30.7780   14.2400   27.4380 H       1  UNL1        0.1620
     47 C         -32.7030   15.0330   28.0340 C.3     1  UNL1        0.0130
     48 H         -33.6850   14.8560   27.5940 H       1  UNL1        0.0720
     49 C         -32.4910   16.5150   28.2460 C.3     1  UNL1       -0.0380
     50 H         -32.7220   16.6980   29.2960 H       1  UNL1        0.0360
     51 H         -31.4930   16.7270   27.8620 H       1  UNL1        0.0360
     52 C         -33.4690   17.3840   27.4250 C.3     1  UNL1        0.0180
     53 H         -33.5310   16.9120   26.4450 H       1  UNL1        0.0480
     54 H         -34.3640   17.4830   28.0410 H       1  UNL1        0.0480
     55 C         -32.9600   18.8300   27.1730 C.2     1  UNL1        0.2590
     56 O         -31.8620   19.0200   26.7600 O.2     1  UNL1       -0.2650
     57 O         -33.8190   19.9290   27.4520 O.3     1  UNL1       -0.3170
     58 C         -35.1410   19.5500   27.8440 C.3     1  UNL1        0.0520
     59 H         -35.1360   18.4610   27.8850 H       1  UNL1        0.0820
     60 H         -35.3610   20.1280   28.7410 H       1  UNL1        0.0820
     61 C         -36.1190   19.9940   26.7230 C.ar    1  UNL1       -0.0340
     62 C         -35.8800   19.6250   25.4040 C.ar    1  UNL1       -0.0750
     63 C         -36.7570   20.0240   24.3970 C.ar    1  UNL1       -0.0820
     64 H         -35.0050   19.0220   25.1580 H       1  UNL1        0.0840
     65 C         -37.8770   20.7980   24.7130 C.ar    1  UNL1       -0.0830
     66 H         -36.5680   19.7310   23.3640 H       1  UNL1        0.0830
     67 C         -38.1090   21.1680   26.0310 C.ar    1  UNL1       -0.0820
     68 H         -38.5680   21.1140   23.9320 H       1  UNL1        0.0830
     69 C         -37.2360   20.7690   27.0410 C.ar    1  UNL1       -0.0750
     70 H         -38.9820   21.7740   26.2740 H       1  UNL1        0.0830
     71 H         -37.4260   21.0620   28.0740 H       1  UNL1        0.0840
     72 C         -32.5820   14.3040   29.3710 C.3     1  UNL1       -0.0390
     73 H         -31.9250   14.9240   29.9810 H       1  UNL1        0.0360
     74 H         -33.6070   14.1160   29.6920 H       1  UNL1        0.0360
     75 C         -31.8700   12.8790   29.2060 C.3     1  UNL1       -0.0010
     76 C         -33.0000   11.6840   29.2050 C.3     1  UNL1       -0.0350
     77 C         -32.6420   10.7440   30.1130 C.3     1  UNL1        0.0850
     78 H         -33.9450   12.0640   29.5920 H       1  UNL1        0.0360
     79 H         -32.9750   11.1460   28.2580 H       1  UNL1        0.0360
     80 N         -31.5480   11.3450   30.9620 N.4     1  UNL1       -0.0490
     81 H         -33.5260   10.5850   30.7310 H       1  UNL1        0.0750
     82 H         -32.2280    9.9210   29.5310 H       1  UNL1        0.0750
     83 C         -31.0400   12.6560   30.1700 C.3     1  UNL1        0.1930
     84 H         -31.9840   11.6390   31.8250 H       1  UNL1        0.2800
     85 H         -30.7980   10.6690   30.9810 H       1  UNL1        0.2800
     86 H         -30.0980   12.6420   29.6220 H       1  UNL1        0.1290
     87 H         -31.1410   12.8720   28.3950 H       1  UNL1        0.0460
     88 O         -30.9440   13.7660   31.0650 O.3     1  UNL1       -0.3690
     89 H         -30.0250   14.0320   31.1470 H       1  UNL1        0.2120
     90 C         -30.8230   14.8510   23.4560 C.3     1  UNL1       -0.0350
     91 H         -31.8070   14.8520   22.9870 H       1  UNL1        0.0370
     92 H         -30.4170   15.7730   23.8710 H       1  UNL1        0.0370
     93 C         -29.8140   14.3760   22.3630 C.3     1  UNL1       -0.0590
     94 H         -29.7780   13.2880   22.3970 H       1  UNL1        0.0380
     95 C         -30.2620   14.7940   20.9260 C.3     1  UNL1       -0.0730
     96 H         -30.4120   13.9030   20.3180 H       1  UNL1        0.0280
     97 H         -31.1950   15.3550   20.9850 H       1  UNL1        0.0280
     98 H         -29.4920   15.4180   20.4720 H       1  UNL1        0.0280
     99 C         -28.4020   14.8880   22.6640 C.3     1  UNL1       -0.0730
    100 H         -28.4160   15.4750   23.5820 H       1  UNL1        0.0280
    101 H         -27.7270   14.0400   22.7850 H       1  UNL1        0.0280
    102 H         -28.0580   15.5110   21.8390 H       1  UNL1        0.0280
@<TRIPOS>BOND
     1    96    95    1
     2    98    95    1
     3    95    97    1
     4    95    93    1
     5    42    39    1
     6   102    99    1
     7    36    35    1
     8    39    41    1
     9    39    40    1
    10    39    33    1
    11    93    94    1
    12    93    99    1
    13    93    90    1
    14    38    35    1
    15    34    33    1
    16    99   101    1
    17    99   100    1
    18    35    33    1
    19    35    37    1
    20    91    90    1
    21    33     7    1
    22     6     3    1
    23    66    63    1
    24    90    92    1
    25    90     1    1
    26    68    65    1
    27    12     9    1
    28    31    29    1
    29     3     1    1
    30     3     4   am
    31    32    29    1
    32    63    65   ar
    33    63    62   ar
    34     7     9    1
    35     7     4    1
    36     7     8    1
    37     1     2    1
    38     1    43    1
    39     9    10   am
    40    65    67   ar
    41    29    30    1
    42    29    13    1
    43    18    15    1
    44     4     5    2
    45    64    62    1
    46    44    43    2
    47    62    61   ar
    48    43    45   am
    49    28    25    1
    50    10    13    1
    51    10    11    2
    52    15    13    1
    53    15    16   am
    54    26    25    1
    55    13    14    1
    56    67    70    1
    57    67    69   ar
    58    25    21    1
    59    25    27    1
    60    22    20    1
    61    53    52    1
    62    20    21   ar
    63    20    19   ar
    64    21    23   ar
    65    61    69   ar
    66    61    58    1
    67    56    55    2
    68    23    24   ar
    69    19    16    1
    70    19    24   ar
    71    16    17    2
    72    69    71    1
    73    45    46    1
    74    45    47    1
    75    55    52    1
    76    55    57    1
    77    52    54    1
    78    52    49    1
    79    57    58    1
    80    48    47    1
    81    58    59    1
    82    58    60    1
    83    51    49    1
    84    47    49    1
    85    47    72    1
    86    49    50    1
    87    79    76    1
    88    87    75    1
    89    76    75    1
    90    76    78    1
    91    76    77    1
    92    75    72    1
    93    75    83    1
    94    72    74    1
    95    72    73    1
    96    82    77    1
    97    86    83    1
    98    77    81    1
    99    77    80    1
   100    83    80    1
   101    83    88    1
   102    80    85    1
   103    80    84    1
   104    88    89    1
@<TRIPOS>MOLECULE
crystal_redock_e32_er3_1.pdbqt
 102 104 0 0 0
SMALL
GASTEIGER

@<TRIPOS>ATOM
      1 C         -33.0680   10.2950   26.2580 C.3     1  UNL1        0.0890
      2 H         -33.8010   10.6420   25.5290 H       1  UNL1        0.0870
      3 N         -32.3320    9.1960   25.6500 N.am    1  UNL1       -0.3460
      4 C         -33.0300    8.2310   24.7260 C.2     1  UNL1        0.2410
      5 O         -34.1860    8.3570   24.4890 O.2     1  UNL1       -0.2710
      6 H         -31.3490    9.1050   25.8670 H       1  UNL1        0.1630
      7 C         -32.2520    7.1030   24.1020 C.3     1  UNL1        0.0920
      8 H         -32.7790    6.7510   23.2150 H       1  UNL1        0.0880
      9 N         -30.9440    7.5970   23.6600 N.am    1  UNL1       -0.3460
     10 C         -30.7580    8.0210   22.2950 C.2     1  UNL1        0.2400
     11 O         -31.6490    7.9710   21.5370 O.2     1  UNL1       -0.2710
     12 H         -30.1650    7.6440   24.3020 H       1  UNL1        0.1630
     13 C         -29.3620    8.5430   21.8300 C.3     1  UNL1        0.0860
     14 H         -29.0620    8.1390   20.8630 H       1  UNL1        0.0860
     15 N         -29.4270    9.9870   21.6760 N.am    1  UNL1       -0.3430
     16 C         -29.9000   10.8110   22.7900 C.2     1  UNL1        0.2730
     17 O         -30.2290   10.3020   23.8050 O.2     1  UNL1       -0.2660
     18 H         -29.1450   10.4130   20.8040 H       1  UNL1        0.1630
     19 C         -29.9710   12.3390   22.6420 C.ar    1  UNL1        0.1540
     20 C         -30.7190   13.2520   23.4510 C.ar    1  UNL1       -0.0170
     21 C         -30.4470   14.5270   22.9060 C.ar    1  UNL1        0.0770
     22 H         -31.3610   13.0250   24.3030 H       1  UNL1        0.0910
     23 O         -29.6370   14.3550   21.9040 O.2     1  UNL1       -0.2180
     24 N         -29.3450   13.0860   21.7300 N.ar    1  UNL1       -0.1230
     25 C         -31.0010   15.8560   23.4030 C.3     1  UNL1       -0.0290
     26 H         -30.6290   16.6630   22.7720 H       1  UNL1        0.0360
     27 H         -32.0900   15.8340   23.3600 H       1  UNL1        0.0360
     28 H         -30.6810   16.0220   24.4310 H       1  UNL1        0.0360
     29 C         -28.3190    8.1790   22.8560 C.3     1  UNL1       -0.0490
     30 H         -28.8050    7.7410   23.7280 H       1  UNL1        0.0300
     31 H         -27.6250    7.4570   22.4270 H       1  UNL1        0.0300
     32 H         -27.7750    9.0750   23.1550 H       1  UNL1        0.0300
     33 C         -32.0480    5.9700   25.1500 C.3     1  UNL1       -0.0330
     34 H         -31.0550    5.5500   24.9920 H       1  UNL1        0.0420
     35 C         -32.0950    6.5290   26.6070 C.3     1  UNL1       -0.0710
     36 H         -33.1160    6.4740   26.9850 H       1  UNL1        0.0280
     37 H         -31.4400    5.9360   27.2440 H       1  UNL1        0.0280
     38 H         -31.7630    7.5670   26.6080 H       1  UNL1        0.0280
     39 C         -33.0940    4.8270   24.9490 C.3     1  UNL1       -0.0710
     40 H         -33.4100    4.8030   23.9050 H       1  UNL1        0.0280
     41 H         -32.6430    3.8700   25.2140 H       1  UNL1        0.0280
     42 H         -33.9590    5.0080   25.5870 H       1  UNL1        0.0280
     43 C         -32.0580   11.4110   26.6500 C.2     1  UNL1        0.2400
     44 O         -30.8920   11.2300   26.5060 O.2     1  UNL1       -0.2710
     45 N         -32.5440   12.7090   27.1980 N.am    1  UNL1       -0.3550
     46 H         -33.5320   12.8760   27.3210 H       1  UNL1        0.1620
     47 C         -31.5710   13.7600   27.5650 C.3     1  UNL1        0.0130
     48 H         -30.6330   13.5420   27.0560 H       1  UNL1        0.0720
     49 C         -31.3610   13.7460   29.0630 C.3     1  UNL1       -0.0380
     50 H         -30.4170   13.2240   29.2230 H       1  UNL1        0.0360
     51 H         -31.4730   14.7810   29.3850 H       1  UNL1        0.0360
     52 C         -32.4410   12.9350   29.8120 C.3     1  UNL1        0.0180
     53 H         -32.8780   13.6230   30.5340 H       1  UNL1        0.0480
     54 H         -33.0650   12.4890   29.0370 H       1  UNL1        0.0480
     55 C         -31.8720   11.7490   30.6390 C.2     1  UNL1        0.2590
     56 O         -30.7280   11.7300   30.9580 O.2     1  UNL1       -0.2650
     57 O         -32.7330   10.6770   31.0020 O.3     1  UNL1       -0.3170
     58 C         -33.9830   11.0960   31.5570 C.3     1  UNL1        0.0520
     59 H         -33.7840   11.3080   32.6070 H       1  UNL1        0.0820
     60 H         -34.3470   11.8870   30.9010 H       1  UNL1        0.0820
     61 C         -34.9680    9.8990   31.4760 C.ar    1  UNL1       -0.0340
     62 C         -36.3260   10.0980   31.7050 C.ar    1  UNL1       -0.0750
     63 C         -37.2110    9.0240   31.6330 C.ar    1  UNL1       -0.0820
     64 H         -36.6970   11.0960   31.9410 H       1  UNL1        0.0840
     65 C         -36.7330    7.7450   31.3330 C.ar    1  UNL1       -0.0830
     66 H         -38.2750    9.1830   31.8110 H       1  UNL1        0.0830
     67 C         -35.3770    7.5510   31.1090 C.ar    1  UNL1       -0.0820
     68 H         -37.4180    6.8990   31.2740 H       1  UNL1        0.0830
     69 C         -34.4890    8.6220   31.1780 C.ar    1  UNL1       -0.0750
     70 H         -35.0070    6.5520   30.8780 H       1  UNL1        0.0830
     71 H         -33.4250    8.4620   31.0000 H       1  UNL1        0.0840
     72 C         -32.1020   15.1270   27.1380 C.3     1  UNL1       -0.0390
     73 H         -31.8400   15.8070   27.9500 H       1  UNL1        0.0360
     74 H         -31.7010   15.2940   26.1380 H       1  UNL1        0.0360
     75 C         -33.6990   15.1310   27.0150 C.3     1  UNL1       -0.0010
     76 C         -34.1410   15.5120   25.4770 C.3     1  UNL1       -0.0350
     77 C         -35.0470   16.5190   25.5210 C.3     1  UNL1        0.0850
     78 H         -33.2980   15.9510   24.9440 H       1  UNL1        0.0360
     79 H         -34.6970   14.6870   25.0330 H       1  UNL1        0.0360
     80 N         -35.0180   17.0790   26.9220 N.4     1  UNL1       -0.0490
     81 H         -34.6750   17.2740   24.8280 H       1  UNL1        0.0750
     82 H         -36.0130   16.0480   25.3460 H       1  UNL1        0.0750
     83 C         -34.2280   15.9930   27.8180 C.3     1  UNL1        0.1930
     84 H         -34.4670   17.9240   26.8810 H       1  UNL1        0.2800
     85 H         -35.9780   17.1160   27.2340 H       1  UNL1        0.2800
     86 H         -34.7710   15.3290   28.4910 H       1  UNL1        0.1290
     87 H         -34.1490   14.2410   27.4540 H       1  UNL1        0.0460
     88 O         -33.2490   16.6430   28.6310 O.3     1  UNL1       -0.3690
     89 H         -33.6890   17.1390   29.3260 H       1  UNL1        0.2120
     90 C         -33.7790    9.7880   27.5020 C.3     1  UNL1       -0.0350
     91 H         -33.4030    8.7770   27.6580 H       1  UNL1        0.0370
     92 H         -33.6140   10.5540   28.2610 H       1  UNL1        0.0370
     93 C         -35.3260    9.6610   27.3320 C.3     1  UNL1       -0.0590
     94 H         -35.5630    9.8710   26.2890 H       1  UNL1        0.0380
     95 C         -35.8380    8.2210   27.6560 C.3     1  UNL1       -0.0730
     96 H         -35.1710    7.4880   27.2040 H       1  UNL1        0.0280
     97 H         -35.8570    8.0760   28.7360 H       1  UNL1        0.0280
     98 H         -36.8430    8.0940   27.2550 H       1  UNL1        0.0280
     99 C         -36.0570   10.7030   28.1830 C.3     1  UNL1       -0.0730
    100 H         -36.9850   10.9900   27.6880 H       1  UNL1        0.0280
    101 H         -36.2830   10.2800   29.1620 H       1  UNL1        0.0280
    102 H         -35.4240   11.5810   28.3050 H       1  UNL1        0.0280
@<TRIPOS>BOND
     1    18    15    1
     2    14    13    1
     3    11    10    2
     4    15    13    1
     5    15    16   am
     6    24    23   ar
     7    24    19   ar
     8    13    10    1
     9    13    29    1
    10    23    21   ar
    11    10     9   am
    12    31    29    1
    13    19    16    1
    14    19    20   ar
    15    26    25    1
    16    16    17    2
    17    29    32    1
    18    29    30    1
    19    21    25    1
    20    21    20   ar
    21     8     7    1
    22    27    25    1
    23    25    28    1
    24    20    22    1
    25     9     7    1
    26     9    12    1
    27    40    39    1
    28     7     4    1
    29     7    33    1
    30     5     4    2
    31     4     3   am
    32    81    77    1
    33    78    76    1
    34    39    33    1
    35    39    41    1
    36    39    42    1
    37    34    33    1
    38    79    76    1
    39    33    35    1
    40    82    77    1
    41    76    77    1
    42    76    75    1
    43    77    80    1
    44     2     1    1
    45     3     6    1
    46     3     1    1
    47    74    72    1
    48     1    43    1
    49     1    90    1
    50    94    93    1
    51    44    43    2
    52    35    38    1
    53    35    36    1
    54    35    37    1
    55    43    45   am
    56    84    80    1
    57    80    85    1
    58    80    83    1
    59    75    72    1
    60    75    87    1
    61    75    83    1
    62    48    47    1
    63    72    47    1
    64    72    73    1
    65    45    46    1
    66    45    47    1
    67    96    95    1
    68    98    95    1
    69    93    90    1
    70    93    95    1
    71    93    99    1
    72    90    91    1
    73    90    92    1
    74    47    49    1
    75    95    97    1
    76   100    99    1
    77    83    86    1
    78    83    88    1
    79    99   102    1
    80    99   101    1
    81    88    89    1
    82    54    52    1
    83    49    50    1
    84    49    51    1
    85    49    52    1
    86    52    53    1
    87    52    55    1
    88    55    56    2
    89    55    57    1
    90    70    67    1
    91    60    58    1
    92    71    69    1
    93    57    58    1
    94    67    69   ar
    95    67    65   ar
    96    69    61   ar
    97    68    65    1
    98    65    63   ar
    99    61    58    1
   100    61    62   ar
   101    58    59    1
   102    63    62   ar
   103    63    66    1
   104    62    64    1
@<TRIPOS>MOLECULE
crystal_redock_e32_er3_1.pdbqt
 102 104 0 0 0
SMALL
GASTEIGER

@<TRIPOS>ATOM
      1 C         -31.1660   14.0810   24.5810 C.3     1  UNL1        0.0890
      2 H         -30.2090   14.0350   25.1010 H       1  UNL1        0.0870
      3 N         -31.5080   12.7270   24.1720 N.am    1  UNL1       -0.3460
      4 C         -31.2840   11.5680   25.1110 C.2     1  UNL1        0.2410
      5 O         -30.8240   11.7490   26.1900 O.2     1  UNL1       -0.2710
      6 H         -31.8960   12.5930   23.2490 H       1  UNL1        0.1630
      7 C         -31.6480   10.1730   24.6720 C.3     1  UNL1        0.0920
      8 H         -30.9720    9.4610   25.1450 H       1  UNL1        0.0880
      9 N         -33.0040    9.8550   25.1310 N.am    1  UNL1       -0.3460
     10 C         -33.2270    8.7110   25.9810 C.2     1  UNL1        0.2400
     11 O         -32.3270    8.0350   26.3030 O.2     1  UNL1       -0.2710
     12 H         -33.7900   10.4280   24.8600 H       1  UNL1        0.1630
     13 C         -34.6720    8.3760   26.4630 C.3     1  UNL1        0.0860
     14 H         -34.8570    7.3040   26.5270 H       1  UNL1        0.0860
     15 N         -34.8580    8.9100   27.8020 N.am    1  UNL1       -0.3430
     16 C         -34.6690    8.0350   28.9610 C.2     1  UNL1        0.2730
     17 O         -34.3710    6.9020   28.8050 O.2     1  UNL1       -0.2660
     18 H         -35.1150    9.8790   27.9260 H       1  UNL1        0.1630
     19 C         -34.8600    8.5870   30.3820 C.ar    1  UNL1        0.1540
     20 C         -35.1120    9.9450   30.7560 C.ar    1  UNL1       -0.0170
     21 C         -35.2080    9.9230   32.1650 C.ar    1  UNL1        0.0770
     22 H         -35.2110   10.8140   30.1040 H       1  UNL1        0.0910
     23 O         -35.0320    8.6920   32.5460 O.2     1  UNL1       -0.2180
     24 N         -34.8270    7.8930   31.5240 N.ar    1  UNL1       -0.1230
     25 C         -35.4700   11.1200   33.0700 C.3     1  UNL1       -0.0290
     26 H         -36.5340   11.1760   33.2980 H       1  UNL1        0.0360
     27 H         -34.9060   11.0060   33.9950 H       1  UNL1        0.0360
     28 H         -35.1580   12.0330   32.5640 H       1  UNL1        0.0360
     29 C         -35.6750    8.9880   25.5190 C.3     1  UNL1       -0.0490
     30 H         -35.9830    8.2440   24.7840 H       1  UNL1        0.0300
     31 H         -36.5450    9.3250   26.0820 H       1  UNL1        0.0300
     32 H         -35.2220    9.8370   25.0080 H       1  UNL1        0.0300
     33 C         -31.5960   10.0880   23.1190 C.3     1  UNL1       -0.0330
     34 H         -31.9940   11.0230   22.7250 H       1  UNL1        0.0420
     35 C         -30.1290    9.9490   22.6060 C.3     1  UNL1       -0.0710
     36 H         -29.8120   10.8880   22.1520 H       1  UNL1        0.0280
     37 H         -29.4730    9.7100   23.4430 H       1  UNL1        0.0280
     38 H         -30.0770    9.1520   21.8640 H       1  UNL1        0.0280
     39 C         -32.4930    8.9210   22.5930 C.3     1  UNL1       -0.0710
     40 H         -32.0370    7.9660   22.8550 H       1  UNL1        0.0280
     41 H         -33.4820    8.9900   23.0470 H       1  UNL1        0.0280
     42 H         -32.5860    8.9950   21.5090 H       1  UNL1        0.0280
     43 C         -32.3030   14.6240   25.4930 C.2     1  UNL1        0.2400
     44 O         -33.4350   14.3470   25.2560 O.2     1  UNL1       -0.2710
     45 N         -31.9810   15.4830   26.6680 N.am    1  UNL1       -0.3550
     46 H         -31.0240   15.7210   26.8830 H       1  UNL1        0.1620
     47 C         -33.0730   15.9910   27.5260 C.3     1  UNL1        0.0130
     48 H         -34.0190   15.7710   27.0310 H       1  UNL1        0.0720
     49 C         -32.9170   17.4840   27.7030 C.3     1  UNL1       -0.0380
     50 H         -33.8940   17.8470   28.0230 H       1  UNL1        0.0360
     51 H         -32.0480   17.6150   28.3480 H       1  UNL1        0.0360
     52 C         -32.5930   18.2130   26.3810 C.3     1  UNL1        0.0180
     53 H         -31.5120   18.3480   26.3750 H       1  UNL1        0.0480
     54 H         -33.0740   17.6290   25.5960 H       1  UNL1        0.0480
     55 C         -33.2020   19.6400   26.2870 C.2     1  UNL1        0.2590
     56 O         -32.8990   20.3680   25.3970 O.2     1  UNL1       -0.2650
     57 O         -34.1180   20.0740   27.2850 O.3     1  UNL1       -0.3170
     58 C         -35.4390   20.3210   26.7950 C.3     1  UNL1        0.0520
     59 H         -35.9620   20.8330   27.6030 H       1  UNL1        0.0820
     60 H         -35.3090   20.8150   25.8320 H       1  UNL1        0.0820
     61 C         -36.1250   18.9500   26.5560 C.ar    1  UNL1       -0.0340
     62 C         -36.4510   18.5510   25.2640 C.ar    1  UNL1       -0.0750
     63 C         -37.0680   17.3190   25.0480 C.ar    1  UNL1       -0.0820
     64 H         -36.2240   19.2030   24.4200 H       1  UNL1        0.0840
     65 C         -37.3610   16.4870   26.1320 C.ar    1  UNL1       -0.0830
     66 H         -37.3210   17.0090   24.0340 H       1  UNL1        0.0830
     67 C         -37.0370   16.8910   27.4190 C.ar    1  UNL1       -0.0820
     68 H         -37.8430   15.5220   25.9720 H       1  UNL1        0.0830
     69 C         -36.4180   18.1200   27.6390 C.ar    1  UNL1       -0.0750
     70 H         -37.2690   16.2400   28.2630 H       1  UNL1        0.0830
     71 H         -36.1660   18.4300   28.6530 H       1  UNL1        0.0840
     72 C         -33.0180   15.3080   28.8910 C.3     1  UNL1       -0.0390
     73 H         -32.9350   16.1170   29.6170 H       1  UNL1        0.0360
     74 H         -33.8800   14.6400   28.9160 H       1  UNL1        0.0360
     75 C         -31.7090   14.3970   29.0450 C.3     1  UNL1       -0.0010
     76 C         -32.1360   12.8770   29.5050 C.3     1  UNL1       -0.0350
     77 C         -31.4030   12.5270   30.5890 C.3     1  UNL1        0.0850
     78 H         -33.1600   12.8720   29.8770 H       1  UNL1        0.0360
     79 H         -31.8290   12.1570   28.7460 H       1  UNL1        0.0360
     80 N         -30.7530   13.7870   31.1080 N.4     1  UNL1       -0.0490
     81 H         -32.1240   12.1690   31.3240 H       1  UNL1        0.0750
     82 H         -30.6300   11.8570   30.2140 H       1  UNL1        0.0750
     83 C         -30.9050   14.8810   29.9310 C.3     1  UNL1        0.1930
     84 H         -31.3030   14.0870   31.9000 H       1  UNL1        0.2800
     85 H         -29.7730   13.5740   31.2260 H       1  UNL1        0.2800
     86 H         -30.0520   15.1410   29.3040 H       1  UNL1        0.1290
     87 H         -31.0400   14.4870   28.1890 H       1  UNL1        0.0460
     88 O         -31.3750   16.1190   30.4680 O.3     1  UNL1       -0.3690
     89 H         -30.6440   16.5910   30.8740 H       1  UNL1        0.2120
     90 C         -31.0400   14.9560   23.3450 C.3     1  UNL1       -0.0350
     91 H         -32.0230   14.9350   22.8750 H       1  UNL1        0.0370
     92 H         -30.6260   15.8990   23.7000 H       1  UNL1        0.0370
     93 C         -30.0350   14.4030   22.2850 C.3     1  UNL1       -0.0590
     94 H         -30.1250   13.3160   22.2790 H       1  UNL1        0.0380
     95 C         -30.3550   14.9160   20.8450 C.3     1  UNL1       -0.0730
     96 H         -29.4240   15.1220   20.3170 H       1  UNL1        0.0280
     97 H         -30.9170   14.1550   20.3040 H       1  UNL1        0.0280
     98 H         -30.9460   15.8290   20.9080 H       1  UNL1        0.0280
     99 C         -28.5920   14.7360   22.6740 C.3     1  UNL1       -0.0730
    100 H         -28.5830   15.2340   23.6450 H       1  UNL1        0.0280
    101 H         -28.0090   13.8170   22.7320 H       1  UNL1        0.0280
    102 H         -28.1570   15.3950   21.9240 H       1  UNL1        0.0280
@<TRIPOS>BOND
     1    97    95    1
     2    96    95    1
     3    95    98    1
     4    95    93    1
     5    42    39    1
     6    38    35    1
     7   102    99    1
     8    36    35    1
     9    94    93    1
    10    93    99    1
    11    93    90    1
    12    39    40    1
    13    39    41    1
    14    39    33    1
    15    35    33    1
    16    35    37    1
    17    99   101    1
    18    99   100    1
    19    34    33    1
    20    91    90    1
    21    33     7    1
    22     6     3    1
    23    90    92    1
    24    90     1    1
    25    66    63    1
    26     3     1    1
    27     3     4   am
    28    64    62    1
    29     1     2    1
    30     1    43    1
    31     7     4    1
    32     7     9    1
    33     7     8    1
    34    30    29    1
    35    12     9    1
    36    32    29    1
    37    63    62   ar
    38    63    65   ar
    39     4     5    2
    40     9    10   am
    41    44    43    2
    42    62    61   ar
    43    56    55    2
    44    43    45   am
    45    29    31    1
    46    29    13    1
    47    54    52    1
    48    60    58    1
    49    68    65    1
    50    10    11    2
    51    10    13    1
    52    65    67   ar
    53    55    52    1
    54    55    57    1
    55    53    52    1
    56    52    49    1
    57    13    14    1
    58    13    15    1
    59    61    58    1
    60    61    69   ar
    61    45    46    1
    62    45    47    1
    63    58    57    1
    64    58    59    1
    65    48    47    1
    66    67    69   ar
    67    67    70    1
    68    47    49    1
    69    47    72    1
    70    69    71    1
    71    49    50    1
    72    49    51    1
    73    15    18    1
    74    15    16   am
    75    87    75    1
    76    79    76    1
    77    17    16    2
    78    72    74    1
    79    72    75    1
    80    72    73    1
    81    16    19    1
    82    75    76    1
    83    75    83    1
    84    86    83    1
    85    76    78    1
    86    76    77    1
    87    83    88    1
    88    83    80    1
    89    22    20    1
    90    82    77    1
    91    19    20   ar
    92    19    24   ar
    93    88    89    1
    94    77    80    1
    95    77    81    1
    96    20    21   ar
    97    80    85    1
    98    80    84    1
    99    24    23   ar
   100    21    23   ar
   101    21    25    1
   102    28    25    1
   103    25    26    1
   104    25    27    1
@<TRIPOS>MOLECULE
crystal_redock_e32_er3_1.pdbqt
 102 104 0 0 0
SMALL
GASTEIGER

@<TRIPOS>ATOM
      1 C         -31.1140   13.8470   24.7500 C.3     1  UNL1        0.0890
      2 H         -30.1190   13.7790   25.1910 H       1  UNL1        0.0870
      3 N         -31.4550   12.5310   24.2300 N.am    1  UNL1       -0.3460
      4 C         -31.2330   11.2990   25.0710 C.2     1  UNL1        0.2410
      5 O         -30.7750   11.3920   26.1620 O.2     1  UNL1       -0.2710
      6 H         -31.8410   12.4740   23.2990 H       1  UNL1        0.1630
      7 C         -31.5960    9.9460   24.5190 C.3     1  UNL1        0.0920
      8 H         -30.9490    9.1910   24.9650 H       1  UNL1        0.0880
      9 N         -32.9730    9.6160   24.9000 N.am    1  UNL1       -0.3460
     10 C         -33.2300    8.5030   25.7810 C.2     1  UNL1        0.2400
     11 O         -32.3410    7.8610   26.1910 O.2     1  UNL1       -0.2710
     12 H         -33.7500   10.1600   24.5540 H       1  UNL1        0.1630
     13 C         -34.6970    8.1550   26.1810 C.3     1  UNL1        0.0860
     14 H         -35.0640    7.2520   25.6930 H       1  UNL1        0.0860
     15 N         -34.7490    7.9050   27.6120 N.am    1  UNL1       -0.3430
     16 C         -34.8290    6.5270   28.1010 C.2     1  UNL1        0.2730
     17 O         -34.8540    5.6270   27.3360 O.2     1  UNL1       -0.2660
     18 H         -34.7310    8.6810   28.2590 H       1  UNL1        0.1630
     19 C         -34.8830    6.2490   29.6110 C.ar    1  UNL1        0.1540
     20 C         -34.4230    5.0770   30.2910 C.ar    1  UNL1       -0.0170
     21 C         -34.6990    5.3160   31.6560 C.ar    1  UNL1        0.0770
     22 H         -33.9600    4.1890   29.8610 H       1  UNL1        0.0910
     23 O         -35.2510    6.4910   31.7390 O.2     1  UNL1       -0.2180
     24 N         -35.3700    7.0550   30.5590 N.ar    1  UNL1       -0.1230
     25 C         -34.4040    4.3730   32.8150 C.3     1  UNL1       -0.0290
     26 H         -34.6540    3.3530   32.5260 H       1  UNL1        0.0360
     27 H         -33.3450    4.4300   33.0670 H       1  UNL1        0.0360
     28 H         -34.9990    4.6630   33.6800 H       1  UNL1        0.0360
     29 C         -35.6040    9.3050   25.8240 C.3     1  UNL1       -0.0490
     30 H         -35.3410    9.6820   24.8350 H       1  UNL1        0.0300
     31 H         -36.6390    8.9630   25.8180 H       1  UNL1        0.0300
     32 H         -35.4890   10.1010   26.5590 H       1  UNL1        0.0300
     33 C         -31.4830    9.9710   22.9670 C.3     1  UNL1       -0.0330
     34 H         -31.9170   10.9100   22.6210 H       1  UNL1        0.0420
     35 C         -29.9930    9.9450   22.5050 C.3     1  UNL1       -0.0710
     36 H         -29.8350   10.7070   21.7410 H       1  UNL1        0.0280
     37 H         -29.3450   10.1460   23.3580 H       1  UNL1        0.0280
     38 H         -29.7570    8.9640   22.0930 H       1  UNL1        0.0280
     39 C         -32.2950    8.7990   22.3270 C.3     1  UNL1       -0.0710
     40 H         -31.6190    7.9800   22.0830 H       1  UNL1        0.0280
     41 H         -33.0490    8.4510   23.0340 H       1  UNL1        0.0280
     42 H         -32.7850    9.1500   21.4190 H       1  UNL1        0.0280
     43 C         -32.1920   14.2620   25.7930 C.2     1  UNL1        0.2400
     44 O         -33.3390   14.2760   25.4840 O.2     1  UNL1       -0.2710
     45 N         -31.7930   14.6340   27.1810 N.am    1  UNL1       -0.3550
     46 H         -30.8220   14.6210   27.4570 H       1  UNL1        0.1620
     47 C         -32.8300   15.0250   28.1610 C.3     1  UNL1        0.0130
     48 H         -33.8010   14.7490   27.7500 H       1  UNL1        0.0720
     49 C         -32.7680   16.5190   28.3840 C.3     1  UNL1       -0.0380
     50 H         -33.1020   16.6780   29.4090 H       1  UNL1        0.0360
     51 H         -31.7640   16.8200   28.0840 H       1  UNL1        0.0360
     52 C         -33.7460   17.3000   27.4800 C.3     1  UNL1        0.0180
     53 H         -34.4000   16.5510   27.0350 H       1  UNL1        0.0480
     54 H         -34.1650   18.0860   28.1080 H       1  UNL1        0.0480
     55 C         -33.0560   18.0260   26.2910 C.2     1  UNL1        0.2590
     56 O         -32.1040   17.5480   25.7630 O.2     1  UNL1       -0.2650
     57 O         -33.5680   19.2760   25.8460 O.3     1  UNL1       -0.3170
     58 C         -34.1990   20.0460   26.8740 C.3     1  UNL1        0.0520
     59 H         -34.2010   19.4100   27.7590 H       1  UNL1        0.0820
     60 H         -33.6750   21.0010   26.8900 H       1  UNL1        0.0820
     61 C         -35.6690   20.3000   26.4470 C.ar    1  UNL1       -0.0340
     62 C         -36.5390   20.9630   27.3070 C.ar    1  UNL1       -0.0750
     63 C         -37.8600   21.1910   26.9250 C.ar    1  UNL1       -0.0820
     64 H         -36.1860   21.3040   28.2810 H       1  UNL1        0.0840
     65 C         -38.3110   20.7510   25.6770 C.ar    1  UNL1       -0.0830
     66 H         -38.5390   21.7120   27.6000 H       1  UNL1        0.0830
     67 C         -37.4400   20.0870   24.8240 C.ar    1  UNL1       -0.0820
     68 H         -39.3420   20.9260   25.3700 H       1  UNL1        0.0830
     69 C         -36.1190   19.8580   25.2020 C.ar    1  UNL1       -0.0750
     70 H         -37.7960   19.7420   23.8530 H       1  UNL1        0.0830
     71 H         -35.4410   19.3370   24.5250 H       1  UNL1        0.0840
     72 C         -32.5880   14.3010   29.4840 C.3     1  UNL1       -0.0390
     73 H         -31.8830   14.9260   30.0320 H       1  UNL1        0.0360
     74 H         -33.5800   14.1100   29.8950 H       1  UNL1        0.0360
     75 C         -31.8860   12.8790   29.2620 C.3     1  UNL1       -0.0010
     76 C         -33.0190   11.6870   29.2690 C.3     1  UNL1       -0.0350
     77 C         -32.6340   10.7250   30.1420 C.3     1  UNL1        0.0850
     78 H         -33.9500   12.0600   29.6950 H       1  UNL1        0.0360
     79 H         -33.0260   11.1720   28.3090 H       1  UNL1        0.0360
     80 N         -31.5120   11.3020   30.9700 N.4     1  UNL1       -0.0490
     81 H         -33.4980   10.5520   30.7840 H       1  UNL1        0.0750
     82 H         -32.2420    9.9150   29.5280 H       1  UNL1        0.0750
     83 C         -31.0260   12.6320   30.1930 C.3     1  UNL1        0.1930
     84 H         -31.9190   11.5760   31.8520 H       1  UNL1        0.2800
     85 H         -30.7630   10.6250   30.9480 H       1  UNL1        0.2800
     86 H         -30.1020   12.6280   29.6140 H       1  UNL1        0.1290
     87 H         -31.1840   12.8900   28.4280 H       1  UNL1        0.0460
     88 O         -30.8980   13.7190   31.1110 O.3     1  UNL1       -0.3690
     89 H         -30.1920   13.5310   31.7340 H       1  UNL1        0.2120
     90 C         -31.1010   14.8460   23.6040 C.3     1  UNL1       -0.0350
     91 H         -32.1310   14.8950   23.2520 H       1  UNL1        0.0370
     92 H         -30.6190   15.7380   24.0030 H       1  UNL1        0.0370
     93 C         -30.2410   14.3870   22.3840 C.3     1  UNL1       -0.0590
     94 H         -30.4080   13.3190   22.2440 H       1  UNL1        0.0380
     95 C         -30.6570   15.1120   21.0630 C.3     1  UNL1       -0.0730
     96 H         -31.4890   14.5790   20.6030 H       1  UNL1        0.0280
     97 H         -30.9610   16.1330   21.2900 H       1  UNL1        0.0280
     98 H         -29.8110   15.1280   20.3760 H       1  UNL1        0.0280
     99 C         -28.7480   14.5810   22.6640 C.3     1  UNL1       -0.0730
    100 H         -28.2210   13.6420   22.4890 H       1  UNL1        0.0280
    101 H         -28.3500   15.3500   22.0010 H       1  UNL1        0.0280
    102 H         -28.6100   14.8880   23.7000 H       1  UNL1        0.0280
@<TRIPOS>BOND
     1    98    95    1
     2    96    95    1
     3    95    97    1
     4    95    93    1
     5    42    39    1
     6    36    35    1
     7   101    99    1
     8    40    39    1
     9    38    35    1
    10    94    93    1
    11    39    33    1
    12    39    41    1
    13    93    99    1
    14    93    90    1
    15   100    99    1
    16    35    33    1
    17    35    37    1
    18    34    33    1
    19    99   102    1
    20    33     7    1
    21    91    90    1
    22     6     3    1
    23    90    92    1
    24    90     1    1
    25    70    67    1
    26     3     1    1
    27     3     4   am
    28     7     9    1
    29     7     8    1
    30     7     4    1
    31    71    69    1
    32    12     9    1
    33     1     2    1
    34     1    43    1
    35    67    69   ar
    36    67    65   ar
    37    30    29    1
    38     9    10   am
    39     4     5    2
    40    69    61   ar
    41    68    65    1
    42    44    43    2
    43    65    63   ar
    44    14    13    1
    45    56    55    2
    46    10    13    1
    47    10    11    2
    48    43    45   am
    49    31    29    1
    50    29    13    1
    51    29    32    1
    52    57    55    1
    53    57    58    1
    54    13    15    1
    55    55    52    1
    56    61    58    1
    57    61    62   ar
    58    58    60    1
    59    58    59    1
    60    63    62   ar
    61    63    66    1
    62    53    52    1
    63    45    46    1
    64    45    47    1
    65    62    64    1
    66    17    16    2
    67    52    54    1
    68    52    49    1
    69    15    16   am
    70    15    18    1
    71    48    47    1
    72    51    49    1
    73    16    19    1
    74    47    49    1
    75    47    72    1
    76    79    76    1
    77    49    50    1
    78    87    75    1
    79    75    76    1
    80    75    72    1
    81    75    83    1
    82    76    78    1
    83    76    77    1
    84    72    74    1
    85    72    73    1
    86    82    77    1
    87    19    20   ar
    88    19    24   ar
    89    86    83    1
    90    22    20    1
    91    77    81    1
    92    77    80    1
    93    83    80    1
    94    83    88    1
    95    20    21   ar
    96    24    23   ar
    97    85    80    1
    98    80    84    1
    99    88    89    1
   100    21    23   ar
   101    21    25    1
   102    26    25    1
   103    25    27    1
   104    25    28    1
@<TRIPOS>MOLECULE
crystal_redock_e32_er3_1.pdbqt
 102 104 0 0 0
SMALL
GASTEIGER

@<TRIPOS>ATOM
      1 C         -35.7400    9.7980   28.0540 C.3     1  UNL1        0.0890
      2 H         -35.7040    9.0050   28.8010 H       1  UNL1        0.0870
      3 N         -34.6500   10.7200   28.3410 N.am    1  UNL1       -0.3460
      4 C         -33.2940   10.1950   28.7400 C.2     1  UNL1        0.2410
      5 O         -33.1050    9.0260   28.8270 O.2     1  UNL1       -0.2710
      6 H         -34.8330   11.7100   28.2640 H       1  UNL1        0.1630
      7 C         -32.1760   11.1620   29.0280 C.3     1  UNL1        0.0920
      8 H         -31.2590   10.7970   28.5670 H       1  UNL1        0.0880
      9 N         -32.4820   12.4590   28.4160 N.am    1  UNL1       -0.3460
     10 C         -31.8250   12.8520   27.1940 C.2     1  UNL1        0.2400
     11 O         -31.0470   12.1370   26.6900 O.2     1  UNL1       -0.2710
     12 H         -33.1500   13.0870   28.8400 H       1  UNL1        0.1630
     13 C         -32.1530   14.2340   26.5490 C.3     1  UNL1        0.0860
     14 H         -31.6900   15.0670   27.0780 H       1  UNL1        0.0860
     15 N         -31.6270   14.2590   25.1940 N.am    1  UNL1       -0.3430
     16 C         -31.0810   15.5070   24.6550 C.2     1  UNL1        0.2730
     17 O         -31.0730   16.4850   25.3180 O.2     1  UNL1       -0.2660
     18 H         -31.6410   13.4190   24.6340 H       1  UNL1        0.1630
     19 C         -30.5210   15.5470   23.2250 C.ar    1  UNL1        0.1540
     20 C         -31.2620   15.6930   22.0090 C.ar    1  UNL1       -0.0170
     21 C         -30.2890   15.6700   20.9850 C.ar    1  UNL1        0.0770
     22 H         -32.3400   15.7990   21.8890 H       1  UNL1        0.0910
     23 O         -29.1290   15.5280   21.5570 O.2     1  UNL1       -0.2180
     24 N         -29.2380   15.4540   22.8630 N.ar    1  UNL1       -0.1230
     25 C         -30.5510   15.7900   19.4900 C.3     1  UNL1       -0.0290
     26 H         -30.7750   14.8050   19.0800 H       1  UNL1        0.0360
     27 H         -31.3980   16.4540   19.3220 H       1  UNL1        0.0360
     28 H         -29.6670   16.1960   18.9980 H       1  UNL1        0.0360
     29 C         -33.6460   14.4410   26.5270 C.3     1  UNL1       -0.0490
     30 H         -34.1320   13.6340   27.0760 H       1  UNL1        0.0300
     31 H         -33.8870   15.3950   26.9960 H       1  UNL1        0.0300
     32 H         -33.9980   14.4430   25.4960 H       1  UNL1        0.0300
     33 C         -32.0280   11.3400   30.5680 C.3     1  UNL1       -0.0330
     34 H         -31.5320   10.4510   30.9550 H       1  UNL1        0.0420
     35 C         -31.1290   12.5680   30.9140 C.3     1  UNL1       -0.0710
     36 H         -31.6970   13.4870   30.7720 H       1  UNL1        0.0280
     37 H         -30.8030   12.4980   31.9510 H       1  UNL1        0.0280
     38 H         -30.2580   12.5760   30.2590 H       1  UNL1        0.0280
     39 C         -33.4270   11.4510   31.2550 C.3     1  UNL1       -0.0710
     40 H         -33.6330   12.4950   31.4930 H       1  UNL1        0.0280
     41 H         -34.1950   11.0740   30.5790 H       1  UNL1        0.0280
     42 H         -33.4290   10.8620   32.1720 H       1  UNL1        0.0280
     43 C         -35.5600    9.2540   26.6080 C.2     1  UNL1        0.2400
     44 O         -36.0830    9.8110   25.6980 O.2     1  UNL1       -0.2710
     45 N         -34.7290    8.0420   26.3580 N.am    1  UNL1       -0.3550
     46 H         -34.2760    7.5630   27.1230 H       1  UNL1        0.1620
     47 C         -34.5670    7.5370   24.9770 C.3     1  UNL1        0.0130
     48 H         -35.1930    8.1430   24.3230 H       1  UNL1        0.0720
     49 C         -35.0060    6.0910   24.9190 C.3     1  UNL1       -0.0380
     50 H         -35.5440    5.9090   25.8500 H       1  UNL1        0.0360
     51 H         -35.5160    5.9780   23.9620 H       1  UNL1        0.0360
     52 C         -33.8180    5.1050   24.9000 C.3     1  UNL1        0.0180
     53 H         -34.1270    4.2840   24.2540 H       1  UNL1        0.0480
     54 H         -32.9430    5.7020   24.6440 H       1  UNL1        0.0480
     55 C         -33.5120    4.4680   26.2840 C.2     1  UNL1        0.2590
     56 O         -33.4290    3.2880   26.4000 O.2     1  UNL1       -0.2650
     57 O         -33.3430    5.3110   27.4170 O.3     1  UNL1       -0.3170
     58 C         -33.3730    4.6170   28.6680 C.3     1  UNL1        0.0520
     59 H         -33.5070    3.5650   28.4190 H       1  UNL1        0.0820
     60 H         -32.4830    4.9410   29.2060 H       1  UNL1        0.0820
     61 C         -34.6230    5.0990   29.4530 C.ar    1  UNL1       -0.0340
     62 C         -34.5430    5.3160   30.8240 C.ar    1  UNL1       -0.0750
     63 C         -35.6660    5.7480   31.5290 C.ar    1  UNL1       -0.0820
     64 H         -33.6010    5.1480   31.3470 H       1  UNL1        0.0840
     65 C         -36.8720    5.9610   30.8570 C.ar    1  UNL1       -0.0830
     66 H         -35.5990    5.9200   32.6040 H       1  UNL1        0.0830
     67 C         -36.9480    5.7390   29.4890 C.ar    1  UNL1       -0.0820
     68 H         -37.7550    6.2990   31.4010 H       1  UNL1        0.0830
     69 C         -35.8280    5.3090   28.7800 C.ar    1  UNL1       -0.0750
     70 H         -37.8920    5.9030   28.9680 H       1  UNL1        0.0830
     71 H         -35.8950    5.1380   27.7050 H       1  UNL1        0.0840
     72 C         -33.1020    7.6430   24.5570 C.3     1  UNL1       -0.0390
     73 H         -32.5280    7.5460   25.4800 H       1  UNL1        0.0360
     74 H         -32.9760    6.9120   23.7580 H       1  UNL1        0.0360
     75 C         -32.7650    9.0820   23.9400 C.3     1  UNL1       -0.0010
     76 C         -31.8750    8.9080   22.5680 C.3     1  UNL1       -0.0350
     77 C         -30.7750    9.6940   22.6590 C.3     1  UNL1        0.0850
     78 H         -31.4640    7.9000   22.5140 H       1  UNL1        0.0360
     79 H         -32.4150    9.3230   21.7170 H       1  UNL1        0.0360
     80 N         -30.6660   10.1350   24.0990 N.4     1  UNL1       -0.0490
     81 H         -29.9330    9.0440   22.4210 H       1  UNL1        0.0750
     82 H         -30.9860   10.5620   22.0360 H       1  UNL1        0.0750
     83 C         -32.0940    9.8030   24.7740 C.3     1  UNL1        0.1930
     84 H         -29.9640    9.5480   24.5260 H       1  UNL1        0.2800
     85 H         -30.5440   11.1380   24.0810 H       1  UNL1        0.2800
     86 H         -32.8120   10.5990   24.9710 H       1  UNL1        0.1290
     87 H         -33.6450    9.7230   23.8820 H       1  UNL1        0.0460
     88 O         -31.9050    9.1430   26.0270 O.3     1  UNL1       -0.3690
     89 H         -31.6630    9.7880   26.6960 H       1  UNL1        0.2120
     90 C         -37.0610   10.5440   28.1590 C.3     1  UNL1       -0.0350
     91 H         -36.7950   11.5650   28.4330 H       1  UNL1        0.0370
     92 H         -37.5780   10.3490   27.2200 H       1  UNL1        0.0370
     93 C         -37.9920   10.0120   29.2940 C.3     1  UNL1       -0.0590
     94 H         -38.6880   10.8100   29.5520 H       1  UNL1        0.0380
     95 C         -38.8320    8.7760   28.8370 C.3     1  UNL1       -0.0730
     96 H         -39.8910    9.0330   28.8460 H       1  UNL1        0.0280
     97 H         -38.5370    8.4900   27.8280 H       1  UNL1        0.0280
     98 H         -38.6540    7.9440   29.5180 H       1  UNL1        0.0280
     99 C         -37.1870    9.6870   30.5550 C.3     1  UNL1       -0.0730
    100 H         -37.8130    9.1300   31.2530 H       1  UNL1        0.0280
    101 H         -36.3190    9.0840   30.2870 H       1  UNL1        0.0280
    102 H         -36.8540   10.6130   31.0230 H       1  UNL1        0.0280
@<TRIPOS>BOND
     1    28    25    1
     2    26    25    1
     3    27    25    1
     4    25    21    1
     5    21    23   ar
     6    21    20   ar
     7    23    24   ar
     8    79    76    1
     9    22    20    1
    10    20    19   ar
    11    82    77    1
    12    81    77    1
    13    78    76    1
    14    76    77    1
    15    76    75    1
    16    77    80    1
    17    24    19   ar
    18    19    16    1
    19    74    72    1
    20    87    75    1
    21    75    72    1
    22    75    83    1
    23    51    49    1
    24    85    80    1
    25    80    84    1
    26    80    83    1
    27    53    52    1
    28    48    47    1
    29    72    47    1
    30    72    73    1
    31    18    15    1
    32    54    52    1
    33    16    15   am
    34    16    17    2
    35    83    86    1
    36    83    88    1
    37    52    49    1
    38    52    55    1
    39    49    47    1
    40    49    50    1
    41    47    45    1
    42    15    13    1
    43    32    29    1
    44    44    43    2
    45    88    89    1
    46    55    56    2
    47    55    57    1
    48    45    43   am
    49    45    46    1
    50    29    13    1
    51    29    31    1
    52    29    30    1
    53    13    14    1
    54    13    10    1
    55    43     1    1
    56    11    10    2
    57    10     9   am
    58    92    90    1
    59    57    58    1
    60    71    69    1
    61    97    95    1
    62     1    90    1
    63     1     3    1
    64     1     2    1
    65    90    91    1
    66    90    93    1
    67     6     3    1
    68     3     4   am
    69     9    12    1
    70     9     7    1
    71    59    58    1
    72     8     7    1
    73    58    60    1
    74    58    61    1
    75     4     5    2
    76     4     7    1
    77    69    61   ar
    78    69    67   ar
    79    95    96    1
    80    95    93    1
    81    95    98    1
    82    70    67    1
    83     7    33    1
    84    93    94    1
    85    93    99    1
    86    61    62   ar
    87    67    65   ar
    88    38    35    1
    89   101    99    1
    90    99   102    1
    91    99   100    1
    92    33    35    1
    93    33    34    1
    94    33    39    1
    95    41    39    1
    96    36    35    1
    97    62    64    1
    98    62    63   ar
    99    65    68    1
   100    65    63   ar
   101    35    37    1
   102    39    40    1
   103    39    42    1
   104    63    66    1
@<TRIPOS>MOLECULE
crystal_redock_e32_er3_1.pdbqt
 102 104 0 0 0
SMALL
GASTEIGER

@<TRIPOS>ATOM
      1 C         -33.7500    6.8250   27.7440 C.3     1  UNL1        0.0890
      2 H         -33.2640    6.5050   28.6670 H       1  UNL1        0.0870
      3 N         -34.2040    8.1940   27.9400 N.am    1  UNL1       -0.3460
      4 C         -34.7250    8.6400   29.2830 C.2     1  UNL1        0.2410
      5 O         -34.7720    7.8770   30.1910 O.2     1  UNL1       -0.2710
      6 H         -34.1570    8.8270   27.1530 H       1  UNL1        0.1630
      7 C         -35.1850   10.0620   29.4680 C.3     1  UNL1        0.0920
      8 H         -35.4430   10.2210   30.5150 H       1  UNL1        0.0880
      9 N         -34.0850   10.9770   29.1490 N.am    1  UNL1       -0.3460
     10 C         -33.0450   11.2190   30.1190 C.2     1  UNL1        0.2400
     11 O         -33.0780   10.6870   31.1610 O.2     1  UNL1       -0.2710
     12 H         -34.0430   11.4440   28.2550 H       1  UNL1        0.1630
     13 C         -31.8780   12.1970   29.7740 C.3     1  UNL1        0.0860
     14 H         -31.2990   11.8740   28.9100 H       1  UNL1        0.0860
     15 N         -32.4360   13.4970   29.4400 N.am    1  UNL1       -0.3430
     16 C         -31.6510   14.4310   28.6300 C.2     1  UNL1        0.2730
     17 O         -30.5720   14.1290   28.2550 O.2     1  UNL1       -0.2660
     18 H         -33.3580   13.7480   29.7670 H       1  UNL1        0.1630
     19 C         -32.2290   15.8080   28.2670 C.ar    1  UNL1        0.1540
     20 C         -32.5220   16.3050   26.9580 C.ar    1  UNL1       -0.0170
     21 C         -33.0290   17.6070   27.1680 C.ar    1  UNL1        0.0770
     22 H         -32.3880   15.7990   26.0020 H       1  UNL1        0.0910
     23 O         -33.0240   17.8220   28.4510 O.2     1  UNL1       -0.2180
     24 N         -32.5610   16.7870   29.1130 N.ar    1  UNL1       -0.1230
     25 C         -33.4950   18.5780   26.0910 C.3     1  UNL1       -0.0290
     26 H         -33.0110   19.5430   26.2370 H       1  UNL1        0.0360
     27 H         -33.2320   18.1840   25.1090 H       1  UNL1        0.0360
     28 H         -34.5760   18.7000   26.1560 H       1  UNL1        0.0360
     29 C         -30.9560   12.3200   30.9600 C.3     1  UNL1       -0.0490
     30 H         -29.9490   12.0210   30.6700 H       1  UNL1        0.0300
     31 H         -30.9430   13.3540   31.3040 H       1  UNL1        0.0300
     32 H         -31.3090   11.6740   31.7640 H       1  UNL1        0.0300
     33 C         -36.3850   10.3470   28.5190 C.3     1  UNL1       -0.0330
     34 H         -36.5870    9.4330   27.9610 H       1  UNL1        0.0420
     35 C         -37.6750   10.7000   29.3230 C.3     1  UNL1       -0.0710
     36 H         -38.0180   11.6950   29.0410 H       1  UNL1        0.0280
     37 H         -38.4520    9.9700   29.1010 H       1  UNL1        0.0280
     38 H         -37.4530   10.6830   30.3910 H       1  UNL1        0.0280
     39 C         -36.0320   11.4710   27.4930 C.3     1  UNL1       -0.0710
     40 H         -36.9160   11.7170   26.9040 H       1  UNL1        0.0280
     41 H         -35.6930   12.3590   28.0280 H       1  UNL1        0.0280
     42 H         -35.2390   11.1230   26.8310 H       1  UNL1        0.0280
     43 C         -32.7810    6.7930   26.5280 C.2     1  UNL1        0.2400
     44 O         -31.8600    6.0420   26.5260 O.2     1  UNL1       -0.2710
     45 N         -33.0060    7.6930   25.3610 N.am    1  UNL1       -0.3550
     46 H         -33.7880    8.3320   25.3490 H       1  UNL1        0.1620
     47 C         -32.0770    7.6490   24.2120 C.3     1  UNL1        0.0130
     48 H         -31.1680    7.1420   24.5350 H       1  UNL1        0.0720
     49 C         -31.7540    9.0610   23.7770 C.3     1  UNL1       -0.0380
     50 H         -30.7120    9.2230   24.0520 H       1  UNL1        0.0360
     51 H         -32.0580    9.1230   22.7310 H       1  UNL1        0.0360
     52 C         -32.5770   10.1250   24.5350 C.3     1  UNL1        0.0180
     53 H         -32.6890   10.9590   23.8430 H       1  UNL1        0.0480
     54 H         -33.4590    9.6040   24.9090 H       1  UNL1        0.0480
     55 C         -31.8560   10.7000   25.7850 C.2     1  UNL1        0.2590
     56 O         -32.0420   10.2270   26.8590 O.2     1  UNL1       -0.2650
     57 O         -30.9780   11.8090   25.6350 O.3     1  UNL1       -0.3170
     58 C         -31.6230   13.0050   25.1870 C.3     1  UNL1        0.0520
     59 H         -32.5920   12.6910   24.7990 H       1  UNL1        0.0820
     60 H         -31.5700   13.7000   26.0250 H       1  UNL1        0.0820
     61 C         -30.7900   13.5870   24.0140 C.ar    1  UNL1       -0.0340
     62 C         -30.6050   14.9620   23.9060 C.ar    1  UNL1       -0.0750
     63 C         -29.8570   15.4850   22.8520 C.ar    1  UNL1       -0.0820
     64 H         -31.0470   15.6300   24.6460 H       1  UNL1        0.0840
     65 C         -29.2950   14.6280   21.9020 C.ar    1  UNL1       -0.0830
     66 H         -29.7130   16.5630   22.7710 H       1  UNL1        0.0830
     67 C         -29.4840   13.2570   22.0130 C.ar    1  UNL1       -0.0820
     68 H         -28.7080   15.0290   21.0760 H       1  UNL1        0.0830
     69 C         -30.2290   12.7300   23.0660 C.ar    1  UNL1       -0.0750
     70 H         -29.0460   12.5910   21.2690 H       1  UNL1        0.0830
     71 H         -30.3730   11.6520   23.1460 H       1  UNL1        0.0840
     72 C         -32.7230    6.8930   23.0530 C.3     1  UNL1       -0.0390
     73 H         -32.0460    6.0690   22.8300 H       1  UNL1        0.0360
     74 H         -33.7440    6.6870   23.3750 H       1  UNL1        0.0360
     75 C         -32.8170    7.7980   21.7340 C.3     1  UNL1       -0.0010
     76 C         -34.3910    8.1320   21.3940 C.3     1  UNL1       -0.0350
     77 C         -34.6340    7.8170   20.0990 C.3     1  UNL1        0.0850
     78 H         -35.0440    7.4570   21.9480 H       1  UNL1        0.0360
     79 H         -34.5610    9.2080   21.4310 H       1  UNL1        0.0360
     80 N         -33.4620    6.9950   19.6170 N.4     1  UNL1       -0.0490
     81 H         -35.5250    7.1900   20.1150 H       1  UNL1        0.0750
     82 H         -34.6450    8.7660   19.5660 H       1  UNL1        0.0750
     83 C         -32.2970    7.1960   20.7170 C.3     1  UNL1        0.1930
     84 H         -33.7610    6.0310   19.6380 H       1  UNL1        0.2800
     85 H         -33.1600    7.4120   18.7480 H       1  UNL1        0.2800
     86 H         -31.4490    7.8500   20.5120 H       1  UNL1        0.1290
     87 H         -32.1260    8.6410   21.7620 H       1  UNL1        0.0460
     88 O         -31.7300    5.9330   21.0690 O.3     1  UNL1       -0.3690
     89 H         -31.7870    5.3360   20.3200 H       1  UNL1        0.2120
     90 C         -34.9530    5.9390   27.4630 C.3     1  UNL1       -0.0350
     91 H         -34.5870    5.1580   26.7970 H       1  UNL1        0.0370
     92 H         -35.3540    5.6770   28.4420 H       1  UNL1        0.0370
     93 C         -36.1030    6.6680   26.6960 C.3     1  UNL1       -0.0590
     94 H         -35.8230    7.7170   26.6000 H       1  UNL1        0.0380
     95 C         -36.3060    6.0960   25.2570 C.3     1  UNL1       -0.0730
     96 H         -36.3270    5.0070   25.2980 H       1  UNL1        0.0280
     97 H         -37.2490    6.4610   24.8510 H       1  UNL1        0.0280
     98 H         -35.4850    6.4200   24.6180 H       1  UNL1        0.0280
     99 C         -37.4090    6.6180   27.4930 C.3     1  UNL1       -0.0730
    100 H         -37.3160    5.8880   28.2970 H       1  UNL1        0.0280
    101 H         -37.6150    7.6010   27.9160 H       1  UNL1        0.0280
    102 H         -38.2260    6.3290   26.8320 H       1  UNL1        0.0280
@<TRIPOS>BOND
     1    85    80    1
     2    82    77    1
     3    80    84    1
     4    80    77    1
     5    80    83    1
     6    77    81    1
     7    77    76    1
     8    89    88    1
     9    86    83    1
    10    83    88    1
    11    83    75    1
    12    68    65    1
    13    70    67    1
    14    76    79    1
    15    76    75    1
    16    76    78    1
    17    75    87    1
    18    75    72    1
    19    65    67   ar
    20    65    63   ar
    21    67    69   ar
    22    51    49    1
    23    66    63    1
    24    73    72    1
    25    63    62   ar
    26    72    74    1
    27    72    47    1
    28    69    71    1
    29    69    61   ar
    30    49    50    1
    31    49    47    1
    32    49    52    1
    33    53    52    1
    34    62    61   ar
    35    62    64    1
    36    61    58    1
    37    47    48    1
    38    47    45    1
    39    52    54    1
    40    52    55    1
    41    98    95    1
    42    59    58    1
    43    97    95    1
    44    27    25    1
    45    58    57    1
    46    58    60    1
    47    95    96    1
    48    95    93    1
    49    46    45    1
    50    45    43   am
    51    57    55    1
    52    55    56    2
    53    22    20    1
    54    25    28    1
    55    25    26    1
    56    25    21    1
    57    44    43    2
    58    43     1    1
    59    94    93    1
    60    93    90    1
    61    93    99    1
    62    91    90    1
    63    42    39    1
    64   102    99    1
    65    40    39    1
    66    20    21   ar
    67    20    19   ar
    68     6     3    1
    69    21    23   ar
    70    90     1    1
    71    90    92    1
    72    39    41    1
    73    39    33    1
    74    99   101    1
    75    99   100    1
    76     1     3    1
    77     1     2    1
    78     3     4   am
    79    34    33    1
    80    17    16    2
    81    12     9    1
    82    19    16    1
    83    19    24   ar
    84    23    24   ar
    85    33    35    1
    86    33     7    1
    87    16    15   am
    88    14    13    1
    89    36    35    1
    90    37    35    1
    91     9     7    1
    92     9    10   am
    93     4     7    1
    94     4     5    2
    95    35    38    1
    96    15    18    1
    97    15    13    1
    98     7     8    1
    99    13    10    1
   100    13    29    1
   101    10    11    2
   102    30    29    1
   103    29    31    1
   104    29    32    1
@<TRIPOS>MOLECULE
crystal_redock_e32_er3_1.pdbqt
 102 104 0 0 0
SMALL
GASTEIGER

@<TRIPOS>ATOM
      1 C         -30.7850   14.8270   24.3870 C.3     1  UNL1        0.0890
      2 H         -29.8410   14.5810   24.8720 H       1  UNL1        0.0870
      3 N         -31.4860   13.5770   24.1330 N.am    1  UNL1       -0.3460
      4 C         -31.4800   12.4770   25.1650 C.2     1  UNL1        0.2410
      5 O         -30.9020   12.6210   26.1910 O.2     1  UNL1       -0.2710
      6 H         -31.9700   13.4740   23.2520 H       1  UNL1        0.1630
      7 C         -32.2150   11.1920   24.8870 C.3     1  UNL1        0.0920
      8 H         -32.9290   11.3550   24.0800 H       1  UNL1        0.0880
      9 N         -31.2650   10.1750   24.4270 N.am    1  UNL1       -0.3460
     10 C         -31.5910    9.3450   23.2940 C.2     1  UNL1        0.2400
     11 O         -32.6150    9.4800   22.7420 O.2     1  UNL1       -0.2710
     12 H         -30.3790   10.0450   24.8940 H       1  UNL1        0.1630
     13 C         -30.5770    8.2620   22.8100 C.3     1  UNL1        0.0860
     14 H         -30.4060    7.4830   23.5530 H       1  UNL1        0.0860
     15 N         -31.1180    7.6020   21.6330 N.am    1  UNL1       -0.3430
     16 C         -31.7780    6.3020   21.7740 C.2     1  UNL1        0.2730
     17 O         -31.8660    5.7940   22.8380 O.2     1  UNL1       -0.2660
     18 H         -31.0360    8.0420   20.7280 H       1  UNL1        0.1630
     19 C         -32.3550    5.5940   20.5390 C.ar    1  UNL1        0.1540
     20 C         -32.3520    4.1890   20.2670 C.ar    1  UNL1       -0.0170
     21 C         -32.9980    4.0590   19.0180 C.ar    1  UNL1        0.0770
     22 H         -31.9440    3.3870   20.8830 H       1  UNL1        0.0910
     23 O         -33.3300    5.2540   18.6270 O.2     1  UNL1       -0.2180
     24 N         -32.9650    6.1670   19.4970 N.ar    1  UNL1       -0.1230
     25 C         -33.2580    2.7590   18.2680 C.3     1  UNL1       -0.0290
     26 H         -34.0860    2.8980   17.5740 H       1  UNL1        0.0360
     27 H         -32.3630    2.4740   17.7140 H       1  UNL1        0.0360
     28 H         -33.5090    1.9730   18.9800 H       1  UNL1        0.0360
     29 C         -29.2610    8.9150   22.4770 C.3     1  UNL1       -0.0490
     30 H         -28.4710    8.1640   22.4810 H       1  UNL1        0.0300
     31 H         -29.3220    9.3730   21.4900 H       1  UNL1        0.0300
     32 H         -29.0370    9.6810   23.2200 H       1  UNL1        0.0300
     33 C         -32.9070   10.6990   26.1920 C.3     1  UNL1       -0.0330
     34 H         -32.7220   11.4450   26.9640 H       1  UNL1        0.0420
     35 C         -34.4530   10.5880   26.0080 C.3     1  UNL1       -0.0710
     36 H         -34.7620   11.1910   25.1540 H       1  UNL1        0.0280
     37 H         -34.7240    9.5470   25.8340 H       1  UNL1        0.0280
     38 H         -34.9520   10.9480   26.9070 H       1  UNL1        0.0280
     39 C         -32.2950    9.3440   26.6720 C.3     1  UNL1       -0.0710
     40 H         -33.0090    8.8310   27.3160 H       1  UNL1        0.0280
     41 H         -32.0710    8.7190   25.8060 H       1  UNL1        0.0280
     42 H         -31.3770    9.5360   27.2270 H       1  UNL1        0.0280
     43 C         -31.6870   15.7280   25.2780 C.2     1  UNL1        0.2400
     44 O         -31.4490   15.8400   26.4370 O.2     1  UNL1       -0.2710
     45 N         -32.8440   16.4580   24.6850 N.am    1  UNL1       -0.3550
     46 H         -33.0530   16.3740   23.7000 H       1  UNL1        0.1620
     47 C         -33.6910   17.3120   25.5450 C.3     1  UNL1        0.0130
     48 H         -33.2750   17.2900   26.5530 H       1  UNL1        0.0720
     49 C         -35.1010   16.7670   25.5560 C.3     1  UNL1       -0.0380
     50 H         -35.7480   17.6270   25.7290 H       1  UNL1        0.0360
     51 H         -35.1990   16.1860   24.6390 H       1  UNL1        0.0360
     52 C         -35.3560   15.7870   26.7220 C.3     1  UNL1        0.0180
     53 H         -36.4340   15.7930   26.8830 H       1  UNL1        0.0480
     54 H         -34.8510   14.8610   26.4460 H       1  UNL1        0.0480
     55 C         -34.7210   16.2360   28.0680 C.2     1  UNL1        0.2590
     56 O         -35.0880   17.2300   28.6060 O.2     1  UNL1       -0.2650
     57 O         -33.6840   15.4520   28.6450 O.3     1  UNL1       -0.3170
     58 C         -33.6030   14.1210   28.1270 C.3     1  UNL1        0.0520
     59 H         -34.6210   13.7320   28.1530 H       1  UNL1        0.0820
     60 H         -33.0770   14.2060   27.1760 H       1  UNL1        0.0820
     61 C         -32.7310   13.2810   29.0970 C.ar    1  UNL1       -0.0340
     62 C         -33.0980   11.9770   29.4130 C.ar    1  UNL1       -0.0750
     63 C         -32.3140   11.2230   30.2850 C.ar    1  UNL1       -0.0820
     64 H         -34.0000   11.5460   28.9780 H       1  UNL1        0.0840
     65 C         -31.1600   11.7780   30.8440 C.ar    1  UNL1       -0.0830
     66 H         -32.6040   10.2000   30.5290 H       1  UNL1        0.0830
     67 C         -30.8000   13.0810   30.5280 C.ar    1  UNL1       -0.0820
     68 H         -30.5410   11.1950   31.5260 H       1  UNL1        0.0830
     69 C         -31.5790   13.8380   29.6560 C.ar    1  UNL1       -0.0750
     70 H         -29.9000   13.5120   30.9680 H       1  UNL1        0.0830
     71 H         -31.2880   14.8600   29.4120 H       1  UNL1        0.0840
     72 C         -33.7010   18.7410   25.0060 C.3     1  UNL1       -0.0390
     73 H         -33.0340   18.7300   24.1440 H       1  UNL1        0.0360
     74 H         -34.7530   18.9950   24.8780 H       1  UNL1        0.0360
     75 C         -33.0890   19.7770   26.0630 C.3     1  UNL1       -0.0010
     76 C         -32.1820   18.9740   27.1750 C.3     1  UNL1       -0.0350
     77 C         -32.5850   19.3410   28.4150 C.3     1  UNL1        0.0850
     78 H         -32.4060   17.9080   27.1400 H       1  UNL1        0.0360
     79 H         -31.1480   19.3160   27.1320 H       1  UNL1        0.0360
     80 N         -33.8980   20.0700   28.2550 N.4     1  UNL1       -0.0490
     81 H         -32.7590   18.4090   28.9520 H       1  UNL1        0.0750
     82 H         -31.8310   20.0420   28.7700 H       1  UNL1        0.0750
     83 C         -34.0230   20.4180   26.6830 C.3     1  UNL1        0.1930
     84 H         -34.6230   19.4100   28.4970 H       1  UNL1        0.2800
     85 H         -33.8090   20.9340   28.7700 H       1  UNL1        0.2800
     86 H         -33.8400   21.4310   26.3240 H       1  UNL1        0.1290
     87 H         -32.6300   20.6390   25.5780 H       1  UNL1        0.0460
     88 O         -35.3240   20.0730   26.2040 O.3     1  UNL1       -0.3690
     89 H         -35.2410   19.4830   25.4500 H       1  UNL1        0.2120
     90 C         -30.5170   15.5230   23.0620 C.3     1  UNL1       -0.0350
     91 H         -31.4410   16.0490   22.8200 H       1  UNL1        0.0370
     92 H         -29.5950   16.0840   23.2120 H       1  UNL1        0.0370
     93 C         -30.2480   14.5390   21.8800 C.3     1  UNL1       -0.0590
     94 H         -30.9550   13.7140   21.9680 H       1  UNL1        0.0380
     95 C         -30.4740   15.2130   20.4880 C.3     1  UNL1       -0.0730
     96 H         -30.8510   16.2250   20.6320 H       1  UNL1        0.0280
     97 H         -29.5300   15.2510   19.9450 H       1  UNL1        0.0280
     98 H         -31.1990   14.6330   19.9180 H       1  UNL1        0.0280
     99 C         -28.8410   13.9440   21.9740 C.3     1  UNL1       -0.0730
    100 H         -28.2560   14.2520   21.1070 H       1  UNL1        0.0280
    101 H         -28.3560   14.2980   22.8840 H       1  UNL1        0.0280
    102 H         -28.9070   12.8560   21.9990 H       1  UNL1        0.0280
@<TRIPOS>BOND
     1    26    25    1
     2    27    25    1
     3    25    28    1
     4    25    21    1
     5    23    21   ar
     6    23    24   ar
     7    21    20   ar
     8    24    19   ar
     9    98    95    1
    10    97    95    1
    11    20    19   ar
    12    20    22    1
    13    95    96    1
    14    95    93    1
    15    19    16    1
    16    18    15    1
    17   100    99    1
    18    31    29    1
    19    15    16   am
    20    15    13    1
    21    16    17    2
    22    93    94    1
    23    93    99    1
    24    93    90    1
    25    99   102    1
    26    99   101    1
    27    29    30    1
    28    29    13    1
    29    29    32    1
    30    11    10    2
    31    13    10    1
    32    13    14    1
    33    91    90    1
    34    90    92    1
    35    90     1    1
    36     6     3    1
    37    10     9   am
    38    46    45    1
    39     8     7    1
    40     3     1    1
    41     3     4   am
    42    73    72    1
    43     1     2    1
    44     1    43    1
    45     9     7    1
    46     9    12    1
    47    51    49    1
    48    45    43   am
    49    45    47    1
    50    74    72    1
    51     7     4    1
    52     7    33    1
    53    72    47    1
    54    72    75    1
    55    36    35    1
    56     4     5    2
    57    43    44    2
    58    89    88    1
    59    47    49    1
    60    47    48    1
    61    49    50    1
    62    49    52    1
    63    87    75    1
    64    41    39    1
    65    37    35    1
    66    35    33    1
    67    35    38    1
    68    75    83    1
    69    75    76    1
    70    33    39    1
    71    33    34    1
    72    88    83    1
    73    86    83    1
    74    54    52    1
    75    39    42    1
    76    39    40    1
    77    83    80    1
    78    52    53    1
    79    52    55    1
    80    79    76    1
    81    78    76    1
    82    76    77    1
    83    60    58    1
    84    55    56    2
    85    55    57    1
    86    58    59    1
    87    58    57    1
    88    58    61    1
    89    80    77    1
    90    80    84    1
    91    80    85    1
    92    77    82    1
    93    77    81    1
    94    64    62    1
    95    61    62   ar
    96    61    69   ar
    97    71    69    1
    98    62    63   ar
    99    69    67   ar
   100    63    66    1
   101    63    65   ar
   102    67    65   ar
   103    67    70    1
   104    65    68    1
@<TRIPOS>MOLECULE
crystal_redock_e32_er3_1.pdbqt
 102 104 0 0 0
SMALL
GASTEIGER

@<TRIPOS>ATOM
      1 C         -35.4880   14.6060   26.8850 C.3     1  UNL1        0.0890
      2 H         -35.6760   14.9150   27.9130 H       1  UNL1        0.0870
      3 N         -34.3250   15.3430   26.4120 N.am    1  UNL1       -0.3460
      4 C         -33.6250   16.3240   27.3170 C.2     1  UNL1        0.2410
      5 O         -34.0180   16.5070   28.4220 O.2     1  UNL1       -0.2710
      6 H         -34.0080   15.1750   25.4670 H       1  UNL1        0.1630
      7 C         -32.4200   17.0740   26.8130 C.3     1  UNL1        0.0920
      8 H         -31.5820   16.9010   27.4880 H       1  UNL1        0.0880
      9 N         -32.0330   16.5510   25.4990 N.am    1  UNL1       -0.3460
     10 C         -31.3040   15.3100   25.4040 C.2     1  UNL1        0.2400
     11 O         -31.0180   14.7210   26.3740 O.2     1  UNL1       -0.2710
     12 H         -32.2710   17.0490   24.6540 H       1  UNL1        0.1630
     13 C         -30.8920   14.7600   24.0030 C.3     1  UNL1        0.0860
     14 H         -29.8370   14.9190   23.7810 H       1  UNL1        0.0860
     15 N         -31.1110   13.3240   23.9780 N.am    1  UNL1       -0.3430
     16 C         -30.3240   12.4900   23.0660 C.2     1  UNL1        0.2730
     17 O         -29.5200   12.9850   22.3550 O.2     1  UNL1       -0.2660
     18 H         -31.8020   12.9090   24.5870 H       1  UNL1        0.1630
     19 C         -30.5440   10.9700   23.0300 C.ar    1  UNL1        0.1540
     20 C         -31.5370   10.2220   23.7390 C.ar    1  UNL1       -0.0170
     21 C         -31.3160    8.8780   23.3660 C.ar    1  UNL1        0.0770
     22 H         -32.3010   10.5980   24.4210 H       1  UNL1        0.0910
     23 O         -30.3130    8.8660   22.5380 O.2     1  UNL1       -0.2180
     24 N         -29.8450   10.0740   22.3270 N.ar    1  UNL1       -0.1230
     25 C         -32.1070    7.6680   23.8440 C.3     1  UNL1       -0.0290
     26 H         -31.4610    7.0220   24.4370 H       1  UNL1        0.0360
     27 H         -32.9460    8.0010   24.4540 H       1  UNL1        0.0360
     28 H         -32.4820    7.1150   22.9820 H       1  UNL1        0.0360
     29 C         -31.7200   15.4280   22.9350 C.3     1  UNL1       -0.0490
     30 H         -32.3510   14.6840   22.4470 H       1  UNL1        0.0300
     31 H         -32.3480   16.1950   23.3880 H       1  UNL1        0.0300
     32 H         -31.0620   15.8860   22.1970 H       1  UNL1        0.0300
     33 C         -32.7660   18.5860   26.6850 C.3     1  UNL1       -0.0330
     34 H         -32.0550   19.0280   25.9870 H       1  UNL1        0.0420
     35 C         -34.1950   18.7940   26.0920 C.3     1  UNL1       -0.0710
     36 H         -34.1200   19.3040   25.1320 H       1  UNL1        0.0280
     37 H         -34.6750   17.8260   25.9530 H       1  UNL1        0.0280
     38 H         -34.7880   19.3980   26.7780 H       1  UNL1        0.0280
     39 C         -32.6120   19.3140   28.0590 C.3     1  UNL1       -0.0710
     40 H         -31.6110   19.7390   28.1340 H       1  UNL1        0.0280
     41 H         -33.3520   20.1110   28.1330 H       1  UNL1        0.0280
     42 H         -32.7660   18.6000   28.8680 H       1  UNL1        0.0280
     43 C         -35.1880   13.0830   26.7740 C.2     1  UNL1        0.2400
     44 O         -35.3370   12.5260   25.7350 O.2     1  UNL1       -0.2710
     45 N         -34.7070   12.3220   27.9620 N.am    1  UNL1       -0.3550
     46 H         -34.5730   12.7860   28.8490 H       1  UNL1        0.1620
     47 C         -34.4260   10.8750   27.8400 C.3     1  UNL1        0.0130
     48 H         -34.3430   10.6380   26.7790 H       1  UNL1        0.0720
     49 C         -35.5610   10.0910   28.4580 C.3     1  UNL1       -0.0380
     50 H         -35.5770   10.3750   29.5100 H       1  UNL1        0.0360
     51 H         -36.4290   10.2850   27.8280 H       1  UNL1        0.0360
     52 C         -35.3260    8.5650   28.4210 C.3     1  UNL1        0.0180
     53 H         -36.1240    8.1590   27.8010 H       1  UNL1        0.0480
     54 H         -34.2850    8.4340   28.1250 H       1  UNL1        0.0480
     55 C         -35.4670    7.8760   29.8070 C.2     1  UNL1        0.2590
     56 O         -35.6640    8.5220   30.7840 O.2     1  UNL1       -0.2650
     57 O         -35.3460    6.4620   29.8970 O.3     1  UNL1       -0.3170
     58 C         -35.4870    5.9490   31.2240 C.3     1  UNL1        0.0520
     59 H         -35.3270    6.7990   31.8880 H       1  UNL1        0.0820
     60 H         -36.4400    5.4200   31.2360 H       1  UNL1        0.0820
     61 C         -34.3520    4.9180   31.4640 C.ar    1  UNL1       -0.0340
     62 C         -34.2140    4.3100   32.7070 C.ar    1  UNL1       -0.0750
     63 C         -33.1940    3.3840   32.9220 C.ar    1  UNL1       -0.0820
     64 H         -34.9050    4.5580   33.5130 H       1  UNL1        0.0840
     65 C         -32.3070    3.0700   31.8880 C.ar    1  UNL1       -0.0830
     66 H         -33.0890    2.9080   33.8970 H       1  UNL1        0.0830
     67 C         -32.4470    3.6830   30.6500 C.ar    1  UNL1       -0.0820
     68 H         -31.5070    2.3470   32.0480 H       1  UNL1        0.0830
     69 C         -33.4660    4.6060   30.4300 C.ar    1  UNL1       -0.0750
     70 H         -31.7520    3.4370   29.8460 H       1  UNL1        0.0830
     71 H         -33.5700    5.0820   29.4550 H       1  UNL1        0.0840
     72 C         -33.1220   10.5400   28.5620 C.3     1  UNL1       -0.0390
     73 H         -33.3460    9.6650   29.1720 H       1  UNL1        0.0360
     74 H         -32.3650   10.4800   27.7800 H       1  UNL1        0.0360
     75 C         -32.6800   11.7120   29.5610 C.3     1  UNL1       -0.0010
     76 C         -31.2210   12.3170   29.1030 C.3     1  UNL1       -0.0350
     77 C         -30.3950   12.3240   30.1760 C.3     1  UNL1        0.0850
     78 H         -30.7330   11.6320   28.4100 H       1  UNL1        0.0360
     79 H         -31.3170   13.3730   28.8480 H       1  UNL1        0.0360
     80 N         -31.0490   11.4780   31.2420 N.4     1  UNL1       -0.0490
     81 H         -29.4810   11.8320   29.8430 H       1  UNL1        0.0750
     82 H         -30.3650   13.3590   30.5140 H       1  UNL1        0.0750
     83 C         -32.5810   11.2800   30.7740 C.3     1  UNL1        0.1930
     84 H         -30.5870   10.5800   31.2180 H       1  UNL1        0.2800
     85 H         -31.0390   12.0280   32.0890 H       1  UNL1        0.2800
     86 H         -33.3830   11.8440   31.2510 H       1  UNL1        0.1290
     87 H         -33.4810   12.4300   29.7360 H       1  UNL1        0.0460
     88 O         -32.9590    9.9070   30.8890 O.3     1  UNL1       -0.3690
     89 H         -33.8690    9.8500   31.1890 H       1  UNL1        0.2120
     90 C         -36.6850   14.9560   26.0150 C.3     1  UNL1       -0.0350
     91 H         -36.3660   14.7580   24.9920 H       1  UNL1        0.0370
     92 H         -37.5230   14.4040   26.4410 H       1  UNL1        0.0370
     93 C         -37.0780   16.4670   26.0690 C.3     1  UNL1       -0.0590
     94 H         -36.2750   16.9990   26.5790 H       1  UNL1        0.0380
     95 C         -37.2310   17.0870   24.6440 C.3     1  UNL1       -0.0730
     96 H         -37.1370   18.1710   24.7070 H       1  UNL1        0.0280
     97 H         -36.4530   16.6930   23.9900 H       1  UNL1        0.0280
     98 H         -38.2100   16.8310   24.2390 H       1  UNL1        0.0280
     99 C         -38.3530   16.6700   26.8920 C.3     1  UNL1       -0.0730
    100 H         -39.2250   16.4930   26.2610 H       1  UNL1        0.0280
    101 H         -38.3620   15.9710   27.7280 H       1  UNL1        0.0280
    102 H         -38.3810   17.6910   27.2720 H       1  UNL1        0.0280
@<TRIPOS>BOND
     1    32    29    1
     2    24    23   ar
     3    24    19   ar
     4    17    16    2
     5    30    29    1
     6    23    21   ar
     7    29    31    1
     8    29    13    1
     9    28    25    1
    10    19    16    1
    11    19    20   ar
    12    16    15   am
    13    21    20   ar
    14    21    25    1
    15    20    22    1
    16    14    13    1
    17    25    26    1
    18    25    27    1
    19    15    13    1
    20    15    18    1
    21    97    95    1
    22    13    10    1
    23    98    95    1
    24    95    96    1
    25    95    93    1
    26    12     9    1
    27    91    90    1
    28    36    35    1
    29    10     9   am
    30    10    11    2
    31     6     3    1
    32     9     7    1
    33    44    43    2
    34    37    35    1
    35    34    33    1
    36    90    93    1
    37    90    92    1
    38    90     1    1
    39    93    94    1
    40    93    99    1
    41    35    33    1
    42    35    38    1
    43   100    99    1
    44     3     1    1
    45     3     4   am
    46    33     7    1
    47    33    39    1
    48    43     1    1
    49    43    45   am
    50    48    47    1
    51     7     4    1
    52     7     8    1
    53     1     2    1
    54    99   102    1
    55    99   101    1
    56     4     5    2
    57    74    72    1
    58    53    52    1
    59    51    49    1
    60    47    45    1
    61    47    49    1
    62    47    72    1
    63    45    46    1
    64    39    41    1
    65    39    40    1
    66    39    42    1
    67    54    52    1
    68    78    76    1
    69    52    49    1
    70    52    55    1
    71    49    50    1
    72    72    73    1
    73    72    75    1
    74    79    76    1
    75    76    75    1
    76    76    77    1
    77    71    69    1
    78    75    87    1
    79    75    83    1
    80    55    57    1
    81    55    56    2
    82    81    77    1
    83    70    67    1
    84    57    58    1
    85    77    82    1
    86    77    80    1
    87    69    67   ar
    88    69    61   ar
    89    67    65   ar
    90    83    88    1
    91    83    80    1
    92    83    86    1
    93    88    89    1
    94    84    80    1
    95    58    60    1
    96    58    61    1
    97    58    59    1
    98    80    85    1
    99    61    62   ar
   100    65    68    1
   101    65    63   ar
   102    62    63   ar
   103    62    64    1
   104    63    66    1
@<TRIPOS>MOLECULE
crystal_redock_e32_er3_1.pdbqt
 102 104 0 0 0
SMALL
GASTEIGER

@<TRIPOS>ATOM
      1 C         -35.6880   10.0270   26.2960 C.3     1  UNL1        0.0890
      2 H         -36.7410    9.8980   26.5500 H       1  UNL1        0.0870
      3 N         -34.9230    9.9140   27.5290 N.am    1  UNL1       -0.3460
      4 C         -35.5640   10.2350   28.8550 C.2     1  UNL1        0.2410
      5 O         -36.6970   10.5840   28.9050 O.2     1  UNL1       -0.2710
      6 H         -33.9600    9.6170   27.4640 H       1  UNL1        0.1630
      7 C         -34.7590   10.1070   30.1220 C.3     1  UNL1        0.0920
      8 H         -34.1620    9.1960   30.0770 H       1  UNL1        0.0880
      9 N         -33.8260   11.2330   30.2230 N.am    1  UNL1       -0.3460
     10 C         -32.5750   11.1990   29.5050 C.2     1  UNL1        0.2400
     11 O         -32.3040   10.2740   28.8420 O.2     1  UNL1       -0.2710
     12 H         -34.0450   12.0380   30.7930 H       1  UNL1        0.1630
     13 C         -31.5850   12.3990   29.6190 C.3     1  UNL1        0.0860
     14 H         -30.7550   12.3300   28.9160 H       1  UNL1        0.0860
     15 N         -32.2940   13.6280   29.3060 N.am    1  UNL1       -0.3430
     16 C         -31.7230   14.5630   28.3340 C.2     1  UNL1        0.2730
     17 O         -30.6910   14.3190   27.8120 O.2     1  UNL1       -0.2660
     18 H         -33.1750   13.8300   29.7590 H       1  UNL1        0.1630
     19 C         -32.4640   15.8660   27.9920 C.ar    1  UNL1        0.1540
     20 C         -32.5190   16.5210   26.7210 C.ar    1  UNL1       -0.0170
     21 C         -33.3190   17.6650   26.9360 C.ar    1  UNL1        0.0770
     22 H         -32.0500   16.2130   25.7860 H       1  UNL1        0.0910
     23 O         -33.6770   17.6580   28.1870 O.2     1  UNL1       -0.2180
     24 N         -33.1900   16.6180   28.8240 N.ar    1  UNL1       -0.1230
     25 C         -33.6930   18.7120   25.8960 C.3     1  UNL1       -0.0290
     26 H         -34.7770   18.7490   25.7910 H       1  UNL1        0.0360
     27 H         -33.3260   19.6870   26.2140 H       1  UNL1        0.0360
     28 H         -33.2440   18.4500   24.9380 H       1  UNL1        0.0360
     29 C         -31.0310   12.4650   31.0200 C.3     1  UNL1       -0.0490
     30 H         -30.5550   11.5160   31.2680 H       1  UNL1        0.0300
     31 H         -30.2950   13.2670   31.0820 H       1  UNL1        0.0300
     32 H         -31.8410   12.6600   31.7230 H       1  UNL1        0.0300
     33 C         -35.7170   10.1190   31.3490 C.3     1  UNL1       -0.0330
     34 H         -36.6480   10.5900   31.0340 H       1  UNL1        0.0420
     35 C         -36.0590    8.6700   31.8170 C.3     1  UNL1       -0.0710
     36 H         -35.2700    8.3040   32.4740 H       1  UNL1        0.0280
     37 H         -37.0070    8.6760   32.3550 H       1  UNL1        0.0280
     38 H         -36.1390    8.0170   30.9470 H       1  UNL1        0.0280
     39 C         -35.1180   10.9650   32.5180 C.3     1  UNL1       -0.0710
     40 H         -34.8060   10.3010   33.3240 H       1  UNL1        0.0280
     41 H         -34.2570   11.5270   32.1560 H       1  UNL1        0.0280
     42 H         -35.8730   11.6580   32.8890 H       1  UNL1        0.0280
     43 C         -35.1870    8.9410   25.3010 C.2     1  UNL1        0.2400
     44 O         -35.9620    8.1850   24.8120 O.2     1  UNL1       -0.2710
     45 N         -33.7410    8.8510   24.9500 N.am    1  UNL1       -0.3550
     46 H         -33.0740    9.4910   25.3550 H       1  UNL1        0.1620
     47 C         -33.2810    7.8140   24.0010 C.3     1  UNL1        0.0130
     48 H         -34.1560    7.2650   23.6540 H       1  UNL1        0.0720
     49 C         -32.3290    6.8760   24.7090 C.3     1  UNL1       -0.0380
     50 H         -31.8910    6.2550   23.9270 H       1  UNL1        0.0360
     51 H         -31.6910    7.5120   25.3230 H       1  UNL1        0.0360
     52 C         -33.0480    5.9130   25.6790 C.3     1  UNL1        0.0180
     53 H         -34.0850    5.8780   25.3470 H       1  UNL1        0.0480
     54 H         -32.4490    5.0020   25.6890 H       1  UNL1        0.0480
     55 C         -33.0860    6.4160   27.1480 C.2     1  UNL1        0.2590
     56 O         -32.6250    7.4730   27.4360 O.2     1  UNL1       -0.2650
     57 O         -33.6680    5.5930   28.1520 O.3     1  UNL1       -0.3170
     58 C         -32.8690    4.4630   28.5130 C.3     1  UNL1        0.0520
     59 H         -33.2800    3.6210   27.9560 H       1  UNL1        0.0820
     60 H         -31.8350    4.7690   28.3540 H       1  UNL1        0.0820
     61 C         -33.0740    4.1960   30.0280 C.ar    1  UNL1       -0.0340
     62 C         -34.1010    4.8350   30.7160 C.ar    1  UNL1       -0.0750
     63 C         -34.2860    4.5950   32.0760 C.ar    1  UNL1       -0.0820
     64 H         -34.7620    5.5230   30.1880 H       1  UNL1        0.0840
     65 C         -33.4360    3.7140   32.7510 C.ar    1  UNL1       -0.0830
     66 H         -35.0920    5.0960   32.6120 H       1  UNL1        0.0830
     67 C         -32.4100    3.0820   32.0620 C.ar    1  UNL1       -0.0820
     68 H         -33.5730    3.5210   33.8150 H       1  UNL1        0.0830
     69 C         -32.2240    3.3170   30.7010 C.ar    1  UNL1       -0.0750
     70 H         -31.7480    2.3970   32.5920 H       1  UNL1        0.0830
     71 H         -31.4170    2.8150   30.1670 H       1  UNL1        0.0840
     72 C         -32.5650    8.4720   22.8240 C.3     1  UNL1       -0.0390
     73 H         -32.4970    7.7000   22.0570 H       1  UNL1        0.0360
     74 H         -33.1190    9.3900   22.6240 H       1  UNL1        0.0360
     75 C         -31.0680    8.8970   23.2020 C.3     1  UNL1       -0.0010
     76 C         -30.9790   10.5280   23.3930 C.3     1  UNL1       -0.0350
     77 C         -29.9580   11.0000   22.6390 C.3     1  UNL1        0.0850
     78 H         -31.8580   11.0030   22.9580 H       1  UNL1        0.0360
     79 H         -30.6770   10.7690   24.4120 H       1  UNL1        0.0360
     80 N         -29.5510    9.8900   21.7010 N.4     1  UNL1       -0.0490
     81 H         -30.3800   11.8200   22.0580 H       1  UNL1        0.0750
     82 H         -29.1440   11.1910   23.3380 H       1  UNL1        0.0750
     83 C         -30.2350    8.5470   22.2790 C.3     1  UNL1        0.1930
     84 H         -29.9670   10.1040   20.8060 H       1  UNL1        0.2800
     85 H         -28.5480    9.8010   21.7830 H       1  UNL1        0.2800
     86 H         -29.6400    7.8100   22.8180 H       1  UNL1        0.1290
     87 H         -30.6530    8.2810   24.0000 H       1  UNL1        0.0460
     88 O         -30.8730    7.8260   21.2230 O.3     1  UNL1       -0.3690
     89 H         -30.6630    6.8920   21.3010 H       1  UNL1        0.2120
     90 C         -35.4680   11.4080   25.7000 C.3     1  UNL1       -0.0350
     91 H         -35.0000   11.2330   24.7310 H       1  UNL1        0.0370
     92 H         -36.4370   11.9040   25.7550 H       1  UNL1        0.0370
     93 C         -34.4720   12.2910   26.5160 C.3     1  UNL1       -0.0590
     94 H         -34.2780   11.7840   27.4620 H       1  UNL1        0.0380
     95 C         -33.1040   12.4690   25.7830 C.3     1  UNL1       -0.0730
     96 H         -32.6420   13.4050   26.0960 H       1  UNL1        0.0280
     97 H         -32.4450   11.6380   26.0340 H       1  UNL1        0.0280
     98 H         -33.2690   12.4880   24.7060 H       1  UNL1        0.0280
     99 C         -35.0920   13.6510   26.8480 C.3     1  UNL1       -0.0730
    100 H         -36.1080   13.6930   26.4530 H       1  UNL1        0.0280
    101 H         -35.1180   13.7850   27.9300 H       1  UNL1        0.0280
    102 H         -34.4940   14.4430   26.3990 H       1  UNL1        0.0280
@<TRIPOS>BOND
     1    84    80    1
     2    88    89    1
     3    88    83    1
     4    80    85    1
     5    80    83    1
     6    80    77    1
     7    73    72    1
     8    81    77    1
     9    83    86    1
    10    83    75    1
    11    74    72    1
    12    77    82    1
    13    77    76    1
    14    72    75    1
    15    72    47    1
    16    78    76    1
    17    75    76    1
    18    75    87    1
    19    76    79    1
    20    48    47    1
    21    50    49    1
    22    47    49    1
    23    47    45    1
    24    98    95    1
    25    49    51    1
    26    49    52    1
    27    91    90    1
    28    44    43    2
    29    28    25    1
    30    45    43   am
    31    45    46    1
    32    43     1    1
    33    53    52    1
    34    52    54    1
    35    52    55    1
    36    90    92    1
    37    90     1    1
    38    90    93    1
    39    95    97    1
    40    95    96    1
    41    95    93    1
    42    22    20    1
    43    26    25    1
    44    25    27    1
    45    25    21    1
    46     1     2    1
    47     1     3    1
    48   102    99    1
    49   100    99    1
    50    93    99    1
    51    93    94    1
    52    20    21   ar
    53    20    19   ar
    54    99   101    1
    55    21    23   ar
    56    55    56    2
    57    55    57    1
    58     6     3    1
    59     3     4   am
    60    17    16    2
    61    59    58    1
    62    19    16    1
    63    19    24   ar
    64    57    58    1
    65    23    24   ar
    66    16    15   am
    67    60    58    1
    68    58    61    1
    69    11    10    2
    70     4     5    2
    71     4     7    1
    72    14    13    1
    73    15    13    1
    74    15    18    1
    75    10    13    1
    76    10     9   am
    77    13    29    1
    78    61    69   ar
    79    61    62   ar
    80     8     7    1
    81     7     9    1
    82     7    33    1
    83    71    69    1
    84    64    62    1
    85     9    12    1
    86    69    67   ar
    87    62    63   ar
    88    38    35    1
    89    29    31    1
    90    29    30    1
    91    29    32    1
    92    34    33    1
    93    33    35    1
    94    33    39    1
    95    35    37    1
    96    35    36    1
    97    67    70    1
    98    67    65   ar
    99    63    66    1
   100    63    65   ar
   101    41    39    1
   102    39    42    1
   103    39    40    1
   104    65    68    1
@<TRIPOS>MOLECULE
crystal_redock_e32_er3_1.pdbqt
 102 104 0 0 0
SMALL
GASTEIGER

@<TRIPOS>ATOM
      1 C         -34.4860    9.1020   30.0940 C.3     1  UNL1        0.0890
      2 H         -35.4950    9.4040   29.8130 H       1  UNL1        0.0870
      3 N         -34.1160    7.9710   29.2560 N.am    1  UNL1       -0.3460
      4 C         -35.1440    7.3100   28.3730 C.2     1  UNL1        0.2410
      5 O         -36.2630    7.7040   28.3560 O.2     1  UNL1       -0.2710
      6 H         -33.1590    7.6500   29.2870 H       1  UNL1        0.1630
      7 C         -34.7420    6.1450   27.5070 C.3     1  UNL1        0.0920
      8 H         -35.4990    5.3640   27.5830 H       1  UNL1        0.0880
      9 N         -34.6980    6.5690   26.1050 N.am    1  UNL1       -0.3460
     10 C         -35.2280    5.7100   25.0740 C.2     1  UNL1        0.2400
     11 O         -35.6920    4.6730   25.3560 O.2     1  UNL1       -0.2710
     12 H         -34.2990    7.4610   25.8460 H       1  UNL1        0.1630
     13 C         -35.1750    6.1660   23.5830 C.3     1  UNL1        0.0860
     14 H         -35.7820    7.0510   23.3910 H       1  UNL1        0.0860
     15 N         -33.8060    6.5210   23.2470 N.am    1  UNL1       -0.3430
     16 C         -33.3700    7.9140   23.3690 C.2     1  UNL1        0.2730
     17 O         -34.1300    8.7420   23.7350 O.2     1  UNL1       -0.2660
     18 H         -33.1640    5.8070   22.9320 H       1  UNL1        0.1630
     19 C         -31.9260    8.3020   23.0180 C.ar    1  UNL1        0.1540
     20 C         -30.7830    7.4420   22.9830 C.ar    1  UNL1       -0.0170
     21 C         -29.7090    8.2790   22.6080 C.ar    1  UNL1        0.0770
     22 H         -30.7400    6.3730   23.1960 H       1  UNL1        0.0910
     23 O         -30.1890    9.4770   22.4480 O.2     1  UNL1       -0.2180
     24 N         -31.4800    9.5160   22.6820 N.ar    1  UNL1       -0.1230
     25 C         -28.2570    7.8550   22.4250 C.3     1  UNL1       -0.0290
     26 H         -27.6370    8.3520   23.1700 H       1  UNL1        0.0360
     27 H         -28.1760    6.7760   22.5460 H       1  UNL1        0.0360
     28 H         -27.9210    8.1350   21.4260 H       1  UNL1        0.0360
     29 C         -35.6510    5.0460   22.6950 C.3     1  UNL1       -0.0490
     30 H         -36.5870    5.3340   22.2170 H       1  UNL1        0.0300
     31 H         -34.9010    4.8440   21.9310 H       1  UNL1        0.0300
     32 H         -35.8100    4.1490   23.2940 H       1  UNL1        0.0300
     33 C         -33.3340    5.6390   27.9380 C.3     1  UNL1       -0.0330
     34 H         -33.1070    6.0860   28.9060 H       1  UNL1        0.0420
     35 C         -33.3180    4.0900   28.1210 C.3     1  UNL1       -0.0710
     36 H         -32.3640    3.7850   28.5510 H       1  UNL1        0.0280
     37 H         -34.1280    3.7940   28.7880 H       1  UNL1        0.0280
     38 H         -33.4500    3.6080   27.1520 H       1  UNL1        0.0280
     39 C         -32.2400    6.1010   26.9230 C.3     1  UNL1       -0.0710
     40 H         -31.2540    5.8330   27.3050 H       1  UNL1        0.0280
     41 H         -32.4040    5.6110   25.9630 H       1  UNL1        0.0280
     42 H         -32.2980    7.1820   26.7930 H       1  UNL1        0.0280
     43 C         -33.4500   10.2410   29.8750 C.2     1  UNL1        0.2400
     44 O         -32.6370   10.4710   30.7120 O.2     1  UNL1       -0.2710
     45 N         -33.4640   11.0410   28.6170 N.am    1  UNL1       -0.3550
     46 H         -34.1460   10.8520   27.8970 H       1  UNL1        0.1620
     47 C         -32.4720   12.1200   28.4230 C.3     1  UNL1        0.0130
     48 H         -31.4790   11.6880   28.5480 H       1  UNL1        0.0720
     49 C         -32.6990   13.2000   29.4560 C.3     1  UNL1       -0.0380
     50 H         -33.5580   13.7700   29.1010 H       1  UNL1        0.0360
     51 H         -32.7450   12.6850   30.4150 H       1  UNL1        0.0360
     52 C         -31.5230   14.1960   29.5510 C.3     1  UNL1        0.0180
     53 H         -31.0320   13.9830   30.4990 H       1  UNL1        0.0480
     54 H         -30.9720   14.0920   28.6160 H       1  UNL1        0.0480
     55 C         -31.9660   15.6830   29.6230 C.2     1  UNL1        0.2590
     56 O         -31.3730   16.4570   30.3030 O.2     1  UNL1       -0.2650
     57 O         -33.0980   16.1100   28.8750 O.3     1  UNL1       -0.3170
     58 C         -32.8270   16.3440   27.4900 C.3     1  UNL1        0.0520
     59 H         -31.7490   16.2350   27.3780 H       1  UNL1        0.0820
     60 H         -33.5020   15.6860   26.9430 H       1  UNL1        0.0820
     61 C         -33.2080   17.8140   27.1700 C.ar    1  UNL1       -0.0340
     62 C         -34.1440   18.0910   26.1780 C.ar    1  UNL1       -0.0750
     63 C         -34.4850   19.4120   25.8900 C.ar    1  UNL1       -0.0820
     64 H         -34.6090   17.2740   25.6270 H       1  UNL1        0.0840
     65 C         -33.8850   20.4580   26.5960 C.ar    1  UNL1       -0.0830
     66 H         -35.2210   19.6250   25.1130 H       1  UNL1        0.0830
     67 C         -32.9490   20.1770   27.5820 C.ar    1  UNL1       -0.0820
     68 H         -34.1470   21.4930   26.3770 H       1  UNL1        0.0830
     69 C         -32.6060   18.8580   27.8750 C.ar    1  UNL1       -0.0750
     70 H         -32.4810   20.9950   28.1290 H       1  UNL1        0.0830
     71 H         -31.8710   18.6460   28.6510 H       1  UNL1        0.0840
     72 C         -32.6200   12.7120   27.0230 C.3     1  UNL1       -0.0390
     73 H         -33.3820   12.1070   26.5310 H       1  UNL1        0.0360
     74 H         -32.7870   13.7790   27.1760 H       1  UNL1        0.0360
     75 C         -31.2730   12.5620   26.1700 C.3     1  UNL1       -0.0010
     76 C         -30.9970   13.9370   25.3110 C.3     1  UNL1       -0.0350
     77 C         -30.7820   13.6070   24.0150 C.3     1  UNL1        0.0850
     78 H         -31.9030   14.5420   25.2730 H       1  UNL1        0.0360
     79 H         -30.0530   14.3880   25.6190 H       1  UNL1        0.0360
     80 N         -31.2080   12.1690   23.8500 N.4     1  UNL1       -0.0490
     81 H         -31.4510   14.2450   23.4380 H       1  UNL1        0.0750
     82 H         -29.7040   13.6770   23.8720 H       1  UNL1        0.0750
     83 C         -31.3510   11.5730   25.3430 C.3     1  UNL1        0.1930
     84 H         -32.1230   12.1880   23.4230 H       1  UNL1        0.2800
     85 H         -30.4450   11.6960   23.3860 H       1  UNL1        0.2800
     86 H         -30.5850   10.9130   25.7520 H       1  UNL1        0.1290
     87 H         -30.4460   12.1760   26.7670 H       1  UNL1        0.0460
     88 O         -32.5800   10.8570   25.4740 O.3     1  UNL1       -0.3690
     89 H         -32.7470   10.6730   26.4010 H       1  UNL1        0.2120
     90 C         -34.4660    8.6670   31.5510 C.3     1  UNL1       -0.0350
     91 H         -34.6260    7.5890   31.5320 H       1  UNL1        0.0370
     92 H         -33.5420    9.0740   31.9620 H       1  UNL1        0.0370
     93 C         -35.6300    9.2690   32.4010 C.3     1  UNL1       -0.0590
     94 H         -35.7990    8.6050   33.2480 H       1  UNL1        0.0380
     95 C         -35.2770   10.6820   32.9660 C.3     1  UNL1       -0.0730
     96 H         -34.2850   10.9740   32.6210 H       1  UNL1        0.0280
     97 H         -36.0110   11.4080   32.6160 H       1  UNL1        0.0280
     98 H         -35.2880   10.6510   34.0550 H       1  UNL1        0.0280
     99 C         -36.9300    9.3150   31.5930 C.3     1  UNL1       -0.0730
    100 H         -36.8850    8.5780   30.7900 H       1  UNL1        0.0280
    101 H         -37.7730    9.0890   32.2470 H       1  UNL1        0.0280
    102 H         -37.0580   10.3100   31.1670 H       1  UNL1        0.0280
@<TRIPOS>BOND
     1    28    25    1
     2    31    29    1
     3    30    29    1
     4    25    27    1
     5    25    21    1
     6    25    26    1
     7    23    21   ar
     8    23    24   ar
     9    21    20   ar
    10    24    19   ar
    11    29    32    1
    12    29    13    1
    13    18    15    1
    14    20    19   ar
    15    20    22    1
    16    19    16    1
    17    15    16   am
    18    15    13    1
    19    16    17    2
    20    85    80    1
    21    14    13    1
    22    84    80    1
    23    81    77    1
    24    13    10    1
    25    80    77    1
    26    80    83    1
    27    82    77    1
    28    77    76    1
    29    10    11    2
    30    10     9   am
    31    66    63    1
    32    78    76    1
    33    76    79    1
    34    76    75    1
    35    83    88    1
    36    83    86    1
    37    83    75    1
    38    88    89    1
    39    64    62    1
    40    12     9    1
    41    63    62   ar
    42    63    65   ar
    43    41    39    1
    44     9     7    1
    45    75    87    1
    46    75    72    1
    47    62    61   ar
    48    68    65    1
    49    73    72    1
    50    65    67   ar
    51    42    39    1
    52    39    40    1
    53    39    33    1
    54    60    58    1
    55    72    74    1
    56    72    47    1
    57    38    35    1
    58    61    58    1
    59    61    69   ar
    60    59    58    1
    61    58    57    1
    62     7     8    1
    63     7    33    1
    64     7     4    1
    65    67    69   ar
    66    67    70    1
    67    69    71    1
    68    46    45    1
    69    33    35    1
    70    33    34    1
    71    35    36    1
    72    35    37    1
    73     5     4    2
    74     4     3   am
    75    47    48    1
    76    47    45    1
    77    47    49    1
    78    54    52    1
    79    45    43   am
    80    57    55    1
    81    50    49    1
    82     3     6    1
    83     3     1    1
    84    49    52    1
    85    49    51    1
    86    52    55    1
    87    52    53    1
    88    55    56    2
    89     2     1    1
    90    43     1    1
    91    43    44    2
    92     1    90    1
    93   100    99    1
    94   102    99    1
    95    91    90    1
    96    90    92    1
    97    90    93    1
    98    99   101    1
    99    99    93    1
   100    93    95    1
   101    93    94    1
   102    97    95    1
   103    96    95    1
   104    95    98    1
@<TRIPOS>MOLECULE
crystal_redock_e32_er3_1.pdbqt
 102 104 0 0 0
SMALL
GASTEIGER

@<TRIPOS>ATOM
      1 C         -32.8160   13.0240   28.0770 C.3     1  UNL1        0.0890
      2 H         -33.8970   13.1280   27.9770 H       1  UNL1        0.0870
      3 N         -32.4500   11.7210   27.5420 N.am    1  UNL1       -0.3460
      4 C         -33.0990   11.2040   26.2830 C.2     1  UNL1        0.2410
      5 O         -33.9170   11.8540   25.7190 O.2     1  UNL1       -0.2710
      6 H         -31.7540   11.1820   28.0380 H       1  UNL1        0.1630
      7 C         -32.7040    9.8560   25.7410 C.3     1  UNL1        0.0920
      8 H         -31.7480    9.5610   26.1740 H       1  UNL1        0.0880
      9 N         -33.6930    8.8540   26.1520 N.am    1  UNL1       -0.3460
     10 C         -33.6850    8.3460   27.5020 C.2     1  UNL1        0.2400
     11 O         -32.8900    8.7310   28.2690 O.2     1  UNL1       -0.2710
     12 H         -34.3850    8.5120   25.5000 H       1  UNL1        0.1630
     13 C         -34.7380    7.2780   27.9330 C.3     1  UNL1        0.0860
     14 H         -34.8730    6.4940   27.1880 H       1  UNL1        0.0860
     15 N         -34.2770    6.6240   29.1460 N.am    1  UNL1       -0.3430
     16 C         -34.0000    5.1860   29.1300 C.2     1  UNL1        0.2730
     17 O         -34.1530    4.5640   28.1360 O.2     1  UNL1       -0.2660
     18 H         -34.1510    7.1630   29.9910 H       1  UNL1        0.1630
     19 C         -33.5100    4.4820   30.4050 C.ar    1  UNL1        0.1540
     20 C         -32.4220    3.5610   30.5200 C.ar    1  UNL1       -0.0170
     21 C         -32.3870    3.2090   31.8880 C.ar    1  UNL1        0.0770
     22 H         -31.7590    3.2020   29.7320 H       1  UNL1        0.0910
     23 O         -33.3460    3.8590   32.4800 O.2     1  UNL1       -0.2180
     24 N         -34.0160    4.6080   31.6350 N.ar    1  UNL1       -0.1230
     25 C         -31.4060    2.2470   32.5470 C.3     1  UNL1       -0.0290
     26 H         -31.1740    1.4360   31.8570 H       1  UNL1        0.0360
     27 H         -30.4910    2.7800   32.8010 H       1  UNL1        0.0360
     28 H         -31.8520    1.8380   33.4530 H       1  UNL1        0.0360
     29 C         -36.0660    7.9490   28.1800 C.3     1  UNL1       -0.0490
     30 H         -35.9850    9.0110   27.9480 H       1  UNL1        0.0300
     31 H         -36.8250    7.4950   27.5440 H       1  UNL1        0.0300
     32 H         -36.3460    7.8250   29.2260 H       1  UNL1        0.0300
     33 C         -32.6490    9.9180   24.1860 C.3     1  UNL1       -0.0330
     34 H         -33.0880   10.8670   23.8790 H       1  UNL1        0.0420
     35 C         -31.1770    9.8940   23.6690 C.3     1  UNL1       -0.0710
     36 H         -30.5850    9.2190   24.2880 H       1  UNL1        0.0280
     37 H         -31.1610    9.5470   22.6360 H       1  UNL1        0.0280
     38 H         -30.7560   10.8980   23.7220 H       1  UNL1        0.0280
     39 C         -33.4920    8.7660   23.5500 C.3     1  UNL1       -0.0710
     40 H         -33.9200    8.1500   24.3410 H       1  UNL1        0.0280
     41 H         -34.2940    9.1940   22.9470 H       1  UNL1        0.0280
     42 H         -32.8500    8.1530   22.9170 H       1  UNL1        0.0280
     43 C         -32.0460   14.1190   27.2840 C.2     1  UNL1        0.2400
     44 O         -30.9770   14.4790   27.6600 O.2     1  UNL1       -0.2710
     45 N         -32.6360   14.7110   26.0500 N.am    1  UNL1       -0.3550
     46 H         -33.5410   14.4100   25.7180 H       1  UNL1        0.1620
     47 C         -31.8910   15.7500   25.3070 C.3     1  UNL1        0.0130
     48 H         -30.8390   15.6670   25.5780 H       1  UNL1        0.0720
     49 C         -32.4170   17.1140   25.6910 C.3     1  UNL1       -0.0380
     50 H         -31.6710   17.5400   26.3620 H       1  UNL1        0.0360
     51 H         -32.6540   17.6140   24.7510 H       1  UNL1        0.0360
     52 C         -33.7350   17.0440   26.4930 C.3     1  UNL1        0.0180
     53 H         -34.4480   17.6570   25.9420 H       1  UNL1        0.0480
     54 H         -33.9320   15.9830   26.6450 H       1  UNL1        0.0480
     55 C         -33.6390   17.6700   27.9120 C.2     1  UNL1        0.2590
     56 O         -32.8850   17.2280   28.7160 O.2     1  UNL1       -0.2650
     57 O         -34.4740   18.7730   28.2450 O.3     1  UNL1       -0.3170
     58 C         -34.2610   19.9300   27.4320 C.3     1  UNL1        0.0520
     59 H         -34.0570   20.7450   28.1270 H       1  UNL1        0.0820
     60 H         -33.5110   19.6410   26.6970 H       1  UNL1        0.0820
     61 C         -35.5860   20.2410   26.6860 C.ar    1  UNL1       -0.0340
     62 C         -35.7850   19.7670   25.3930 C.ar    1  UNL1       -0.0750
     63 C         -36.9750   20.0460   24.7220 C.ar    1  UNL1       -0.0820
     64 H         -35.0090   19.1760   24.9050 H       1  UNL1        0.0840
     65 C         -37.9670   20.8060   25.3480 C.ar    1  UNL1       -0.0830
     66 H         -37.1290   19.6710   23.7100 H       1  UNL1        0.0830
     67 C         -37.7620   21.2800   26.6370 C.ar    1  UNL1       -0.0820
     68 H         -38.9000   21.0280   24.8310 H       1  UNL1        0.0830
     69 C         -36.5760   21.0010   27.3120 C.ar    1  UNL1       -0.0750
     70 H         -38.5370   21.8750   27.1210 H       1  UNL1        0.0830
     71 H         -36.4230   21.3770   28.3240 H       1  UNL1        0.0840
     72 C         -32.0700   15.5390   23.8050 C.3     1  UNL1       -0.0390
     73 H         -32.4770   14.5330   23.7000 H       1  UNL1        0.0360
     74 H         -32.6440   16.3980   23.4580 H       1  UNL1        0.0360
     75 C         -30.6670   15.5650   23.0310 C.3     1  UNL1       -0.0010
     76 C         -30.8650   16.2150   21.5340 C.3     1  UNL1       -0.0350
     77 C         -30.3230   15.3760   20.6190 C.3     1  UNL1        0.0850
     78 H         -31.9220   16.2320   21.2710 H       1  UNL1        0.0360
     79 H         -30.2640   17.1200   21.4370 H       1  UNL1        0.0360
     80 N         -30.0670   14.0640   21.3200 N.4     1  UNL1       -0.0490
     81 H         -31.0960   15.2310   19.8640 H       1  UNL1        0.0750
     82 H         -29.3690   15.8230   20.3430 H       1  UNL1        0.0750
     83 C         -30.1840   14.3740   22.9000 C.3     1  UNL1        0.1930
     84 H         -30.8220   13.4470   21.0570 H       1  UNL1        0.2800
     85 H         -29.1120   13.8100   21.1110 H       1  UNL1        0.2800
     86 H         -29.2880   14.4550   23.5160 H       1  UNL1        0.1290
     87 H         -29.8640   15.9710   23.6470 H       1  UNL1        0.0460
     88 O         -30.9980   13.3890   23.5370 O.3     1  UNL1       -0.3690
     89 H         -31.5060   12.9150   22.8740 H       1  UNL1        0.2120
     90 C         -32.4250   13.0860   29.5440 C.3     1  UNL1       -0.0350
     91 H         -31.5650   13.7530   29.5860 H       1  UNL1        0.0370
     92 H         -33.3410   13.3430   30.0760 H       1  UNL1        0.0370
     93 C         -31.9480   11.7160   30.1240 C.3     1  UNL1       -0.0590
     94 H         -31.7800   11.0420   29.2840 H       1  UNL1        0.0380
     95 C         -30.6030   11.8440   30.9090 C.3     1  UNL1       -0.0730
     96 H         -29.9680   10.9880   30.6840 H       1  UNL1        0.0280
     97 H         -30.0950   12.7610   30.6110 H       1  UNL1        0.0280
     98 H         -30.8080   11.8740   31.9790 H       1  UNL1        0.0280
     99 C         -33.0330   11.0860   31.0020 C.3     1  UNL1       -0.0730
    100 H         -33.6880   10.4700   30.3850 H       1  UNL1        0.0280
    101 H         -32.5660   10.4660   31.7670 H       1  UNL1        0.0280
    102 H         -33.6160   11.8730   31.4790 H       1  UNL1        0.0280
@<TRIPOS>BOND
     1    81    77    1
     2    82    77    1
     3    77    80    1
     4    77    76    1
     5    84    80    1
     6    85    80    1
     7    78    76    1
     8    80    83    1
     9    79    76    1
    10    76    75    1
    11    37    35    1
    12    89    88    1
    13    83    75    1
    14    83    86    1
    15    83    88    1
    16    42    39    1
    17    41    39    1
    18    75    87    1
    19    75    72    1
    20    74    72    1
    21    39    33    1
    22    39    40    1
    23    35    38    1
    24    35    33    1
    25    35    36    1
    26    73    72    1
    27    66    63    1
    28    72    47    1
    29    34    33    1
    30    33     7    1
    31    63    65   ar
    32    63    62   ar
    33    51    49    1
    34    68    65    1
    35    64    62    1
    36    47    48    1
    37    47    49    1
    38    47    45    1
    39    65    67   ar
    40    62    61   ar
    41    12     9    1
    42    49    50    1
    43    49    52    1
    44    46    45    1
    45     5     4    2
    46     7     9    1
    47     7     8    1
    48     7     4    1
    49    53    52    1
    50    45    43   am
    51     9    10   am
    52     4     3   am
    53    52    54    1
    54    52    55    1
    55    67    70    1
    56    67    69   ar
    57    61    69   ar
    58    61    58    1
    59    60    58    1
    60    14    13    1
    61    43    44    2
    62    43     1    1
    63    69    71    1
    64    58    59    1
    65    58    57    1
    66    10    13    1
    67    10    11    2
    68     3     6    1
    69     3     1    1
    70    31    29    1
    71    55    57    1
    72    55    56    2
    73    13    29    1
    74    13    15    1
    75    30    29    1
    76     2     1    1
    77     1    90    1
    78    17    16    2
    79    29    32    1
    80    16    15   am
    81    16    19    1
    82    15    18    1
    83    94    93    1
    84    90    91    1
    85    90    92    1
    86    90    93    1
    87    22    20    1
    88    93    95    1
    89    93    99    1
    90   100    99    1
    91    19    20   ar
    92    19    24   ar
    93    20    21   ar
    94    97    95    1
    95    96    95    1
    96    95    98    1
    97    99   102    1
    98    99   101    1
    99    24    23   ar
   100    26    25    1
   101    21    23   ar
   102    21    25    1
   103    25    27    1
   104    25    28    1
@<TRIPOS>MOLECULE
crystal_redock_e32_er3_1.pdbqt
 102 104 0 0 0
SMALL
GASTEIGER

@<TRIPOS>ATOM
      1 C         -36.4010   15.7430   26.2660 C.3     1  UNL1        0.0890
      2 H         -37.1040   16.2170   26.9530 H       1  UNL1        0.0870
      3 N         -35.0630   15.9380   26.8050 N.am    1  UNL1       -0.3460
      4 C         -34.7550   17.1380   27.6630 C.2     1  UNL1        0.2410
      5 O         -35.5990   17.9360   27.9050 O.2     1  UNL1       -0.2710
      6 H         -34.3580   15.2480   26.5850 H       1  UNL1        0.1630
      7 C         -33.3660   17.3200   28.2170 C.3     1  UNL1        0.0920
      8 H         -33.4300   17.7930   29.1970 H       1  UNL1        0.0880
      9 N         -32.7390   16.0090   28.4070 N.am    1  UNL1       -0.3460
     10 C         -31.8210   15.8010   29.5000 C.2     1  UNL1        0.2400
     11 O         -31.5750   16.6780   30.2350 O.2     1  UNL1       -0.2710
     12 H         -32.9410   15.2430   27.7810 H       1  UNL1        0.1630
     13 C         -31.1550   14.4040   29.6960 C.3     1  UNL1        0.0860
     14 H         -30.5310   14.3560   30.5880 H       1  UNL1        0.0860
     15 N         -32.1970   13.4040   29.8620 N.am    1  UNL1       -0.3430
     16 C         -31.8990   12.1660   30.5870 C.2     1  UNL1        0.2730
     17 O         -30.8190   11.9830   31.0290 O.2     1  UNL1       -0.2660
     18 H         -33.1170   13.5670   29.4790 H       1  UNL1        0.1630
     19 C         -32.9920   11.1010   30.7720 C.ar    1  UNL1        0.1540
     20 C         -34.0480   11.1050   31.7370 C.ar    1  UNL1       -0.0170
     21 C         -34.7700    9.9160   31.4890 C.ar    1  UNL1        0.0770
     22 H         -34.2590   11.8550   32.4990 H       1  UNL1        0.0910
     23 O         -34.1890    9.3090   30.4960 O.2     1  UNL1       -0.2180
     24 N         -33.1490    9.9810   30.0610 N.ar    1  UNL1       -0.1230
     25 C         -36.0020    9.4350   32.2460 C.3     1  UNL1       -0.0290
     26 H         -36.6460    8.8730   31.5710 H       1  UNL1        0.0360
     27 H         -35.6940    8.7950   33.0710 H       1  UNL1        0.0360
     28 H         -36.5470   10.2940   32.6360 H       1  UNL1        0.0360
     29 C         -30.3100   14.0740   28.4920 C.3     1  UNL1       -0.0490
     30 H         -30.6800   13.1600   28.0280 H       1  UNL1        0.0300
     31 H         -30.3640   14.8920   27.7750 H       1  UNL1        0.0300
     32 H         -29.2750   13.9300   28.8030 H       1  UNL1        0.0300
     33 C         -32.5150   18.1580   27.2170 C.3     1  UNL1       -0.0330
     34 H         -31.4830   17.8180   27.2980 H       1  UNL1        0.0420
     35 C         -32.9730   17.9220   25.7440 C.3     1  UNL1       -0.0710
     36 H         -32.2580   18.3830   25.0630 H       1  UNL1        0.0280
     37 H         -33.0250   16.8520   25.5470 H       1  UNL1        0.0280
     38 H         -33.9560   18.3680   25.5940 H       1  UNL1        0.0280
     39 C         -32.5540   19.6760   27.5860 C.3     1  UNL1       -0.0710
     40 H         -32.8610   20.2540   26.7140 H       1  UNL1        0.0280
     41 H         -33.2640   19.8350   28.3980 H       1  UNL1        0.0280
     42 H         -31.5620   19.9980   27.9050 H       1  UNL1        0.0280
     43 C         -36.6600   14.2160   26.1220 C.2     1  UNL1        0.2400
     44 O         -37.3020   13.8090   25.2080 O.2     1  UNL1       -0.2710
     45 N         -36.1010   13.2600   27.1190 N.am    1  UNL1       -0.3550
     46 H         -35.5500   13.5930   27.8970 H       1  UNL1        0.1620
     47 C         -36.3550   11.8110   26.9670 C.3     1  UNL1        0.0130
     48 H         -36.4250   11.5920   25.9020 H       1  UNL1        0.0720
     49 C         -37.6540   11.4560   27.6540 C.3     1  UNL1       -0.0380
     50 H         -38.1220   12.4080   27.9090 H       1  UNL1        0.0360
     51 H         -38.1610   10.7620   26.9840 H       1  UNL1        0.0360
     52 C         -37.4430   10.7030   28.9860 C.3     1  UNL1        0.0180
     53 H         -37.1710    9.6850   28.7090 H       1  UNL1        0.0480
     54 H         -36.7490   11.3150   29.5640 H       1  UNL1        0.0480
     55 C         -38.7290   10.5830   29.8490 C.2     1  UNL1        0.2590
     56 O         -39.3680   11.5490   30.1170 O.2     1  UNL1       -0.2650
     57 O         -39.1310    9.3050   30.3260 O.3     1  UNL1       -0.3170
     58 C         -39.0510    8.2660   29.3470 C.3     1  UNL1        0.0520
     59 H         -39.9740    7.6950   29.4470 H       1  UNL1        0.0820
     60 H         -38.8170    8.7640   28.4060 H       1  UNL1        0.0820
     61 C         -37.8600    7.3440   29.7230 C.ar    1  UNL1       -0.0340
     62 C         -36.7610    7.2450   28.8750 C.ar    1  UNL1       -0.0750
     63 C         -35.6920    6.4170   29.2120 C.ar    1  UNL1       -0.0820
     64 H         -36.7390    7.8150   27.9460 H       1  UNL1        0.0840
     65 C         -35.7250    5.6840   30.4020 C.ar    1  UNL1       -0.0830
     66 H         -34.8320    6.3420   28.5470 H       1  UNL1        0.0830
     67 C         -36.8250    5.7840   31.2430 C.ar    1  UNL1       -0.0820
     68 H         -34.8920    5.0350   30.6740 H       1  UNL1        0.0830
     69 C         -37.8950    6.6120   30.9110 C.ar    1  UNL1       -0.0750
     70 H         -36.8480    5.2100   32.1700 H       1  UNL1        0.0830
     71 H         -38.7550    6.6860   31.5780 H       1  UNL1        0.0840
     72 C         -35.2120   11.0170   27.5980 C.3     1  UNL1       -0.0390
     73 H         -34.6130   11.7510   28.1380 H       1  UNL1        0.0360
     74 H         -35.6900   10.2000   28.1380 H       1  UNL1        0.0360
     75 C         -34.2640   10.3580   26.4860 C.3     1  UNL1       -0.0010
     76 C         -34.0610    8.7570   26.8020 C.3     1  UNL1       -0.0350
     77 C         -32.7360    8.4770   26.7970 C.3     1  UNL1        0.0850
     78 H         -34.3650    8.5360   27.8240 H       1  UNL1        0.0360
     79 H         -34.4500    8.1610   25.9760 H       1  UNL1        0.0360
     80 N         -32.0050    9.7970   26.8330 N.4     1  UNL1       -0.0490
     81 H         -32.5490    7.9410   27.7280 H       1  UNL1        0.0750
     82 H         -32.5440    7.9910   25.8410 H       1  UNL1        0.0750
     83 C         -33.1030   10.9230   26.4680 C.3     1  UNL1        0.1930
     84 H         -31.7080    9.9340   27.7890 H       1  UNL1        0.2800
     85 H         -31.3190    9.7640   26.0910 H       1  UNL1        0.2800
     86 H         -33.1200   11.3800   25.4790 H       1  UNL1        0.1290
     87 H         -34.5640   10.6300   25.4740 H       1  UNL1        0.0460
     88 O         -33.0180   12.0110   27.3900 O.3     1  UNL1       -0.3690
     89 H         -32.1540   12.4230   27.3200 H       1  UNL1        0.2120
     90 C         -36.4890   16.4080   24.9020 C.3     1  UNL1       -0.0350
     91 H         -35.4980   16.8220   24.7190 H       1  UNL1        0.0370
     92 H         -36.8920   15.6450   24.2350 H       1  UNL1        0.0370
     93 C         -37.4850   17.6090   24.8520 C.3     1  UNL1       -0.0590
     94 H         -38.0420   17.5390   23.9190 H       1  UNL1        0.0380
     95 C         -38.5150   17.5690   26.0260 C.3     1  UNL1       -0.0730
     96 H         -38.9000   16.5560   26.1380 H       1  UNL1        0.0280
     97 H         -38.0250   17.8750   26.9510 H       1  UNL1        0.0280
     98 H         -39.3390   18.2490   25.8100 H       1  UNL1        0.0280
     99 C         -36.7330   18.9430   24.8330 C.3     1  UNL1       -0.0730
    100 H         -35.9000   18.8800   24.1320 H       1  UNL1        0.0280
    101 H         -37.4100   19.7380   24.5220 H       1  UNL1        0.0280
    102 H         -36.3530   19.1600   25.8310 H       1  UNL1        0.0280
@<TRIPOS>BOND
     1    94    93    1
     2   100    99    1
     3    92    90    1
     4   101    99    1
     5    91    90    1
     6    99    93    1
     7    99   102    1
     8    93    90    1
     9    93    95    1
    10    90     1    1
    11    36    35    1
    12    44    43    2
    13    87    75    1
    14    86    83    1
    15    37    35    1
    16    38    35    1
    17    35    33    1
    18    98    95    1
    19    82    77    1
    20    48    47    1
    21    79    76    1
    22    95    96    1
    23    95    97    1
    24    85    80    1
    25    43     1    1
    26    43    45   am
    27     1     3    1
    28     1     2    1
    29    83    75    1
    30    83    80    1
    31    83    88    1
    32    75    76    1
    33    75    72    1
    34     6     3    1
    35    40    39    1
    36    77    76    1
    37    77    80    1
    38    77    81    1
    39    76    78    1
    40     3     4   am
    41    80    84    1
    42    47    45    1
    43    47    72    1
    44    47    49    1
    45    51    49    1
    46    45    46    1
    47    33    34    1
    48    33    39    1
    49    33     7    1
    50    89    88    1
    51    39    42    1
    52    39    41    1
    53    72    74    1
    54    72    73    1
    55    49    50    1
    56    49    52    1
    57     4     5    2
    58     4     7    1
    59    31    29    1
    60    12     9    1
    61    64    62    1
    62    30    29    1
    63     7     9    1
    64     7     8    1
    65    60    58    1
    66     9    10   am
    67    29    32    1
    68    29    13    1
    69    66    63    1
    70    53    52    1
    71    62    63   ar
    72    62    61   ar
    73    52    54    1
    74    52    55    1
    75    63    65   ar
    76    58    59    1
    77    58    61    1
    78    58    57    1
    79    18    15    1
    80    10    13    1
    81    10    11    2
    82    13    15    1
    83    13    14    1
    84    61    69   ar
    85    55    56    2
    86    55    57    1
    87    15    16   am
    88    24    23   ar
    89    24    19   ar
    90    65    68    1
    91    65    67   ar
    92    23    21   ar
    93    16    19    1
    94    16    17    2
    95    19    20   ar
    96    69    67   ar
    97    69    71    1
    98    67    70    1
    99    21    20   ar
   100    21    25    1
   101    26    25    1
   102    20    22    1
   103    25    28    1
   104    25    27    1
@<TRIPOS>MOLECULE
crystal_redock_e32_er3_1.pdbqt
 102 104 0 0 0
SMALL
GASTEIGER

@<TRIPOS>ATOM
      1 C         -34.8420    8.4210   31.2480 C.3     1  UNL1        0.0890
      2 H         -34.4090    8.4790   32.2470 H       1  UNL1        0.0870
      3 N         -33.9720    9.1660   30.3500 N.am    1  UNL1       -0.3460
      4 C         -33.4620   10.5300   30.7420 C.2     1  UNL1        0.2410
      5 O         -33.7680   11.0090   31.7840 O.2     1  UNL1       -0.2710
      6 H         -33.7260    8.7420   29.4670 H       1  UNL1        0.1630
      7 C         -32.5580   11.2850   29.8020 C.3     1  UNL1        0.0920
      8 H         -31.9070   10.5790   29.2880 H       1  UNL1        0.0880
      9 N         -33.3660   11.9550   28.7790 N.am    1  UNL1       -0.3460
     10 C         -33.5600   11.3320   27.4930 C.2     1  UNL1        0.2400
     11 O         -33.0730   10.2930   27.2640 O.2     1  UNL1       -0.2710
     12 H         -33.7920   12.8520   28.9610 H       1  UNL1        0.1630
     13 C         -34.4190   12.0510   26.4060 C.3     1  UNL1        0.0860
     14 H         -35.0760   12.8130   26.8240 H       1  UNL1        0.0860
     15 N         -33.5310   12.7320   25.4780 N.am    1  UNL1       -0.3430
     16 C         -33.0010   14.0530   25.8240 C.2     1  UNL1        0.2730
     17 O         -33.2970   14.5600   26.8500 O.2     1  UNL1       -0.2660
     18 H         -33.2850   12.2920   24.6030 H       1  UNL1        0.1630
     19 C         -32.0600   14.7830   24.8540 C.ar    1  UNL1        0.1540
     20 C         -30.9380   14.2320   24.1580 C.ar    1  UNL1       -0.0170
     21 C         -30.4160   15.3050   23.4020 C.ar    1  UNL1        0.0770
     22 H         -30.5600   13.2100   24.1950 H       1  UNL1        0.0910
     23 O         -31.1590   16.3450   23.6420 O.2     1  UNL1       -0.2180
     24 N         -32.1250   16.0660   24.4860 N.ar    1  UNL1       -0.1230
     25 C         -29.2070   15.2520   22.4770 C.3     1  UNL1       -0.0290
     26 H         -29.3220   14.4270   21.7740 H       1  UNL1        0.0360
     27 H         -29.1300   16.1900   21.9260 H       1  UNL1        0.0360
     28 H         -28.3030   15.1030   23.0670 H       1  UNL1        0.0360
     29 C         -35.2560   11.0360   25.6700 C.3     1  UNL1       -0.0490
     30 H         -36.1730   11.5080   25.3190 H       1  UNL1        0.0300
     31 H         -34.6950   10.6540   24.8170 H       1  UNL1        0.0300
     32 H         -35.5040   10.2140   26.3410 H       1  UNL1        0.0300
     33 C         -31.7520   12.3500   30.6020 C.3     1  UNL1       -0.0330
     34 H         -32.2990   12.5520   31.5230 H       1  UNL1        0.0420
     35 C         -30.3420   11.8140   31.0020 C.3     1  UNL1       -0.0710
     36 H         -29.7910   11.5360   30.1030 H       1  UNL1        0.0280
     37 H         -29.7970   12.5900   31.5370 H       1  UNL1        0.0280
     38 H         -30.4550   10.9400   31.6430 H       1  UNL1        0.0280
     39 C         -31.6440   13.6870   29.8010 C.3     1  UNL1       -0.0710
     40 H         -30.6000   13.8750   29.5470 H       1  UNL1        0.0280
     41 H         -32.2330   13.6120   28.8870 H       1  UNL1        0.0280
     42 H         -32.0240   14.5070   30.4100 H       1  UNL1        0.0280
     43 C         -34.9440    6.9560   30.7360 C.2     1  UNL1        0.2400
     44 O         -35.4260    6.1200   31.4300 O.2     1  UNL1       -0.2710
     45 N         -34.4490    6.5970   29.3770 N.am    1  UNL1       -0.3550
     46 H         -34.0420    7.2990   28.7760 H       1  UNL1        0.1620
     47 C         -34.5550    5.1990   28.9040 C.3     1  UNL1        0.0130
     48 H         -34.8640    4.5820   29.7480 H       1  UNL1        0.0720
     49 C         -33.2070    4.7410   28.3950 C.3     1  UNL1       -0.0380
     50 H         -32.4750    5.3990   28.8640 H       1  UNL1        0.0360
     51 H         -33.1720    3.6670   28.5800 H       1  UNL1        0.0360
     52 C         -33.0470    4.9260   26.8700 C.3     1  UNL1        0.0180
     53 H         -32.4710    4.0680   26.5270 H       1  UNL1        0.0480
     54 H         -34.0530    5.0960   26.4870 H       1  UNL1        0.0480
     55 C         -32.2210    6.1810   26.4750 C.2     1  UNL1        0.2590
     56 O         -32.1690    7.1220   27.2000 O.2     1  UNL1       -0.2650
     57 O         -31.5340    6.2000   25.2290 O.3     1  UNL1       -0.3170
     58 C         -32.3100    6.7200   24.1460 C.3     1  UNL1        0.0520
     59 H         -32.2480    5.9730   23.3540 H       1  UNL1        0.0820
     60 H         -33.2770    6.9810   24.5730 H       1  UNL1        0.0820
     61 C         -31.6260    8.0210   23.6480 C.ar    1  UNL1       -0.0340
     62 C         -32.0580    9.2580   24.1140 C.ar    1  UNL1       -0.0750
     63 C         -31.4440   10.4270   23.6670 C.ar    1  UNL1       -0.0820
     64 H         -32.8790    9.3120   24.8300 H       1  UNL1        0.0840
     65 C         -30.3950   10.3550   22.7470 C.ar    1  UNL1       -0.0830
     66 H         -31.7840   11.3950   24.0360 H       1  UNL1        0.0830
     67 C         -29.9690    9.1190   22.2820 C.ar    1  UNL1       -0.0820
     68 H         -29.9080   11.2640   22.3930 H       1  UNL1        0.0830
     69 C         -30.5780    7.9480   22.7280 C.ar    1  UNL1       -0.0750
     70 H         -29.1510    9.0660   21.5620 H       1  UNL1        0.0830
     71 H         -30.2370    6.9800   22.3580 H       1  UNL1        0.0840
     72 C         -35.5820    5.1110   27.7770 C.3     1  UNL1       -0.0390
     73 H         -35.1310    5.6320   26.9320 H       1  UNL1        0.0360
     74 H         -35.8320    4.0540   27.6950 H       1  UNL1        0.0360
     75 C         -36.9330    5.8890   28.1460 C.3     1  UNL1       -0.0010
     76 C         -37.8380    4.9830   29.1780 C.3     1  UNL1       -0.0350
     77 C         -39.0960    4.8870   28.6870 C.3     1  UNL1        0.0850
     78 H         -37.4850    3.9520   29.1770 H       1  UNL1        0.0360
     79 H         -37.9720    5.5130   30.1210 H       1  UNL1        0.0360
     80 N         -39.0490    5.3670   27.2560 N.4     1  UNL1       -0.0490
     81 H         -39.3330    3.8230   28.6970 H       1  UNL1        0.0750
     82 H         -39.6920    5.5840   29.2750 H       1  UNL1        0.0750
     83 C         -37.6360    6.1300   27.0900 C.3     1  UNL1        0.1930
     84 H         -39.0380    4.5400   26.6770 H       1  UNL1        0.2800
     85 H         -39.7940    6.0430   27.1570 H       1  UNL1        0.2800
     86 H         -37.5950    7.2200   27.0680 H       1  UNL1        0.1290
     87 H         -36.7490    6.9260   28.4270 H       1  UNL1        0.0460
     88 O         -36.9810    5.6990   25.8960 O.3     1  UNL1       -0.3690
     89 H         -37.6380    5.4870   25.2290 H       1  UNL1        0.2120
     90 C         -36.2210    9.0610   31.2470 C.3     1  UNL1       -0.0350
     91 H         -36.8110    8.4760   31.9520 H       1  UNL1        0.0370
     92 H         -36.0480   10.1210   31.4280 H       1  UNL1        0.0370
     93 C         -36.9560    8.9630   29.8720 C.3     1  UNL1       -0.0590
     94 H         -36.4550    8.1950   29.2830 H       1  UNL1        0.0380
     95 C         -38.4520    8.5400   30.0320 C.3     1  UNL1       -0.0730
     96 H         -38.7590    8.6750   31.0680 H       1  UNL1        0.0280
     97 H         -39.0750    9.1570   29.3850 H       1  UNL1        0.0280
     98 H         -38.5650    7.4930   29.7530 H       1  UNL1        0.0280
     99 C         -36.8420   10.2770   29.0960 C.3     1  UNL1       -0.0730
    100 H         -37.8220   10.5590   28.7120 H       1  UNL1        0.0280
    101 H         -36.4730   11.0600   29.7590 H       1  UNL1        0.0280
    102 H         -36.1480   10.1500   28.2650 H       1  UNL1        0.0280
@<TRIPOS>BOND
     1    70    67    1
     2    26    25    1
     3    27    25    1
     4    67    69   ar
     5    67    65   ar
     6    71    69    1
     7    68    65    1
     8    25    28    1
     9    25    21    1
    10    69    61   ar
    11    65    63   ar
    12    59    58    1
    13    21    23   ar
    14    21    20   ar
    15    23    24   ar
    16    61    62   ar
    17    61    58    1
    18    63    66    1
    19    63    62   ar
    20    62    64    1
    21    58    60    1
    22    58    57    1
    23    20    22    1
    24    20    19   ar
    25    24    19   ar
    26    18    15    1
    27    31    29    1
    28    19    16    1
    29    57    55    1
    30    89    88    1
    31    30    29    1
    32    15    16   am
    33    15    13    1
    34    29    32    1
    35    29    13    1
    36    16    17    2
    37    88    83    1
    38    13    14    1
    39    13    10    1
    40    55    52    1
    41    55    56    2
    42    54    52    1
    43    53    52    1
    44    84    80    1
    45    52    49    1
    46    73    72    1
    47    86    83    1
    48    83    80    1
    49    83    75    1
    50    85    80    1
    51    80    77    1
    52    11    10    2
    53    10     9   am
    54    74    72    1
    55    72    75    1
    56    72    47    1
    57    75    87    1
    58    75    76    1
    59   102    99    1
    60    49    51    1
    61    49    50    1
    62    49    47    1
    63    77    81    1
    64    77    76    1
    65    77    82    1
    66   100    99    1
    67    46    45    1
    68     9    12    1
    69     9     7    1
    70    41    39    1
    71    47    45    1
    72    47    48    1
    73    99   101    1
    74    99    93    1
    75    78    76    1
    76    76    79    1
    77    94    93    1
    78     8     7    1
    79    45    43   am
    80    97    95    1
    81     6     3    1
    82    40    39    1
    83    98    95    1
    84    39    42    1
    85    39    33    1
    86     7    33    1
    87     7     4    1
    88    93    95    1
    89    93    90    1
    90    95    96    1
    91    36    35    1
    92     3     4   am
    93     3     1    1
    94    33    35    1
    95    33    34    1
    96    43     1    1
    97    43    44    2
    98     4     5    2
    99    35    37    1
   100    35    38    1
   101    90     1    1
   102    90    92    1
   103    90    91    1
   104     1     2    1
@<TRIPOS>MOLECULE
crystal_redock_e8_er3_1.pdbqt
 102 104 0 0 0
SMALL
GASTEIGER

@<TRIPOS>ATOM
      1 C         -32.9560   10.2740   26.3790 C.3     1  UNL1        0.0890
      2 H         -33.7580   10.6110   25.7220 H       1  UNL1        0.0870
      3 N         -32.2610    9.1890   25.7020 N.am    1  UNL1       -0.3460
      4 C         -33.0230    8.2250   24.8280 C.2     1  UNL1        0.2410
      5 O         -34.1960    8.3410   24.6870 O.2     1  UNL1       -0.2710
      6 H         -31.2640    9.1060   25.8370 H       1  UNL1        0.1630
      7 C         -32.2880    7.1110   24.1310 C.3     1  UNL1        0.0920
      8 H         -32.8450    6.8140   23.2430 H       1  UNL1        0.0880
      9 N         -30.9800    7.5960   23.6790 N.am    1  UNL1       -0.3460
     10 C         -30.8030    8.0250   22.3140 C.2     1  UNL1        0.2400
     11 O         -31.7020    7.9850   21.5650 O.2     1  UNL1       -0.2710
     12 H         -30.1950    7.6340   24.3130 H       1  UNL1        0.1630
     13 C         -29.4080    8.5370   21.8380 C.3     1  UNL1        0.0860
     14 H         -29.1160    8.1280   20.8710 H       1  UNL1        0.0860
     15 N         -29.4660    9.9810   21.6780 N.am    1  UNL1       -0.3430
     16 C         -29.9210   10.8120   22.7950 C.2     1  UNL1        0.2730
     17 O         -30.2410   10.3100   23.8160 O.2     1  UNL1       -0.2660
     18 H         -29.1930   10.4020   20.8020 H       1  UNL1        0.1630
     19 C         -29.9850   12.3400   22.6410 C.ar    1  UNL1        0.1540
     20 C         -30.7250   13.2600   23.4490 C.ar    1  UNL1       -0.0170
     21 C         -30.4490   14.5310   22.8990 C.ar    1  UNL1        0.0770
     22 H         -31.3650   13.0390   24.3040 H       1  UNL1        0.0910
     23 O         -29.6420   14.3510   21.8940 O.2     1  UNL1       -0.2180
     24 N         -29.3570   13.0810   21.7240 N.ar    1  UNL1       -0.1230
     25 C         -30.9930   15.8650   23.3920 C.3     1  UNL1       -0.0290
     26 H         -30.2830   16.3140   24.0850 H       1  UNL1        0.0360
     27 H         -31.1440   16.5320   22.5430 H       1  UNL1        0.0360
     28 H         -31.9440   15.7040   23.9000 H       1  UNL1        0.0360
     29 C         -28.3610    8.1710   22.8580 C.3     1  UNL1       -0.0490
     30 H         -28.1820    9.0220   23.5170 H       1  UNL1        0.0300
     31 H         -28.7080    7.3230   23.4470 H       1  UNL1        0.0300
     32 H         -27.4340    7.9060   22.3490 H       1  UNL1        0.0300
     33 C         -32.0850    5.9250   25.1190 C.3     1  UNL1       -0.0330
     34 H         -31.0910    5.5150   24.9410 H       1  UNL1        0.0420
     35 C         -32.1340    6.4070   26.6030 C.3     1  UNL1       -0.0710
     36 H         -31.2360    6.9820   26.8280 H       1  UNL1        0.0280
     37 H         -33.0130    7.0330   26.7520 H       1  UNL1        0.0280
     38 H         -32.1870    5.5420   27.2640 H       1  UNL1        0.0280
     39 C         -33.1290    4.7930   24.8560 C.3     1  UNL1       -0.0710
     40 H         -33.1390    4.1040   25.7010 H       1  UNL1        0.0280
     41 H         -34.1190    5.2330   24.7340 H       1  UNL1        0.0280
     42 H         -32.8580    4.2530   23.9490 H       1  UNL1        0.0280
     43 C         -31.9320   11.4050   26.6810 C.2     1  UNL1        0.2400
     44 O         -30.7830   11.2490   26.4180 O.2     1  UNL1       -0.2710
     45 N         -32.3840   12.6870   27.2920 N.am    1  UNL1       -0.3550
     46 H         -33.3570   12.8340   27.5160 H       1  UNL1        0.1620
     47 C         -31.3980   13.7540   27.5730 C.3     1  UNL1        0.0130
     48 H         -30.5270   13.5790   26.9410 H       1  UNL1        0.0720
     49 C         -31.0000   13.6960   29.0300 C.3     1  UNL1       -0.0380
     50 H         -30.1510   13.0140   29.0770 H       1  UNL1        0.0360
     51 H         -30.8850   14.7330   29.3450 H       1  UNL1        0.0360
     52 C         -32.0990   13.0860   29.9280 C.3     1  UNL1        0.0180
     53 H         -32.3000   13.8320   30.6950 H       1  UNL1        0.0480
     54 H         -32.8930   12.7730   29.2500 H       1  UNL1        0.0480
     55 C         -31.6510   11.8050   30.6840 C.2     1  UNL1        0.2590
     56 O         -30.5260   11.6810   31.0470 O.2     1  UNL1       -0.2650
     57 O         -32.5980   10.7720   30.9280 O.3     1  UNL1       -0.3170
     58 C         -33.8460   11.2380   31.4490 C.3     1  UNL1        0.0520
     59 H         -33.6530   11.4940   32.4910 H       1  UNL1        0.0820
     60 H         -34.1880   12.0050   30.7540 H       1  UNL1        0.0820
     61 C         -34.8520   10.0570   31.4110 C.ar    1  UNL1       -0.0340
     62 C         -34.3910    8.7540   31.2510 C.ar    1  UNL1       -0.0750
     63 C         -35.2950    7.6940   31.2170 C.ar    1  UNL1       -0.0820
     64 H         -33.3220    8.5640   31.1530 H       1  UNL1        0.0840
     65 C         -36.6650    7.9400   31.3400 C.ar    1  UNL1       -0.0830
     66 H         -34.9310    6.6730   31.0930 H       1  UNL1        0.0830
     67 C         -37.1210    9.2420   31.4950 C.ar    1  UNL1       -0.0820
     68 H         -37.3790    7.1160   31.3140 H       1  UNL1        0.0830
     69 C         -36.2210   10.3050   31.5320 C.ar    1  UNL1       -0.0750
     70 H         -38.1900    9.4310   31.5880 H       1  UNL1        0.0830
     71 H         -36.5860   11.3250   31.6560 H       1  UNL1        0.0840
     72 C         -32.0110   15.1180   27.2650 C.3     1  UNL1       -0.0390
     73 H         -31.7880   15.7390   28.1340 H       1  UNL1        0.0360
     74 H         -31.6260   15.3950   26.2840 H       1  UNL1        0.0360
     75 C         -33.6060   15.0370   27.1410 C.3     1  UNL1       -0.0010
     76 C         -34.0720   15.4600   25.6220 C.3     1  UNL1       -0.0350
     77 C         -35.0340   16.4100   25.7090 C.3     1  UNL1        0.0850
     78 H         -33.2560   15.9690   25.1090 H       1  UNL1        0.0360
     79 H         -34.5820   14.6250   25.1400 H       1  UNL1        0.0360
     80 N         -35.0340   16.9080   27.1340 N.4     1  UNL1       -0.0490
     81 H         -34.7070   17.2160   25.0510 H       1  UNL1        0.0750
     82 H         -35.9720   15.8930   25.5130 H       1  UNL1        0.0750
     83 C         -34.1820   15.8300   27.9820 C.3     1  UNL1        0.1930
     84 H         -34.5320   17.7840   27.1320 H       1  UNL1        0.2800
     85 H         -35.9940   16.8770   27.4470 H       1  UNL1        0.2800
     86 H         -34.6860   15.1070   28.6230 H       1  UNL1        0.1290
     87 H         -34.0040   14.1030   27.5390 H       1  UNL1        0.0460
     88 O         -33.2410   16.4980   28.8240 O.3     1  UNL1       -0.3690
     89 H         -33.3410   16.1860   29.7260 H       1  UNL1        0.2120
     90 C         -33.5410    9.7530   27.6810 C.3     1  UNL1       -0.0350
     91 H         -33.3850    8.6750   27.6570 H       1  UNL1        0.0370
     92 H         -33.0800   10.3530   28.4660 H       1  UNL1        0.0370
     93 C         -35.0830    9.9710   27.8070 C.3     1  UNL1       -0.0590
     94 H         -35.2800   10.3670   28.8030 H       1  UNL1        0.0380
     95 C         -35.6180   11.0070   26.7670 C.3     1  UNL1       -0.0730
     96 H         -35.1190   11.9630   26.9170 H       1  UNL1        0.0280
     97 H         -35.4170   10.6460   25.7590 H       1  UNL1        0.0280
     98 H         -36.6920   11.1330   26.9010 H       1  UNL1        0.0280
     99 C         -35.8340    8.6430   27.6890 C.3     1  UNL1       -0.0730
    100 H         -36.9080    8.8310   27.6920 H       1  UNL1        0.0280
    101 H         -35.5550    8.1480   26.7590 H       1  UNL1        0.0280
    102 H         -35.5750    8.0020   28.5320 H       1  UNL1        0.0280
@<TRIPOS>BOND
     1    18    15    1
     2    14    13    1
     3    11    10    2
     4    15    13    1
     5    15    16   am
     6    24    23   ar
     7    24    19   ar
     8    13    10    1
     9    13    29    1
    10    23    21   ar
    11    10     9   am
    12    32    29    1
    13    27    25    1
    14    19    16    1
    15    19    20   ar
    16    16    17    2
    17    29    31    1
    18    29    30    1
    19    21    25    1
    20    21    20   ar
    21     8     7    1
    22    25    28    1
    23    25    26    1
    24    20    22    1
    25     9     7    1
    26     9    12    1
    27    42    39    1
    28     7     4    1
    29     7    33    1
    30     5     4    2
    31    41    39    1
    32     4     3   am
    33    39    33    1
    34    39    40    1
    35    34    33    1
    36    81    77    1
    37    78    76    1
    38    33    35    1
    39    79    76    1
    40    82    77    1
    41    76    77    1
    42    76    75    1
    43     3     6    1
    44     3     1    1
    45    77    80    1
    46     2     1    1
    47    97    95    1
    48    74    72    1
    49     1    43    1
    50     1    90    1
    51    44    43    2
    52    35    37    1
    53    35    36    1
    54    35    38    1
    55    43    45   am
    56   101    99    1
    57    95    98    1
    58    95    96    1
    59    95    93    1
    60    48    47    1
    61    84    80    1
    62    80    85    1
    63    80    83    1
    64    75    72    1
    65    75    87    1
    66    75    83    1
    67    72    47    1
    68    72    73    1
    69    45    46    1
    70    45    47    1
    71    47    49    1
    72    91    90    1
    73    90    93    1
    74    90    92    1
    75    99   100    1
    76    99    93    1
    77    99   102    1
    78    93    94    1
    79    83    86    1
    80    83    88    1
    81    88    89    1
    82    49    50    1
    83    49    51    1
    84    49    52    1
    85    54    52    1
    86    52    55    1
    87    52    53    1
    88    55    57    1
    89    55    56    2
    90    60    58    1
    91    57    58    1
    92    66    63    1
    93    64    62    1
    94    63    62   ar
    95    63    65   ar
    96    62    61   ar
    97    68    65    1
    98    65    67   ar
    99    61    58    1
   100    61    69   ar
   101    58    59    1
   102    67    69   ar
   103    67    70    1
   104    69    71    1
@<TRIPOS>MOLECULE
crystal_redock_e8_er3_1.pdbqt
 102 104 0 0 0
SMALL
GASTEIGER

@<TRIPOS>ATOM
      1 C         -37.6080   13.8880   25.1350 C.3     1  UNL1        0.0890
      2 H         -38.6220   13.9540   25.5290 H       1  UNL1        0.0870
      3 N         -37.0360   15.2260   25.1690 N.am    1  UNL1       -0.3460
      4 C         -37.4470   16.2020   26.2420 C.2     1  UNL1        0.2410
      5 O         -38.2420   15.8900   27.0660 O.2     1  UNL1       -0.2710
      6 H         -36.3630   15.4730   24.4570 H       1  UNL1        0.1630
      7 C         -36.8410   17.5810   26.2650 C.3     1  UNL1        0.0920
      8 H         -37.2650   18.1450   27.0950 H       1  UNL1        0.0880
      9 N         -35.3980   17.4770   26.5040 N.am    1  UNL1       -0.3460
     10 C         -34.8220   18.0500   27.6960 C.2     1  UNL1        0.2400
     11 O         -35.5050   18.6000   28.4720 O.2     1  UNL1       -0.2710
     12 H         -34.7960   17.0080   25.8430 H       1  UNL1        0.1630
     13 C         -33.2860   17.9390   27.9430 C.3     1  UNL1        0.0860
     14 H         -32.9720   18.4170   28.8710 H       1  UNL1        0.0860
     15 N         -32.9270   16.5350   28.0570 N.am    1  UNL1       -0.3430
     16 C         -32.1040   16.0900   29.1830 C.2     1  UNL1        0.2730
     17 O         -31.7340   16.8690   29.9910 O.2     1  UNL1       -0.2660
     18 H         -33.2450   15.8770   27.3600 H       1  UNL1        0.1630
     19 C         -31.7180   14.6080   29.3160 C.ar    1  UNL1        0.1540
     20 C         -32.5120   13.5550   29.8710 C.ar    1  UNL1       -0.0170
     21 C         -31.7100   12.3970   29.7590 C.ar    1  UNL1        0.0770
     22 H         -33.5160   13.6200   30.2900 H       1  UNL1        0.0910
     23 O         -30.5890   12.7550   29.2020 O.2     1  UNL1       -0.2180
     24 N         -30.5710   14.0410   28.9350 N.ar    1  UNL1       -0.1230
     25 C         -32.0870   10.9910   30.2050 C.3     1  UNL1       -0.0290
     26 H         -33.1700   10.9220   30.3100 H       1  UNL1        0.0360
     27 H         -31.7480   10.2710   29.4620 H       1  UNL1        0.0360
     28 H         -31.6150   10.7750   31.1630 H       1  UNL1        0.0360
     29 C         -32.5420   18.5710   26.7950 C.3     1  UNL1       -0.0490
     30 H         -32.1100   19.5190   27.1190 H       1  UNL1        0.0300
     31 H         -31.7460   17.9040   26.4660 H       1  UNL1        0.0300
     32 H         -33.2310   18.7500   25.9690 H       1  UNL1        0.0300
     33 C         -37.0880   18.2790   24.8960 C.3     1  UNL1       -0.0330
     34 H         -36.5980   17.6800   24.1280 H       1  UNL1        0.0420
     35 C         -38.6090   18.3320   24.5510 C.3     1  UNL1       -0.0710
     36 H         -39.0310   19.2700   24.9120 H       1  UNL1        0.0280
     37 H         -38.7390   18.2670   23.4710 H       1  UNL1        0.0280
     38 H         -39.1190   17.4960   25.0290 H       1  UNL1        0.0280
     39 C         -36.4520   19.7070   24.8730 C.3     1  UNL1       -0.0710
     40 H         -36.3200   20.0290   23.8400 H       1  UNL1        0.0280
     41 H         -37.1090   20.4060   25.3910 H       1  UNL1        0.0280
     42 H         -35.4840   19.6810   25.3730 H       1  UNL1        0.0280
     43 C         -36.7090   12.9430   25.9820 C.2     1  UNL1        0.2400
     44 O         -36.9190   12.8120   27.1450 O.2     1  UNL1       -0.2710
     45 N         -35.5890   12.1940   25.3430 N.am    1  UNL1       -0.3550
     46 H         -35.4040   12.2940   24.3560 H       1  UNL1        0.1620
     47 C         -34.7440   11.2990   26.1630 C.3     1  UNL1        0.0130
     48 H         -35.3790   10.8400   26.9200 H       1  UNL1        0.0720
     49 C         -33.6530   12.1100   26.8250 C.3     1  UNL1       -0.0380
     50 H         -34.1660   12.8860   27.3920 H       1  UNL1        0.0360
     51 H         -33.0200   11.3860   27.3390 H       1  UNL1        0.0360
     52 C         -32.7470   12.8380   25.8080 C.3     1  UNL1        0.0180
     53 H         -31.7280   12.6970   26.1670 H       1  UNL1        0.0480
     54 H         -33.0370   12.4570   24.8290 H       1  UNL1        0.0480
     55 C         -32.9730   14.3740   25.7560 C.2     1  UNL1        0.2590
     56 O         -34.0670   14.8260   25.8570 O.2     1  UNL1       -0.2650
     57 O         -31.8570   15.2370   25.5720 O.3     1  UNL1       -0.3170
     58 C         -30.6770   14.5720   25.1100 C.3     1  UNL1        0.0520
     59 H         -29.8450   15.0680   25.6100 H       1  UNL1        0.0820
     60 H         -30.8550   13.5100   25.2720 H       1  UNL1        0.0820
     61 C         -30.5530   14.8220   23.5840 C.ar    1  UNL1       -0.0340
     62 C         -29.8750   13.9100   22.7820 C.ar    1  UNL1       -0.0750
     63 C         -29.7630   14.1350   21.4100 C.ar    1  UNL1       -0.0820
     64 H         -29.4300   13.0200   23.2270 H       1  UNL1        0.0840
     65 C         -30.3310   15.2780   20.8420 C.ar    1  UNL1       -0.0830
     66 H         -29.2320   13.4170   20.7840 H       1  UNL1        0.0830
     67 C         -31.0040   16.1870   21.6470 C.ar    1  UNL1       -0.0820
     68 H         -30.2490   15.4610   19.7700 H       1  UNL1        0.0830
     69 C         -31.1200   15.9660   23.0170 C.ar    1  UNL1       -0.0750
     70 H         -31.4440   17.0790   21.2000 H       1  UNL1        0.0830
     71 H         -31.6510   16.6830   23.6430 H       1  UNL1        0.0840
     72 C         -34.1160   10.2260   25.2750 C.3     1  UNL1       -0.0390
     73 H         -34.7630   10.1580   24.4000 H       1  UNL1        0.0360
     74 H         -33.0730   10.5200   25.1590 H       1  UNL1        0.0360
     75 C         -34.1270    8.7900   25.9840 C.3     1  UNL1       -0.0010
     76 C         -34.9330    8.8770   27.4140 C.3     1  UNL1       -0.0350
     77 C         -34.1550    8.3450   28.3870 C.3     1  UNL1        0.0850
     78 H         -35.0450    9.9180   27.7170 H       1  UNL1        0.0360
     79 H         -35.8020    8.2190   27.3940 H       1  UNL1        0.0360
     80 N         -32.7660    8.2020   27.8130 N.4     1  UNL1       -0.0490
     81 H         -34.1360    9.0890   29.1840 H       1  UNL1        0.0750
     82 H         -34.5640    7.3540   28.5770 H       1  UNL1        0.0750
     83 C         -32.9260    8.3740   26.2160 C.3     1  UNL1        0.1930
     84 H         -32.2290    8.9800   28.1680 H       1  UNL1        0.2800
     85 H         -32.4730    7.2550   28.0070 H       1  UNL1        0.2800
     86 H         -32.8870    7.5050   25.5590 H       1  UNL1        0.1290
     87 H         -34.4170    7.9930   25.2990 H       1  UNL1        0.0460
     88 O         -31.9370    9.2760   25.7150 O.3     1  UNL1       -0.3690
     89 H         -31.3960    9.5930   26.4420 H       1  UNL1        0.2120
     90 C         -37.6460   13.4010   23.6950 C.3     1  UNL1       -0.0350
     91 H         -36.6040   13.2610   23.4100 H       1  UNL1        0.0370
     92 H         -38.3300   12.5520   23.6950 H       1  UNL1        0.0370
     93 C         -38.2390   14.4450   22.6960 C.3     1  UNL1       -0.0590
     94 H         -37.8160   15.4180   22.9450 H       1  UNL1        0.0380
     95 C         -37.8590   14.1250   21.2150 C.3     1  UNL1       -0.0730
     96 H         -38.1590   14.9550   20.5750 H       1  UNL1        0.0280
     97 H         -36.7820   13.9800   21.1390 H       1  UNL1        0.0280
     98 H         -38.3710   13.2170   20.8960 H       1  UNL1        0.0280
     99 C         -39.7570   14.5550   22.8570 C.3     1  UNL1       -0.0730
    100 H         -40.0730   13.9810   23.7290 H       1  UNL1        0.0280
    101 H         -40.0340   15.6010   22.9910 H       1  UNL1        0.0280
    102 H         -40.2470   14.1620   21.9660 H       1  UNL1        0.0280
@<TRIPOS>BOND
     1    68    65    1
     2    96    95    1
     3    66    63    1
     4    65    63   ar
     5    65    67   ar
     6    98    95    1
     7    97    95    1
     8    70    67    1
     9    95    93    1
    10    63    62   ar
    11    67    69   ar
    12   102    99    1
    13    93    99    1
    14    93    94    1
    15    93    90    1
    16    62    64    1
    17    62    61   ar
    18    99   101    1
    19    99   100    1
    20    69    61   ar
    21    69    71    1
    22    91    90    1
    23    37    35    1
    24    61    58    1
    25    90    92    1
    26    90     1    1
    27    40    39    1
    28    34    33    1
    29    46    45    1
    30    73    72    1
    31     6     3    1
    32    35    33    1
    33    35    36    1
    34    35    38    1
    35    54    52    1
    36    39    33    1
    37    39    42    1
    38    39    41    1
    39    33     7    1
    40    58    60    1
    41    58    57    1
    42    58    59    1
    43     1     3    1
    44     1     2    1
    45     1    43    1
    46    74    72    1
    47     3     4   am
    48    72    75    1
    49    72    47    1
    50    87    75    1
    51    45    43   am
    52    45    47    1
    53    86    83    1
    54    57    55    1
    55    88    83    1
    56    88    89    1
    57    55    52    1
    58    55    56    2
    59    52    53    1
    60    52    49    1
    61    12     9    1
    62    32    29    1
    63    43    44    2
    64    75    83    1
    65    75    76    1
    66    47    49    1
    67    47    48    1
    68    83    80    1
    69     4     7    1
    70     4     5    2
    71     7     9    1
    72     7     8    1
    73    31    29    1
    74     9    10   am
    75    29    30    1
    76    29    13    1
    77    49    51    1
    78    49    50    1
    79    18    15    1
    80    79    76    1
    81    76    78    1
    82    76    77    1
    83    10    13    1
    84    10    11    2
    85    80    85    1
    86    80    84    1
    87    80    77    1
    88    13    15    1
    89    13    14    1
    90    15    16   am
    91    77    82    1
    92    77    81    1
    93    24    23   ar
    94    24    19   ar
    95    16    19    1
    96    16    17    2
    97    23    21   ar
    98    19    20   ar
    99    27    25    1
   100    21    20   ar
   101    21    25    1
   102    20    22    1
   103    25    26    1
   104    25    28    1
@<TRIPOS>MOLECULE
crystal_redock_e8_er3_1.pdbqt
 102 104 0 0 0
SMALL
GASTEIGER

@<TRIPOS>ATOM
      1 C         -36.5620   16.1160   26.5210 C.3     1  UNL1        0.0890
      2 H         -37.1120   16.6620   27.2870 H       1  UNL1        0.0870
      3 N         -35.1430   16.2950   26.7900 N.am    1  UNL1       -0.3460
      4 C         -34.6870   17.2010   27.9060 C.2     1  UNL1        0.2410
      5 O         -35.4820   17.7770   28.5730 O.2     1  UNL1       -0.2710
      6 H         -34.4820   15.7970   26.2090 H       1  UNL1        0.1630
      7 C         -33.2150   17.3700   28.1740 C.3     1  UNL1        0.0920
      8 H         -33.0810   17.9330   29.0980 H       1  UNL1        0.0880
      9 N         -32.5990   16.0550   28.3740 N.am    1  UNL1       -0.3460
     10 C         -31.7320   15.8300   29.5050 C.2     1  UNL1        0.2400
     11 O         -31.5180   16.6960   30.2620 O.2     1  UNL1       -0.2710
     12 H         -32.7740   15.2980   27.7290 H       1  UNL1        0.1630
     13 C         -31.0780   14.4280   29.7110 C.3     1  UNL1        0.0860
     14 H         -30.4500   14.3830   30.6010 H       1  UNL1        0.0860
     15 N         -32.1280   13.4400   29.8930 N.am    1  UNL1       -0.3430
     16 C         -31.8340   12.1990   30.6130 C.2     1  UNL1        0.2730
     17 O         -30.7490   12.0040   31.0400 O.2     1  UNL1       -0.2660
     18 H         -33.0520   13.6130   29.5220 H       1  UNL1        0.1630
     19 C         -32.9350   11.1460   30.8130 C.ar    1  UNL1        0.1540
     20 C         -33.3080   10.1020   29.9080 C.ar    1  UNL1       -0.0170
     21 C         -34.3600    9.4170   30.5570 C.ar    1  UNL1        0.0770
     22 H         -32.8810    9.8760   28.9310 H       1  UNL1        0.0910
     23 O         -34.5580   10.0060   31.7000 O.2     1  UNL1       -0.2180
     24 N         -33.7390   11.0180   31.8720 N.ar    1  UNL1       -0.1230
     25 C         -35.1190    8.2130   30.0180 C.3     1  UNL1       -0.0290
     26 H         -35.9180    7.9470   30.7100 H       1  UNL1        0.0360
     27 H         -35.5480    8.4590   29.0460 H       1  UNL1        0.0360
     28 H         -34.4360    7.3710   29.9100 H       1  UNL1        0.0360
     29 C         -30.2420   14.0790   28.5060 C.3     1  UNL1       -0.0490
     30 H         -30.5060   13.0800   28.1580 H       1  UNL1        0.0300
     31 H         -30.4290   14.8010   27.7120 H       1  UNL1        0.0300
     32 H         -29.1860   14.1020   28.7770 H       1  UNL1        0.0300
     33 C         -32.5440   18.0730   26.9570 C.3     1  UNL1       -0.0330
     34 H         -31.5120   18.2900   27.2310 H       1  UNL1        0.0420
     35 C         -32.5120   17.1390   25.7080 C.3     1  UNL1       -0.0710
     36 H         -32.5570   17.7430   24.8010 H       1  UNL1        0.0280
     37 H         -31.5910   16.5580   25.7120 H       1  UNL1        0.0280
     38 H         -33.3680   16.4650   25.7360 H       1  UNL1        0.0280
     39 C         -33.2530   19.4280   26.6340 C.3     1  UNL1       -0.0710
     40 H         -33.1570   19.6430   25.5700 H       1  UNL1        0.0280
     41 H         -34.3080   19.3580   26.8980 H       1  UNL1        0.0280
     42 H         -32.7880   20.2280   27.2110 H       1  UNL1        0.0280
     43 C         -36.8810   14.5930   26.5420 C.2     1  UNL1        0.2400
     44 O         -37.9750   14.2230   26.8230 O.2     1  UNL1       -0.2710
     45 N         -35.8250   13.5970   26.2040 N.am    1  UNL1       -0.3550
     46 H         -34.8940   13.9000   25.9590 H       1  UNL1        0.1620
     47 C         -36.1450   12.1530   26.2270 C.3     1  UNL1        0.0130
     48 H         -37.0790   12.0260   26.7730 H       1  UNL1        0.0720
     49 C         -35.0320   11.4060   26.9250 C.3     1  UNL1       -0.0380
     50 H         -34.7360   12.0350   27.7650 H       1  UNL1        0.0360
     51 H         -35.4190   10.4030   27.1050 H       1  UNL1        0.0360
     52 C         -33.7770   11.2380   26.0420 C.3     1  UNL1        0.0180
     53 H         -33.3220   10.2970   26.3510 H       1  UNL1        0.0480
     54 H         -34.1190   11.3660   25.0140 H       1  UNL1        0.0480
     55 C         -32.6970   12.3310   26.2730 C.2     1  UNL1        0.2590
     56 O         -32.9610   13.3220   26.8720 O.2     1  UNL1       -0.2650
     57 O         -31.3890   12.1400   25.7470 O.3     1  UNL1       -0.3170
     58 C         -31.3610   11.8320   24.3510 C.3     1  UNL1        0.0520
     59 H         -30.7470   10.9360   24.2580 H       1  UNL1        0.0820
     60 H         -32.4030   11.8140   24.0320 H       1  UNL1        0.0820
     61 C         -30.6440   12.9970   23.6170 C.ar    1  UNL1       -0.0340
     62 C         -29.8610   12.7380   22.4970 C.ar    1  UNL1       -0.0750
     63 C         -29.2170   13.7840   21.8380 C.ar    1  UNL1       -0.0820
     64 H         -29.7520   11.7150   22.1350 H       1  UNL1        0.0840
     65 C         -29.3550   15.0940   22.3060 C.ar    1  UNL1       -0.0830
     66 H         -28.6050   13.5780   20.9590 H       1  UNL1        0.0830
     67 C         -30.1350   15.3470   23.4260 C.ar    1  UNL1       -0.0820
     68 H         -28.8560   15.9170   21.7960 H       1  UNL1        0.0830
     69 C         -30.7830   14.3050   24.0860 C.ar    1  UNL1       -0.0750
     70 H         -30.2390   16.3700   23.7900 H       1  UNL1        0.0830
     71 H         -31.3940   14.5120   24.9650 H       1  UNL1        0.0840
     72 C         -36.2910   11.6340   24.7980 C.3     1  UNL1       -0.0390
     73 H         -35.7260   12.3300   24.1770 H       1  UNL1        0.0360
     74 H         -36.0020   10.5830   24.8410 H       1  UNL1        0.0360
     75 C         -37.8130   11.6850   24.3010 C.3     1  UNL1       -0.0010
     76 C         -38.2370   10.2370   23.6470 C.3     1  UNL1       -0.0350
     77 C         -38.7810   10.4530   22.4250 C.3     1  UNL1        0.0850
     78 H         -37.3460    9.6490   23.4300 H       1  UNL1        0.0360
     79 H         -39.0560    9.7960   24.2160 H       1  UNL1        0.0360
     80 N         -38.4670   11.8800   22.0480 N.4     1  UNL1       -0.0490
     81 H         -38.2510    9.7810   21.7490 H       1  UNL1        0.0750
     82 H         -39.8560   10.3500   22.5620 H       1  UNL1        0.0750
     83 C         -37.9820   12.6030   23.4080 C.3     1  UNL1        0.1930
     84 H         -37.6860   11.8430   21.4080 H       1  UNL1        0.2800
     85 H         -39.3400   12.2970   21.7560 H       1  UNL1        0.2800
     86 H         -38.6480   13.2790   23.9430 H       1  UNL1        0.1290
     87 H         -38.4800   12.1030   25.0550 H       1  UNL1        0.0460
     88 O         -36.7880   13.3500   23.1710 O.3     1  UNL1       -0.3690
     89 H         -36.1370   13.1350   23.8430 H       1  UNL1        0.2120
     90 C         -36.8830   16.6860   25.1490 C.3     1  UNL1       -0.0350
     91 H         -35.9190   16.8130   24.6570 H       1  UNL1        0.0370
     92 H         -37.6280   16.0140   24.7240 H       1  UNL1        0.0370
     93 C         -37.5420   18.1010   25.1980 C.3     1  UNL1       -0.0590
     94 H         -38.2620   18.1590   24.3820 H       1  UNL1        0.0380
     95 C         -38.3160   18.3450   26.5340 C.3     1  UNL1       -0.0730
     96 H         -39.2910   18.7790   26.3150 H       1  UNL1        0.0280
     97 H         -38.4490   17.3980   27.0550 H       1  UNL1        0.0280
     98 H         -37.7470   19.0290   27.1630 H       1  UNL1        0.0280
     99 C         -36.5010   19.1980   24.9640 C.3     1  UNL1       -0.0730
    100 H         -36.0950   19.5260   25.9220 H       1  UNL1        0.0280
    101 H         -35.6940   18.8080   24.3430 H       1  UNL1        0.0280
    102 H         -36.9690   20.0430   24.4600 H       1  UNL1        0.0280
@<TRIPOS>BOND
     1    66    63    1
     2    84    80    1
     3    81    77    1
     4    85    80    1
     5    68    65    1
     6    63    65   ar
     7    63    62   ar
     8    80    77    1
     9    80    83    1
    10    64    62    1
    11    65    67   ar
    12    77    82    1
    13    77    76    1
    14    62    61   ar
    15    88    83    1
    16    88    89    1
    17    83    86    1
    18    83    75    1
    19    67    70    1
    20    67    69   ar
    21    78    76    1
    22    61    69   ar
    23    61    58    1
    24    76    79    1
    25    76    75    1
    26    60    58    1
    27    69    71    1
    28    73    72    1
    29    59    58    1
    30    75    72    1
    31    75    87    1
    32   101    99    1
    33    58    57    1
    34    94    93    1
    35   102    99    1
    36    91    90    1
    37    92    90    1
    38    72    74    1
    39    72    47    1
    40    36    35    1
    41    99    93    1
    42    99   100    1
    43    54    52    1
    44    90    93    1
    45    90     1    1
    46    93    95    1
    47    40    39    1
    48    35    37    1
    49    35    38    1
    50    35    33    1
    51    57    55    1
    52    46    45    1
    53    52    55    1
    54    52    53    1
    55    52    49    1
    56    45    47    1
    57    45    43   am
    58     6     3    1
    59    47    48    1
    60    47    49    1
    61    55    56    2
    62    96    95    1
    63     1    43    1
    64     1     3    1
    65     1     2    1
    66    95    97    1
    67    95    98    1
    68    43    44    2
    69    39    41    1
    70    39    33    1
    71    39    42    1
    72     3     4   am
    73    49    51    1
    74    49    50    1
    75    33    34    1
    76    33     7    1
    77    31    29    1
    78    12     9    1
    79     4     7    1
    80     4     5    2
    81    30    29    1
    82     7     9    1
    83     7     8    1
    84     9    10   am
    85    29    32    1
    86    29    13    1
    87    22    20    1
    88    27    25    1
    89    10    13    1
    90    10    11    2
    91    18    15    1
    92    13    15    1
    93    13    14    1
    94    15    16   am
    95    20    21   ar
    96    20    19   ar
    97    28    25    1
    98    25    21    1
    99    25    26    1
   100    21    23   ar
   101    16    19    1
   102    16    17    2
   103    19    24   ar
   104    23    24   ar
@<TRIPOS>MOLECULE
crystal_redock_e8_er3_1.pdbqt
 102 104 0 0 0
SMALL
GASTEIGER

@<TRIPOS>ATOM
      1 C         -33.8960    7.0690   27.8370 C.3     1  UNL1        0.0890
      2 H         -33.4900    6.6440   28.7560 H       1  UNL1        0.0870
      3 N         -34.2830    8.4430   28.1230 N.am    1  UNL1       -0.3460
      4 C         -34.7740    8.8260   29.4960 C.2     1  UNL1        0.2410
      5 O         -34.8520    8.0100   30.3550 O.2     1  UNL1       -0.2710
      6 H         -34.2110    9.1210   27.3780 H       1  UNL1        0.1630
      7 C         -35.1640   10.2530   29.7760 C.3     1  UNL1        0.0920
      8 H         -35.3200   10.3790   30.8480 H       1  UNL1        0.0880
      9 N         -34.0670   11.1450   29.3900 N.am    1  UNL1       -0.3460
     10 C         -33.0200   11.4500   30.3340 C.2     1  UNL1        0.2400
     11 O         -33.0450   10.9870   31.4090 O.2     1  UNL1       -0.2710
     12 H         -34.0320   11.5530   28.4670 H       1  UNL1        0.1630
     13 C         -31.8560   12.4020   29.9180 C.3     1  UNL1        0.0860
     14 H         -31.3140   12.0480   29.0410 H       1  UNL1        0.0860
     15 N         -32.4100   13.6990   29.5680 N.am    1  UNL1       -0.3430
     16 C         -31.6900   14.5630   28.6300 C.2     1  UNL1        0.2730
     17 O         -30.6640   14.2060   28.1650 O.2     1  UNL1       -0.2660
     18 H         -33.2870   13.9970   29.9730 H       1  UNL1        0.1630
     19 C         -32.2650   15.9360   28.2500 C.ar    1  UNL1        0.1540
     20 C         -32.5640   16.4140   26.9350 C.ar    1  UNL1       -0.0170
     21 C         -33.0660   17.7210   27.1290 C.ar    1  UNL1        0.0770
     22 H         -32.4360   15.8940   25.9860 H       1  UNL1        0.0910
     23 O         -33.0540   17.9540   28.4090 O.2     1  UNL1       -0.2180
     24 N         -32.5910   16.9280   29.0840 N.ar    1  UNL1       -0.1230
     25 C         -33.5350   18.6770   26.0400 C.3     1  UNL1       -0.0290
     26 H         -34.2910   19.3480   26.4470 H       1  UNL1        0.0360
     27 H         -32.6880   19.2610   25.6810 H       1  UNL1        0.0360
     28 H         -33.9600   18.1080   25.2140 H       1  UNL1        0.0360
     29 C         -30.8870   12.5460   31.0640 C.3     1  UNL1       -0.0490
     30 H         -31.2930   13.2440   31.7970 H       1  UNL1        0.0300
     31 H         -30.7320   11.5750   31.5330 H       1  UNL1        0.0300
     32 H         -29.9360   12.9250   30.6900 H       1  UNL1        0.0300
     33 C         -36.4360   10.6140   28.9540 C.3     1  UNL1       -0.0330
     34 H         -36.9590   11.4060   29.4880 H       1  UNL1        0.0420
     35 C         -36.0630   11.1660   27.5430 C.3     1  UNL1       -0.0710
     36 H         -34.9940   11.3770   27.5060 H       1  UNL1        0.0280
     37 H         -36.3130   10.4250   26.7840 H       1  UNL1        0.0280
     38 H         -36.6200   12.0840   27.3530 H       1  UNL1        0.0280
     39 C         -37.3980    9.3870   28.8450 C.3     1  UNL1       -0.0710
     40 H         -37.0380    8.7110   28.0700 H       1  UNL1        0.0280
     41 H         -37.4280    8.8630   29.8010 H       1  UNL1        0.0280
     42 H         -38.4000    9.7330   28.5910 H       1  UNL1        0.0280
     43 C         -32.8530    7.0780   26.6830 C.2     1  UNL1        0.2400
     44 O         -31.8370    6.4730   26.8000 O.2     1  UNL1       -0.2710
     45 N         -33.1260    7.8340   25.4270 N.am    1  UNL1       -0.3550
     46 H         -33.9880    8.3470   25.3140 H       1  UNL1        0.1620
     47 C         -32.1260    7.8310   24.3380 C.3     1  UNL1        0.0130
     48 H         -31.2050    7.4000   24.7300 H       1  UNL1        0.0720
     49 C         -31.8790    9.2510   23.8830 C.3     1  UNL1       -0.0380
     50 H         -30.8330    9.4570   24.1130 H       1  UNL1        0.0360
     51 H         -32.2290    9.2950   22.8510 H       1  UNL1        0.0360
     52 C         -32.7110   10.2860   24.6700 C.3     1  UNL1        0.0180
     53 H         -32.8780   11.1150   23.9830 H       1  UNL1        0.0480
     54 H         -33.5600    9.7350   25.0770 H       1  UNL1        0.0480
     55 C         -31.9670   10.8880   25.8940 C.2     1  UNL1        0.2590
     56 O         -32.1360   10.4420   26.9830 O.2     1  UNL1       -0.2650
     57 O         -31.0880   11.9900   25.7020 O.3     1  UNL1       -0.3170
     58 C         -31.7170   13.1460   25.1410 C.3     1  UNL1        0.0520
     59 H         -32.6630   12.7960   24.7290 H       1  UNL1        0.0820
     60 H         -31.7110   13.8970   25.9310 H       1  UNL1        0.0820
     61 C         -30.8300   13.6550   23.9740 C.ar    1  UNL1       -0.0340
     62 C         -30.2840   12.7500   23.0690 C.ar    1  UNL1       -0.0750
     63 C         -29.4870   13.2070   22.0200 C.ar    1  UNL1       -0.0820
     64 H         -30.4790   11.6840   23.1820 H       1  UNL1        0.0840
     65 C         -29.2360   14.5740   21.8790 C.ar    1  UNL1       -0.0830
     66 H         -29.0620   12.4960   21.3110 H       1  UNL1        0.0830
     67 C         -29.7810   15.4730   22.7860 C.ar    1  UNL1       -0.0820
     68 H         -28.6150   14.9400   21.0610 H       1  UNL1        0.0830
     69 C         -30.5790   15.0210   23.8340 C.ar    1  UNL1       -0.0750
     70 H         -29.5810   16.5390   22.6740 H       1  UNL1        0.0830
     71 H         -31.0050   15.7330   24.5420 H       1  UNL1        0.0840
     72 C         -32.6420    7.0020   23.1640 C.3     1  UNL1       -0.0390
     73 H         -31.8680    6.2580   22.9710 H       1  UNL1        0.0360
     74 H         -33.6440    6.6830   23.4530 H       1  UNL1        0.0360
     75 C         -32.7910    7.8840   21.8350 C.3     1  UNL1       -0.0010
     76 C         -34.3830    8.1240   21.4980 C.3     1  UNL1       -0.0350
     77 C         -34.6120    7.7800   20.2080 C.3     1  UNL1        0.0850
     78 H         -34.9940    7.4190   22.0610 H       1  UNL1        0.0360
     79 H         -34.6150    9.1890   21.5230 H       1  UNL1        0.0360
     80 N         -33.3970    7.0220   19.7310 N.4     1  UNL1       -0.0490
     81 H         -35.4660    7.1040   20.2340 H       1  UNL1        0.0750
     82 H         -34.6790    8.7220   19.6640 H       1  UNL1        0.0750
     83 C         -32.2420    7.3010   20.8230 C.3     1  UNL1        0.1930
     84 H         -33.6400    6.0420   19.7630 H       1  UNL1        0.2800
     85 H         -33.1220    7.4450   18.8560 H       1  UNL1        0.2800
     86 H         -31.4330    8.0000   20.6070 H       1  UNL1        0.1290
     87 H         -32.1500    8.7650   21.8510 H       1  UNL1        0.0460
     88 O         -31.6020    6.0770   21.1880 O.3     1  UNL1       -0.3690
     89 H         -31.6030    5.9880   22.1440 H       1  UNL1        0.2120
     90 C         -35.1270    6.2860   27.4090 C.3     1  UNL1       -0.0350
     91 H         -35.9690    6.9570   27.5770 H       1  UNL1        0.0370
     92 H         -34.9060    5.9300   26.4020 H       1  UNL1        0.0370
     93 C         -35.3960    5.0160   28.2780 C.3     1  UNL1       -0.0590
     94 H         -35.3690    4.1510   27.6160 H       1  UNL1        0.0380
     95 C         -34.3020    4.8110   29.3750 C.3     1  UNL1       -0.0730
     96 H         -34.7490    4.3360   30.2480 H       1  UNL1        0.0280
     97 H         -33.5090    4.1750   28.9830 H       1  UNL1        0.0280
     98 H         -33.8870    5.7770   29.6590 H       1  UNL1        0.0280
     99 C         -36.7920    5.0670   28.9030 C.3     1  UNL1       -0.0730
    100 H         -36.7460    5.6010   29.8530 H       1  UNL1        0.0280
    101 H         -37.4740    5.5850   28.2280 H       1  UNL1        0.0280
    102 H         -37.1510    4.0530   29.0730 H       1  UNL1        0.0280
@<TRIPOS>BOND
     1    85    80    1
     2    82    77    1
     3    80    84    1
     4    80    77    1
     5    80    83    1
     6    77    81    1
     7    77    76    1
     8    86    83    1
     9    83    88    1
    10    83    75    1
    11    68    65    1
    12    88    89    1
    13    66    63    1
    14    76    79    1
    15    76    75    1
    16    76    78    1
    17    75    87    1
    18    75    72    1
    19    65    63   ar
    20    65    67   ar
    21    63    62   ar
    22    70    67    1
    23    67    69   ar
    24    51    49    1
    25    73    72    1
    26    62    64    1
    27    62    61   ar
    28    72    74    1
    29    72    47    1
    30    69    61   ar
    31    69    71    1
    32    49    50    1
    33    49    47    1
    34    49    52    1
    35    61    58    1
    36    53    52    1
    37    47    48    1
    38    47    45    1
    39    52    54    1
    40    52    55    1
    41    59    58    1
    42    58    57    1
    43    58    60    1
    44    28    25    1
    45    46    45    1
    46    45    43   am
    47    27    25    1
    48    57    55    1
    49    55    56    2
    50    22    20    1
    51    25    26    1
    52    25    21    1
    53    92    90    1
    54    43    44    2
    55    43     1    1
    56    37    35    1
    57    20    21   ar
    58    20    19   ar
    59    21    23   ar
    60    38    35    1
    61     6     3    1
    62    90    91    1
    63    90     1    1
    64    90    93    1
    65    36    35    1
    66    35    33    1
    67    94    93    1
    68     1     3    1
    69     1     2    1
    70    40    39    1
    71     3     4   am
    72    17    16    2
    73   101    99    1
    74    19    16    1
    75    19    24   ar
    76    93    99    1
    77    93    95    1
    78    23    24   ar
    79    12     9    1
    80    42    39    1
    81    16    15   am
    82    39    33    1
    83    39    41    1
    84    99   102    1
    85    99   100    1
    86    33    34    1
    87    33     7    1
    88    97    95    1
    89    14    13    1
    90    95    98    1
    91    95    96    1
    92     9     7    1
    93     9    10   am
    94     4     7    1
    95     4     5    2
    96    15    13    1
    97    15    18    1
    98     7     8    1
    99    13    10    1
   100    13    29    1
   101    10    11    2
   102    32    29    1
   103    29    31    1
   104    29    30    1
@<TRIPOS>MOLECULE
crystal_redock_e8_er3_1.pdbqt
 102 104 0 0 0
SMALL
GASTEIGER

@<TRIPOS>ATOM
      1 C         -30.9510   14.2010   24.0140 C.3     1  UNL1        0.0890
      2 H         -29.9120   14.2820   24.3340 H       1  UNL1        0.0870
      3 N         -31.3600   12.8170   24.1980 N.am    1  UNL1       -0.3460
      4 C         -30.6600   11.7100   23.4500 C.2     1  UNL1        0.2410
      5 O         -29.7720   11.9590   22.7030 O.2     1  UNL1       -0.2710
      6 H         -32.1190   12.6260   24.8360 H       1  UNL1        0.1630
      7 C         -31.0920   10.2820   23.6560 C.3     1  UNL1        0.0920
      8 H         -30.6520    9.9040   24.5790 H       1  UNL1        0.0880
      9 N         -32.5480   10.2310   23.8190 N.am    1  UNL1       -0.3460
     10 C         -33.1200    9.6730   25.0200 C.2     1  UNL1        0.2400
     11 O         -32.4230    9.2590   25.8650 O.2     1  UNL1       -0.2710
     12 H         -33.1620   10.5820   23.0980 H       1  UNL1        0.1630
     13 C         -34.6700    9.6180   25.1860 C.3     1  UNL1        0.0860
     14 H         -34.9770    9.2170   26.1520 H       1  UNL1        0.0860
     15 N         -35.2010   10.9690   25.1090 N.am    1  UNL1       -0.3430
     16 C         -35.4450   11.7190   26.3430 C.2     1  UNL1        0.2730
     17 O         -35.2150   11.2260   27.3920 O.2     1  UNL1       -0.2660
     18 H         -35.3970   11.3820   24.2080 H       1  UNL1        0.1630
     19 C         -36.0040   13.1490   26.2760 C.ar    1  UNL1        0.1540
     20 C         -35.4670   14.2540   25.5420 C.ar    1  UNL1       -0.0170
     21 C         -36.3430   15.3290   25.8120 C.ar    1  UNL1        0.0770
     22 H         -34.5790   14.2730   24.9100 H       1  UNL1        0.0910
     23 O         -37.2710   14.8830   26.6080 O.2     1  UNL1       -0.2180
     24 N         -37.0940   13.6140   26.8930 N.ar    1  UNL1       -0.1230
     25 C         -36.2230   16.7480   25.2710 C.3     1  UNL1       -0.0290
     26 H         -35.6240   16.7400   24.3600 H       1  UNL1        0.0360
     27 H         -37.2160   17.1370   25.0490 H       1  UNL1        0.0360
     28 H         -35.7420   17.3820   26.0160 H       1  UNL1        0.0360
     29 C         -35.2660    8.7660   24.0940 C.3     1  UNL1       -0.0490
     30 H         -34.9560    9.1520   23.1230 H       1  UNL1        0.0300
     31 H         -34.9190    7.7390   24.2050 H       1  UNL1        0.0300
     32 H         -36.3530    8.7920   24.1650 H       1  UNL1        0.0300
     33 C         -30.6810    9.4310   22.4190 C.3     1  UNL1       -0.0330
     34 H         -30.5380   10.1160   21.5830 H       1  UNL1        0.0420
     35 C         -29.3270    8.6950   22.6610 C.3     1  UNL1       -0.0710
     36 H         -29.4900    7.6170   22.6400 H       1  UNL1        0.0280
     37 H         -28.6190    8.9700   21.8790 H       1  UNL1        0.0280
     38 H         -28.9250    8.9820   23.6320 H       1  UNL1        0.0280
     39 C         -31.8120    8.4250   22.0310 C.3     1  UNL1       -0.0710
     40 H         -31.3940    7.4210   21.9530 H       1  UNL1        0.0280
     41 H         -32.5880    8.4380   22.7970 H       1  UNL1        0.0280
     42 H         -32.2440    8.7150   21.0740 H       1  UNL1        0.0280
     43 C         -31.8950   15.1120   24.8500 C.2     1  UNL1        0.2400
     44 O         -32.7000   15.7920   24.3000 O.2     1  UNL1       -0.2710
     45 N         -31.8020   15.1290   26.3380 N.am    1  UNL1       -0.3550
     46 H         -31.1260   14.5510   26.8160 H       1  UNL1        0.1620
     47 C         -32.7080   15.9990   27.1190 C.3     1  UNL1        0.0130
     48 H         -33.6980   15.9430   26.6670 H       1  UNL1        0.0720
     49 C         -32.1980   17.4210   27.0720 C.3     1  UNL1       -0.0380
     50 H         -31.3450   17.4510   27.7500 H       1  UNL1        0.0360
     51 H         -32.0620   17.6500   26.0150 H       1  UNL1        0.0360
     52 C         -33.2220   18.4430   27.6120 C.3     1  UNL1        0.0180
     53 H         -34.0720   17.8560   27.9550 H       1  UNL1        0.0480
     54 H         -32.6710   19.0690   28.3150 H       1  UNL1        0.0480
     55 C         -33.7770   19.4060   26.5260 C.2     1  UNL1        0.2590
     56 O         -33.4750   19.2680   25.3850 O.2     1  UNL1       -0.2650
     57 O         -34.6440   20.4660   26.9120 O.3     1  UNL1       -0.3170
     58 C         -36.0250   20.2200   26.6310 C.3     1  UNL1        0.0520
     59 H         -36.4460   21.1860   26.3540 H       1  UNL1        0.0820
     60 H         -36.0390   19.3950   25.9200 H       1  UNL1        0.0820
     61 C         -36.7040   19.7470   27.9440 C.ar    1  UNL1       -0.0340
     62 C         -37.5670   18.6560   27.9290 C.ar    1  UNL1       -0.0750
     63 C         -38.1770   18.2310   29.1080 C.ar    1  UNL1       -0.0820
     64 H         -37.7650   18.1330   26.9920 H       1  UNL1        0.0840
     65 C         -37.9240   18.9040   30.3060 C.ar    1  UNL1       -0.0830
     66 H         -38.8520   17.3740   29.0920 H       1  UNL1        0.0830
     67 C         -37.0650   19.9940   30.3160 C.ar    1  UNL1       -0.0820
     68 H         -38.3960   18.5780   31.2330 H       1  UNL1        0.0830
     69 C         -36.4510   20.4210   29.1410 C.ar    1  UNL1       -0.0750
     70 H         -36.8710   20.5180   31.2530 H       1  UNL1        0.0830
     71 H         -35.7770   21.2770   29.1570 H       1  UNL1        0.0840
     72 C         -32.7580   15.5230   28.5690 C.3     1  UNL1       -0.0390
     73 H         -32.5040   16.3960   29.1700 H       1  UNL1        0.0360
     74 H         -33.7320   15.0460   28.6850 H       1  UNL1        0.0360
     75 C         -31.6480   14.4060   28.8650 C.3     1  UNL1       -0.0010
     76 C         -32.3740   12.9810   29.2450 C.3     1  UNL1       -0.0350
     77 C         -31.8470   12.5180   30.4040 C.3     1  UNL1        0.0850
     78 H         -33.4220   13.1500   29.4910 H       1  UNL1        0.0360
     79 H         -32.1010   12.2160   28.5180 H       1  UNL1        0.0360
     80 N         -31.0640   13.6530   31.0180 N.4     1  UNL1       -0.0490
     81 H         -32.7010   12.2890   31.0410 H       1  UNL1        0.0750
     82 H         -31.1570   11.7270   30.1140 H       1  UNL1        0.0750
     83 C         -30.8870   14.7530   29.8500 C.3     1  UNL1        0.1930
     84 H         -31.6490   14.0450   31.7420 H       1  UNL1        0.2800
     85 H         -30.1550   13.2800   31.2500 H       1  UNL1        0.2800
     86 H         -29.9330   14.8640   29.3330 H       1  UNL1        0.1290
     87 H         -30.8740   14.3800   28.0980 H       1  UNL1        0.0460
     88 O         -31.2070   16.0540   30.3450 O.3     1  UNL1       -0.3690
     89 H         -30.9800   16.7130   29.6840 H       1  UNL1        0.2120
     90 C         -31.0660   14.5610   22.5410 C.3     1  UNL1       -0.0350
     91 H         -30.8530   13.6390   22.0010 H       1  UNL1        0.0370
     92 H         -32.0390   15.0410   22.4370 H       1  UNL1        0.0370
     93 C         -30.0060   15.6050   22.0670 C.3     1  UNL1       -0.0590
     94 H         -30.1940   16.5350   22.6040 H       1  UNL1        0.0380
     95 C         -28.5460   15.1530   22.3930 C.3     1  UNL1       -0.0730
     96 H         -28.1530   14.5660   21.5630 H       1  UNL1        0.0280
     97 H         -27.9190   16.0310   22.5450 H       1  UNL1        0.0280
     98 H         -28.5480   14.5460   23.2980 H       1  UNL1        0.0280
     99 C         -30.1620   15.9030   20.5730 C.3     1  UNL1       -0.0730
    100 H         -29.2760   15.5610   20.0390 H       1  UNL1        0.0280
    101 H         -31.0410   15.3840   20.1890 H       1  UNL1        0.0280
    102 H         -30.2830   16.9760   20.4270 H       1  UNL1        0.0280
@<TRIPOS>BOND
     1   100    99    1
     2   101    99    1
     3   102    99    1
     4    99    93    1
     5    42    39    1
     6    96    95    1
     7    34    33    1
     8    37    35    1
     9    40    39    1
    10    91    90    1
    11    39    33    1
    12    39    41    1
    13    93    95    1
    14    93    90    1
    15    93    94    1
    16    95    97    1
    17    95    98    1
    18    33    35    1
    19    33     7    1
    20    92    90    1
    21    90     1    1
    22    36    35    1
    23    35    38    1
    24     5     4    2
    25    12     9    1
    26    30    29    1
    27     4     7    1
    28     4     3   am
    29     7     9    1
    30     7     8    1
    31     9    10   am
    32     1     3    1
    33     1     2    1
    34     1    43    1
    35    29    32    1
    36    29    31    1
    37    29    13    1
    38     3     6    1
    39    18    15    1
    40    44    43    2
    41    26    25    1
    42    43    45   am
    43    22    20    1
    44    10    13    1
    45    10    11    2
    46    27    25    1
    47    15    13    1
    48    15    16   am
    49    13    14    1
    50    25    21    1
    51    25    28    1
    52    56    55    2
    53    20    21   ar
    54    20    19   ar
    55    21    23   ar
    56    60    58    1
    57    51    49    1
    58    19    16    1
    59    19    24   ar
    60    45    46    1
    61    45    47    1
    62    16    17    2
    63    59    58    1
    64    55    57    1
    65    55    52    1
    66    23    24   ar
    67    58    57    1
    68    58    61    1
    69    48    47    1
    70    64    62    1
    71    49    47    1
    72    49    52    1
    73    49    50    1
    74    47    72    1
    75    52    53    1
    76    52    54    1
    77    62    61   ar
    78    62    63   ar
    79    61    69   ar
    80    87    75    1
    81    79    76    1
    82    72    74    1
    83    72    75    1
    84    72    73    1
    85    75    76    1
    86    75    83    1
    87    66    63    1
    88    63    65   ar
    89    69    71    1
    90    69    67   ar
    91    76    78    1
    92    76    77    1
    93    86    83    1
    94    89    88    1
    95    83    88    1
    96    83    80    1
    97    82    77    1
    98    65    67   ar
    99    65    68    1
   100    67    70    1
   101    77    80    1
   102    77    81    1
   103    80    85    1
   104    80    84    1
@<TRIPOS>MOLECULE
crystal_redock_e8_er3_1.pdbqt
 102 104 0 0 0
SMALL
GASTEIGER

@<TRIPOS>ATOM
      1 C         -33.2150    9.8430   24.7880 C.3     1  UNL1        0.0890
      2 H         -33.6110    9.0690   24.1290 H       1  UNL1        0.0870
      3 N         -34.2020   10.9100   24.8520 N.am    1  UNL1       -0.3460
      4 C         -35.6720   10.5970   24.7290 C.2     1  UNL1        0.2410
      5 O         -36.0360    9.4780   24.5750 O.2     1  UNL1       -0.2710
      6 H         -33.8720   11.8560   24.9810 H       1  UNL1        0.1630
      7 C         -36.6800   11.7130   24.8030 C.3     1  UNL1        0.0920
      8 H         -37.1920   11.6700   25.7650 H       1  UNL1        0.0880
      9 N         -35.9870   13.0040   24.7390 N.am    1  UNL1       -0.3460
     10 C         -35.9890   13.8810   25.8840 C.2     1  UNL1        0.2400
     11 O         -36.5450   13.5640   26.8650 O.2     1  UNL1       -0.2710
     12 H         -35.5050   13.2910   23.9000 H       1  UNL1        0.1630
     13 C         -35.2530   15.2540   25.8090 C.3     1  UNL1        0.0860
     14 H         -34.8060   15.5450   26.7590 H       1  UNL1        0.0860
     15 N         -34.1640   15.1520   24.8510 N.am    1  UNL1       -0.3430
     16 C         -32.7790   15.2030   25.3250 C.2     1  UNL1        0.2730
     17 O         -32.5520   15.3290   26.4790 O.2     1  UNL1       -0.2660
     18 H         -34.3670   15.0480   23.8670 H       1  UNL1        0.1630
     19 C         -31.6180   15.0960   24.3250 C.ar    1  UNL1        0.1540
     20 C         -31.1150   13.9060   23.7090 C.ar    1  UNL1       -0.0170
     21 C         -30.0570   14.3450   22.8820 C.ar    1  UNL1        0.0770
     22 H         -31.4630   12.8820   23.8420 H       1  UNL1        0.0910
     23 O         -29.9720   15.6360   23.0130 O.2     1  UNL1       -0.2180
     24 N         -30.8720   16.0980   23.8500 N.ar    1  UNL1       -0.1230
     25 C         -29.1790   13.4670   21.9990 C.3     1  UNL1       -0.0290
     26 H         -29.3030   12.4230   22.2860 H       1  UNL1        0.0360
     27 H         -29.4720   13.5930   20.9570 H       1  UNL1        0.0360
     28 H         -28.1360   13.7570   22.1210 H       1  UNL1        0.0360
     29 C         -36.2220   16.3240   25.3770 C.3     1  UNL1       -0.0490
     30 H         -37.0410   15.8690   24.8200 H       1  UNL1        0.0300
     31 H         -36.6180   16.8310   26.2560 H       1  UNL1        0.0300
     32 H         -35.7080   17.0460   24.7420 H       1  UNL1        0.0300
     33 C         -37.6700   11.5990   23.6070 C.3     1  UNL1       -0.0330
     34 H         -37.2780   10.8430   22.9270 H       1  UNL1        0.0420
     35 C         -39.0790   11.1200   24.0790 C.3     1  UNL1       -0.0710
     36 H         -39.3930   10.2670   23.4770 H       1  UNL1        0.0280
     37 H         -39.0310   10.8280   25.1270 H       1  UNL1        0.0280
     38 H         -39.7970   11.9320   23.9600 H       1  UNL1        0.0280
     39 C         -37.7630   12.9500   22.8270 C.3     1  UNL1       -0.0710
     40 H         -37.9050   13.7680   23.5330 H       1  UNL1        0.0280
     41 H         -36.8410   13.1100   22.2660 H       1  UNL1        0.0280
     42 H         -38.6060   12.9140   22.1370 H       1  UNL1        0.0280
     43 C         -32.9620    9.3140   26.2290 C.2     1  UNL1        0.2400
     44 O         -32.4880    8.2360   26.3880 O.2     1  UNL1       -0.2710
     45 N         -33.3030   10.1570   27.4110 N.am    1  UNL1       -0.3550
     46 H         -33.7010   11.0760   27.2880 H       1  UNL1        0.1620
     47 C         -33.0550    9.6400   28.7740 C.3     1  UNL1        0.0130
     48 H         -32.3120    8.8460   28.7020 H       1  UNL1        0.0720
     49 C         -34.3440    9.0920   29.3430 C.3     1  UNL1       -0.0380
     50 H         -35.1430    9.6340   28.8370 H       1  UNL1        0.0360
     51 H         -34.2720    8.0090   29.2450 H       1  UNL1        0.0360
     52 C         -34.5050    9.3840   30.8510 C.3     1  UNL1        0.0180
     53 H         -33.5370    9.1640   31.3000 H       1  UNL1        0.0480
     54 H         -34.9190   10.3910   30.9140 H       1  UNL1        0.0480
     55 C         -35.5270    8.4550   31.5630 C.2     1  UNL1        0.2590
     56 O         -36.6460    8.8130   31.7400 O.2     1  UNL1       -0.2650
     57 O         -35.1070    7.1730   32.0130 O.3     1  UNL1       -0.3170
     58 C         -35.6320    6.0850   31.2460 C.3     1  UNL1        0.0520
     59 H         -36.2880    5.5370   31.9220 H       1  UNL1        0.0820
     60 H         -36.0360    6.5330   30.3380 H       1  UNL1        0.0820
     61 C         -34.4480    5.1610   30.8530 C.ar    1  UNL1       -0.0340
     62 C         -33.7560    4.4600   31.8350 C.ar    1  UNL1       -0.0750
     63 C         -32.6930    3.6300   31.4820 C.ar    1  UNL1       -0.0820
     64 H         -34.0470    4.5600   32.8810 H       1  UNL1        0.0840
     65 C         -32.3210    3.5050   30.1410 C.ar    1  UNL1       -0.0830
     66 H         -32.1540    3.0800   32.2540 H       1  UNL1        0.0830
     67 C         -33.0120    4.2100   29.1650 C.ar    1  UNL1       -0.0820
     68 H         -31.4910    2.8580   29.8560 H       1  UNL1        0.0830
     69 C         -34.0770    5.0390   29.5120 C.ar    1  UNL1       -0.0750
     70 H         -32.7170    4.1120   28.1190 H       1  UNL1        0.0830
     71 H         -34.6150    5.5880   28.7400 H       1  UNL1        0.0840
     72 C         -32.5410   10.7670   29.6680 C.3     1  UNL1       -0.0390
     73 H         -33.2920   10.8820   30.4500 H       1  UNL1        0.0360
     74 H         -31.5200   10.4880   29.9290 H       1  UNL1        0.0360
     75 C         -32.4630   12.1600   28.8800 C.3     1  UNL1       -0.0010
     76 C         -30.9080   12.4710   28.4440 C.3     1  UNL1       -0.0350
     77 C         -30.5820   13.7210   28.8520 C.3     1  UNL1        0.0850
     78 H         -30.2280   11.8340   29.0090 H       1  UNL1        0.0360
     79 H         -30.8270   12.5270   27.3590 H       1  UNL1        0.0360
     80 N         -31.6600   14.1680   29.8090 N.4     1  UNL1       -0.0490
     81 H         -29.6440   13.6140   29.3960 H       1  UNL1        0.0750
     82 H         -30.6250   14.3390   27.9560 H       1  UNL1        0.0750
     83 C         -32.8860   13.1360   29.6120 C.3     1  UNL1        0.1930
     84 H         -31.2850   14.0470   30.7390 H       1  UNL1        0.2800
     85 H         -31.9560   15.0820   29.4990 H       1  UNL1        0.2800
     86 H         -33.7740   13.4320   29.0540 H       1  UNL1        0.1290
     87 H         -33.2210   12.2360   28.1000 H       1  UNL1        0.0460
     88 O         -33.3640   12.6890   30.8820 O.3     1  UNL1       -0.3690
     89 H         -34.3100   12.8430   30.9400 H       1  UNL1        0.2120
     90 C         -31.9220   10.3980   24.2120 C.3     1  UNL1       -0.0350
     91 H         -32.1240   11.4490   24.0090 H       1  UNL1        0.0370
     92 H         -31.1460   10.1200   24.9250 H       1  UNL1        0.0370
     93 C         -31.5170    9.7550   22.8470 C.3     1  UNL1       -0.0590
     94 H         -31.8450   10.4280   22.0550 H       1  UNL1        0.0380
     95 C         -29.9710    9.5800   22.7140 C.3     1  UNL1       -0.0730
     96 H         -29.6610    9.8430   21.7030 H       1  UNL1        0.0280
     97 H         -29.4680   10.2310   23.4280 H       1  UNL1        0.0280
     98 H         -29.7040    8.5430   22.9170 H       1  UNL1        0.0280
     99 C         -32.2370    8.4200   22.6370 C.3     1  UNL1       -0.0730
    100 H         -33.2640    8.6070   22.3230 H       1  UNL1        0.0280
    101 H         -31.7210    7.8460   21.8670 H       1  UNL1        0.0280
    102 H         -32.2380    7.8570   23.5690 H       1  UNL1        0.0280
@<TRIPOS>BOND
     1    27    25    1
     2    96    95    1
     3   101    99    1
     4    25    28    1
     5    25    26    1
     6    25    21    1
     7    94    93    1
     8    42    39    1
     9    41    39    1
    10   100    99    1
    11    99    93    1
    12    99   102    1
    13    95    93    1
    14    95    98    1
    15    95    97    1
    16    39    40    1
    17    39    33    1
    18    93    90    1
    19    21    23   ar
    20    21    20   ar
    21    34    33    1
    22    23    24   ar
    23    36    35    1
    24    33    35    1
    25    33     7    1
    26    20    22    1
    27    20    19   ar
    28    24    19   ar
    29    18    15    1
    30    12     9    1
    31    38    35    1
    32    91    90    1
    33    35    37    1
    34     2     1    1
    35    90     1    1
    36    90    92    1
    37    19    16    1
    38     5     4    2
    39     4     7    1
    40     4     3   am
    41     9     7    1
    42     9    10   am
    43    32    29    1
    44     1     3    1
    45     1    43    1
    46     7     8    1
    47    30    29    1
    48    15    16   am
    49    15    13    1
    50     3     6    1
    51    16    17    2
    52    29    13    1
    53    29    31    1
    54    13    10    1
    55    13    14    1
    56    10    11    2
    57    43    44    2
    58    43    45   am
    59    46    45    1
    60    79    76    1
    61    45    47    1
    62    82    77    1
    63    87    75    1
    64    70    67    1
    65    76    77    1
    66    76    75    1
    67    76    78    1
    68    48    47    1
    69    71    69    1
    70    47    49    1
    71    47    72    1
    72    50    49    1
    73    77    81    1
    74    77    80    1
    75    75    83    1
    76    75    72    1
    77    86    83    1
    78    67    69   ar
    79    67    65   ar
    80    51    49    1
    81    49    52    1
    82    85    80    1
    83    69    61   ar
    84    83    80    1
    85    83    88    1
    86    72    74    1
    87    72    73    1
    88    80    84    1
    89    68    65    1
    90    65    63   ar
    91    60    58    1
    92    52    54    1
    93    52    53    1
    94    52    55    1
    95    61    58    1
    96    61    62   ar
    97    88    89    1
    98    58    59    1
    99    58    57    1
   100    63    62   ar
   101    63    66    1
   102    55    56    2
   103    55    57    1
   104    62    64    1
@<TRIPOS>MOLECULE
crystal_redock_e8_er3_1.pdbqt
 102 104 0 0 0
SMALL
GASTEIGER

@<TRIPOS>ATOM
      1 C         -32.9440   10.3880   25.4830 C.3     1  UNL1        0.0890
      2 H         -33.6450   10.4610   24.6510 H       1  UNL1        0.0870
      3 N         -32.3810    9.0460   25.4650 N.am    1  UNL1       -0.3460
      4 C         -33.1390    7.9100   24.8250 C.2     1  UNL1        0.2410
      5 O         -34.2020    8.1000   24.3330 O.2     1  UNL1       -0.2710
      6 H         -31.4760    8.9050   25.8920 H       1  UNL1        0.1630
      7 C         -32.5390    6.5290   24.8110 C.3     1  UNL1        0.0920
      8 H         -31.4730    6.5990   25.0310 H       1  UNL1        0.0880
      9 N         -33.1480    5.7200   25.8710 N.am    1  UNL1       -0.3460
     10 C         -32.6740    5.8360   27.2280 C.2     1  UNL1        0.2400
     11 O         -31.8020    6.5750   27.4850 O.2     1  UNL1       -0.2710
     12 H         -33.8990    5.0780   25.6650 H       1  UNL1        0.1630
     13 C         -33.3240    4.9710   28.3520 C.3     1  UNL1        0.0860
     14 H         -32.6920    4.8820   29.2350 H       1  UNL1        0.0860
     15 N         -34.5560    5.6080   28.7850 N.am    1  UNL1       -0.3430
     16 C         -34.9340    5.5620   30.1990 C.2     1  UNL1        0.2730
     17 O         -34.2420    5.0070   30.9800 O.2     1  UNL1       -0.2660
     18 H         -35.1440    6.0780   28.1100 H       1  UNL1        0.1630
     19 C         -36.2340    6.2330   30.6710 C.ar    1  UNL1        0.1540
     20 C         -36.5180    7.6350   30.7100 C.ar    1  UNL1       -0.0170
     21 C         -37.8340    7.7250   31.2170 C.ar    1  UNL1        0.0770
     22 H         -35.8690    8.4600   30.4150 H       1  UNL1        0.0910
     23 O         -38.2470    6.5120   31.4380 O.2     1  UNL1       -0.2180
     24 N         -37.3310    5.6240   31.1280 N.ar    1  UNL1       -0.1230
     25 C         -38.6210    9.0060   31.4580 C.3     1  UNL1       -0.0290
     26 H         -38.1740    9.8210   30.8890 H       1  UNL1        0.0360
     27 H         -39.6530    8.8640   31.1380 H       1  UNL1        0.0360
     28 H         -38.6010    9.2510   32.5200 H       1  UNL1        0.0360
     29 C         -33.6160    3.5900   27.8210 C.3     1  UNL1       -0.0490
     30 H         -33.9820    2.9590   28.6310 H       1  UNL1        0.0300
     31 H         -34.3720    3.6540   27.0400 H       1  UNL1        0.0300
     32 H         -32.7030    3.1590   27.4090 H       1  UNL1        0.0300
     33 C         -32.8090    5.8600   23.4320 C.3     1  UNL1       -0.0330
     34 H         -33.6680    6.3620   22.9860 H       1  UNL1        0.0420
     35 C         -31.6010    6.0480   22.4620 C.3     1  UNL1       -0.0710
     36 H         -31.8490    6.8040   21.7150 H       1  UNL1        0.0280
     37 H         -30.7280    6.3700   23.0280 H       1  UNL1        0.0280
     38 H         -31.3850    5.1040   21.9630 H       1  UNL1        0.0280
     39 C         -33.1670    4.3490   23.6030 C.3     1  UNL1       -0.0710
     40 H         -32.5480    3.7510   22.9350 H       1  UNL1        0.0280
     41 H         -32.9850    4.0470   24.6350 H       1  UNL1        0.0280
     42 H         -34.2190    4.1950   23.3610 H       1  UNL1        0.0280
     43 C         -31.7810   11.4140   25.3630 C.2     1  UNL1        0.2400
     44 O         -30.6760   11.0930   25.6580 O.2     1  UNL1       -0.2710
     45 N         -32.0450   12.7970   24.8720 N.am    1  UNL1       -0.3550
     46 H         -32.9790   13.0810   24.6140 H       1  UNL1        0.1620
     47 C         -30.9280   13.7610   24.7630 C.3     1  UNL1        0.0130
     48 H         -30.1190   13.4110   25.4030 H       1  UNL1        0.0720
     49 C         -31.3980   15.1230   25.2210 C.3     1  UNL1       -0.0380
     50 H         -30.6180   15.4950   25.8870 H       1  UNL1        0.0360
     51 H         -31.6440   15.6710   24.3120 H       1  UNL1        0.0360
     52 C         -32.6940   15.0600   26.0580 C.3     1  UNL1        0.0180
     53 H         -33.3670   15.7930   25.6150 H       1  UNL1        0.0480
     54 H         -32.9760   14.0080   26.0870 H       1  UNL1        0.0480
     55 C         -32.5050   15.4930   27.5390 C.2     1  UNL1        0.2590
     56 O         -31.7180   14.9370   28.2340 O.2     1  UNL1       -0.2650
     57 O         -33.2930   16.5560   28.0600 O.3     1  UNL1       -0.3170
     58 C         -32.8520   17.8580   27.6620 C.3     1  UNL1        0.0520
     59 H         -32.5660   18.3660   28.5830 H       1  UNL1        0.0820
     60 H         -32.1120   17.6920   26.8790 H       1  UNL1        0.0820
     61 C         -34.0620   18.6050   27.0430 C.ar    1  UNL1       -0.0340
     62 C         -34.7500   18.0490   25.9690 C.ar    1  UNL1       -0.0750
     63 C         -35.8370   18.7210   25.4120 C.ar    1  UNL1       -0.0820
     64 H         -34.4360   17.0870   25.5630 H       1  UNL1        0.0840
     65 C         -36.2350   19.9550   25.9330 C.ar    1  UNL1       -0.0830
     66 H         -36.3750   18.2810   24.5720 H       1  UNL1        0.0830
     67 C         -35.5440   20.5080   27.0020 C.ar    1  UNL1       -0.0820
     68 H         -37.0850   20.4870   25.5040 H       1  UNL1        0.0830
     69 C         -34.4580   19.8390   27.5630 C.ar    1  UNL1       -0.0750
     70 H         -35.8560   21.4720   27.4040 H       1  UNL1        0.0830
     71 H         -33.9210   20.2790   28.4040 H       1  UNL1        0.0840
     72 C         -30.4590   13.8450   23.3120 C.3     1  UNL1       -0.0390
     73 H         -29.5050   13.3180   23.2850 H       1  UNL1        0.0360
     74 H         -31.2970   13.4850   22.7150 H       1  UNL1        0.0360
     75 C         -30.1760   15.3580   22.8670 C.3     1  UNL1       -0.0010
     76 C         -31.2810   15.8260   21.7430 C.3     1  UNL1       -0.0350
     77 C         -30.6260   16.3460   20.6770 C.3     1  UNL1        0.0850
     78 H         -31.7870   14.9540   21.3300 H       1  UNL1        0.0360
     79 H         -31.8640   16.6680   22.1190 H       1  UNL1        0.0360
     80 N         -29.1700   15.9760   20.8310 N.4     1  UNL1       -0.0490
     81 H         -31.0330   15.8330   19.8060 H       1  UNL1        0.0750
     82 H         -30.7290   17.4270   20.7710 H       1  UNL1        0.0750
     83 C         -28.9960   15.4830   22.3580 C.3     1  UNL1        0.1930
     84 H         -29.0080   15.1900   20.2180 H       1  UNL1        0.2800
     85 H         -28.6440   16.8300   20.7070 H       1  UNL1        0.2800
     86 H         -28.5280   16.1310   23.1000 H       1  UNL1        0.1290
     87 H         -30.0270   16.0190   23.7210 H       1  UNL1        0.0460
     88 O         -28.2590   14.2600   22.4000 O.3     1  UNL1       -0.3690
     89 H         -28.7300   13.6200   22.9390 H       1  UNL1        0.2120
     90 C         -33.6800   10.6000   26.7960 C.3     1  UNL1       -0.0350
     91 H         -33.8000   11.6790   26.8890 H       1  UNL1        0.0370
     92 H         -34.5580    9.9560   26.7420 H       1  UNL1        0.0370
     93 C         -32.8710   10.1380   28.0500 C.3     1  UNL1       -0.0590
     94 H         -31.9870    9.6070   27.6960 H       1  UNL1        0.0380
     95 C         -32.3870   11.3450   28.9160 C.3     1  UNL1       -0.0730
     96 H         -31.3180   11.2510   29.1040 H       1  UNL1        0.0280
     97 H         -32.5810   12.2750   28.3840 H       1  UNL1        0.0280
     98 H         -32.9240   11.3490   29.8650 H       1  UNL1        0.0280
     99 C         -33.6850    9.1530   28.8930 C.3     1  UNL1       -0.0730
    100 H         -34.2740    9.7040   29.6270 H       1  UNL1        0.0280
    101 H         -34.3510    8.5830   28.2450 H       1  UNL1        0.0280
    102 H         -33.0090    8.4710   29.4080 H       1  UNL1        0.0280
@<TRIPOS>BOND
     1    81    77    1
     2    84    80    1
     3    77    82    1
     4    77    80    1
     5    77    76    1
     6    85    80    1
     7    80    83    1
     8    78    76    1
     9    36    35    1
    10    76    79    1
    11    76    75    1
    12    38    35    1
    13    83    88    1
    14    83    75    1
    15    83    86    1
    16    88    89    1
    17    35    37    1
    18    35    33    1
    19    74    72    1
    20    75    72    1
    21    75    87    1
    22    40    39    1
    23    34    33    1
    24    73    72    1
    25    72    47    1
    26    42    39    1
    27    33    39    1
    28    33     7    1
    29    39    41    1
    30    51    49    1
    31     5     4    2
    32    66    63    1
    33    46    45    1
    34     2     1    1
    35    47    45    1
    36    47    49    1
    37    47    48    1
    38     7     4    1
    39     7     8    1
    40     7     9    1
    41     4     3   am
    42    45    43   am
    43    49    50    1
    44    49    52    1
    45    43     1    1
    46    43    44    2
    47    63    65   ar
    48    63    62   ar
    49     3     1    1
    50     3     6    1
    51     1    90    1
    52    68    65    1
    53    64    62    1
    54    53    52    1
    55    12     9    1
    56     9    10   am
    57    65    67   ar
    58    62    61   ar
    59    52    54    1
    60    52    55    1
    61    92    90    1
    62    90    91    1
    63    90    93    1
    64    60    58    1
    65    67    70    1
    66    67    69   ar
    67    31    29    1
    68    61    69   ar
    69    61    58    1
    70    10    11    2
    71    10    13    1
    72    32    29    1
    73    55    57    1
    74    55    56    2
    75    69    71    1
    76    58    57    1
    77    58    59    1
    78    94    93    1
    79    29    13    1
    80    29    30    1
    81    93    99    1
    82    93    95    1
    83    18    15    1
    84   101    99    1
    85    13    15    1
    86    13    14    1
    87    97    95    1
    88    15    16   am
    89    99   102    1
    90    99   100    1
    91    95    96    1
    92    95    98    1
    93    16    19    1
    94    16    17    2
    95    22    20    1
    96    19    20   ar
    97    19    24   ar
    98    20    21   ar
    99    26    25    1
   100    24    23   ar
   101    27    25    1
   102    21    23   ar
   103    21    25    1
   104    25    28    1
@<TRIPOS>MOLECULE
crystal_redock_e8_er3_1.pdbqt
 102 104 0 0 0
SMALL
GASTEIGER

@<TRIPOS>ATOM
      1 C         -32.4900    9.8650   24.5800 C.3     1  UNL1        0.0890
      2 H         -32.2710    9.0140   25.2260 H       1  UNL1        0.0870
      3 N         -33.8580   10.2810   24.8520 N.am    1  UNL1       -0.3460
      4 C         -34.5000    9.9650   26.1800 C.2     1  UNL1        0.2410
      5 O         -33.8970    9.3730   27.0130 O.2     1  UNL1       -0.2710
      6 H         -34.3550   10.7820   24.1300 H       1  UNL1        0.1630
      7 C         -35.9150   10.4090   26.4470 C.3     1  UNL1        0.0920
      8 H         -36.0250   10.6390   27.5060 H       1  UNL1        0.0880
      9 N         -36.1890   11.6430   25.7040 N.am    1  UNL1       -0.3460
     10 C         -36.9840   12.6850   26.3070 C.2     1  UNL1        0.2400
     11 O         -37.4110   12.5460   27.3880 O.2     1  UNL1       -0.2710
     12 H         -35.8280   11.7760   24.7700 H       1  UNL1        0.1630
     13 C         -37.2740   13.9950   25.5110 C.3     1  UNL1        0.0860
     14 H         -38.2520   14.4190   25.7400 H       1  UNL1        0.0860
     15 N         -36.2890   14.9980   25.8790 N.am    1  UNL1       -0.3430
     16 C         -36.6420   16.0330   26.8530 C.2     1  UNL1        0.2730
     17 O         -37.7220   16.0500   27.3340 O.2     1  UNL1       -0.2660
     18 H         -35.3700   14.9770   25.4610 H       1  UNL1        0.1630
     19 C         -35.6100   17.0990   27.2520 C.ar    1  UNL1        0.1540
     20 C         -34.5580   17.6300   26.4410 C.ar    1  UNL1       -0.0170
     21 C         -33.9010   18.5700   27.2660 C.ar    1  UNL1        0.0770
     22 H         -34.3090   17.3730   25.4110 H       1  UNL1        0.0910
     23 O         -34.5130   18.5710   28.4140 O.2     1  UNL1       -0.2180
     24 N         -35.5140   17.7210   28.4310 N.ar    1  UNL1       -0.1230
     25 C         -32.7000   19.4240   26.8820 C.3     1  UNL1       -0.0290
     26 H         -31.8570   18.7770   26.6420 H       1  UNL1        0.0360
     27 H         -32.9500   20.0320   26.0130 H       1  UNL1        0.0360
     28 H         -32.4340   20.0730   27.7160 H       1  UNL1        0.0360
     29 C         -37.1990   13.7140   24.0320 C.3     1  UNL1       -0.0490
     30 H         -36.2640   14.1100   23.6340 H       1  UNL1        0.0300
     31 H         -37.2390   12.6380   23.8640 H       1  UNL1        0.0300
     32 H         -38.0390   14.1920   23.5280 H       1  UNL1        0.0300
     33 C         -36.9030    9.2980   25.9830 C.3     1  UNL1       -0.0330
     34 H         -36.3490    8.3590   25.9500 H       1  UNL1        0.0420
     35 C         -38.0720    9.1160   27.0000 C.3     1  UNL1       -0.0710
     36 H         -38.9520    9.6490   26.6410 H       1  UNL1        0.0280
     37 H         -38.3050    8.0570   27.1010 H       1  UNL1        0.0280
     38 H         -37.7760    9.5180   27.9690 H       1  UNL1        0.0280
     39 C         -37.4420    9.5930   24.5470 C.3     1  UNL1       -0.0710
     40 H         -37.2960   10.6470   24.3130 H       1  UNL1        0.0280
     41 H         -36.9010    8.9820   23.8230 H       1  UNL1        0.0280
     42 H         -38.5040    9.3530   24.5010 H       1  UNL1        0.0280
     43 C         -31.5430   11.0680   24.8530 C.2     1  UNL1        0.2400
     44 O         -30.8220   11.0510   25.7970 O.2     1  UNL1       -0.2710
     45 N         -31.5280   12.2390   23.9300 N.am    1  UNL1       -0.3550
     46 H         -32.1320   12.2630   23.1210 H       1  UNL1        0.1620
     47 C         -30.6210   13.3740   24.2020 C.3     1  UNL1        0.0130
     48 H         -29.9300   13.0710   24.9880 H       1  UNL1        0.0720
     49 C         -31.4330   14.5650   24.6590 C.3     1  UNL1       -0.0380
     50 H         -30.8060   15.4370   24.4770 H       1  UNL1        0.0360
     51 H         -32.3980   14.4720   24.1590 H       1  UNL1        0.0360
     52 C         -31.7240   14.5450   26.1760 C.3     1  UNL1        0.0180
     53 H         -31.0270   13.8230   26.6000 H       1  UNL1        0.0480
     54 H         -31.6930   15.5870   26.4960 H       1  UNL1        0.0480
     55 C         -33.1460   14.0290   26.5340 C.2     1  UNL1        0.2590
     56 O         -33.7380   13.3230   25.7840 O.2     1  UNL1       -0.2650
     57 O         -33.7390   14.4220   27.7650 O.3     1  UNL1       -0.3170
     58 C         -32.8020   14.8830   28.7430 C.3     1  UNL1        0.0520
     59 H         -31.9640   15.2910   28.1780 H       1  UNL1        0.0820
     60 H         -33.3690   15.5250   29.4160 H       1  UNL1        0.0820
     61 C         -32.3020   13.6520   29.5450 C.ar    1  UNL1       -0.0340
     62 C         -33.1910   12.6410   29.8960 C.ar    1  UNL1       -0.0750
     63 C         -32.7420   11.5350   30.6160 C.ar    1  UNL1       -0.0820
     64 H         -34.2390   12.7150   29.6070 H       1  UNL1        0.0840
     65 C         -31.3970   11.4440   30.9880 C.ar    1  UNL1       -0.0830
     66 H         -33.4400   10.7440   30.8880 H       1  UNL1        0.0830
     67 C         -30.5150   12.4570   30.6380 C.ar    1  UNL1       -0.0820
     68 H         -31.0380   10.5820   31.5510 H       1  UNL1        0.0830
     69 C         -30.9590   13.5630   29.9170 C.ar    1  UNL1       -0.0750
     70 H         -29.4670   12.3830   30.9320 H       1  UNL1        0.0830
     71 H         -30.2590   14.3540   29.6450 H       1  UNL1        0.0840
     72 C         -29.8540   13.7380   22.9320 C.3     1  UNL1       -0.0390
     73 H         -28.8260   13.9120   23.2540 H       1  UNL1        0.0360
     74 H         -30.0740   12.9420   22.2220 H       1  UNL1        0.0360
     75 C         -30.3860   15.1060   22.2900 C.3     1  UNL1       -0.0010
     76 C         -31.0860   14.8050   20.8330 C.3     1  UNL1       -0.0350
     77 C         -30.5480   15.6370   19.9090 C.3     1  UNL1        0.0850
     78 H         -30.8020   13.8140   20.4790 H       1  UNL1        0.0360
     79 H         -32.1370   15.0950   20.8560 H       1  UNL1        0.0360
     80 N         -29.3170   16.2500   20.5320 N.4     1  UNL1       -0.0490
     81 H         -30.2460   14.9960   19.0810 H       1  UNL1        0.0750
     82 H         -31.2920   16.4170   19.7520 H       1  UNL1        0.0750
     83 C         -29.4210   15.9460   22.1140 C.3     1  UNL1        0.1930
     84 H         -28.5260   15.7450   20.1590 H       1  UNL1        0.2800
     85 H         -29.3920   17.2470   20.3900 H       1  UNL1        0.2800
     86 H         -29.7130   16.7320   22.8110 H       1  UNL1        0.1290
     87 H         -30.9580   15.7010   23.0010 H       1  UNL1        0.0460
     88 O         -28.1750   15.4460   22.6030 O.3     1  UNL1       -0.3690
     89 H         -27.5510   16.1710   22.6880 H       1  UNL1        0.2120
     90 C         -32.3800    9.4460   23.1230 C.3     1  UNL1       -0.0350
     91 H         -33.2100    9.9390   22.6170 H       1  UNL1        0.0370
     92 H         -31.3530    9.6740   22.8340 H       1  UNL1        0.0370
     93 C         -32.5730    7.9130   22.8940 C.3     1  UNL1       -0.0590
     94 H         -33.6440    7.7120   22.8900 H       1  UNL1        0.0380
     95 C         -31.9940    7.4450   21.5210 C.3     1  UNL1       -0.0730
     96 H         -32.8080    7.3150   20.8090 H       1  UNL1        0.0280
     97 H         -31.2990    8.1950   21.1440 H       1  UNL1        0.0280
     98 H         -31.4700    6.4980   21.6520 H       1  UNL1        0.0280
     99 C         -31.9640    7.1080   24.0450 C.3     1  UNL1       -0.0730
    100 H         -32.1950    6.0510   23.9120 H       1  UNL1        0.0280
    101 H         -30.8820    7.2450   24.0530 H       1  UNL1        0.0280
    102 H         -32.3790    7.4550   24.9910 H       1  UNL1        0.0280
@<TRIPOS>BOND
     1    81    77    1
     2    82    77    1
     3    77    80    1
     4    77    76    1
     5    84    80    1
     6    85    80    1
     7    78    76    1
     8    80    83    1
     9    96    95    1
    10    76    79    1
    11    76    75    1
    12    97    95    1
    13    95    98    1
    14    95    93    1
    15    83    75    1
    16    83    88    1
    17    83    86    1
    18    74    72    1
    19    75    72    1
    20    75    87    1
    21    88    89    1
    22    91    90    1
    23    92    90    1
    24    94    93    1
    25    93    90    1
    26    93    99    1
    27    72    73    1
    28    72    47    1
    29    46    45    1
    30    90     1    1
    31    32    29    1
    32    30    29    1
    33    41    39    1
    34    31    29    1
    35   100    99    1
    36    45    47    1
    37    45    43   am
    38    29    13    1
    39    99   101    1
    40    99   102    1
    41     6     3    1
    42    51    49    1
    43    47    49    1
    44    47    48    1
    45    40    39    1
    46    50    49    1
    47    42    39    1
    48    39    33    1
    49     1     3    1
    50     1    43    1
    51     1     2    1
    52    49    52    1
    53    12     9    1
    54     3     4   am
    55    43    44    2
    56    22    20    1
    57    18    15    1
    58    13    14    1
    59    13    15    1
    60    13    10    1
    61     9    10   am
    62     9     7    1
    63    56    55    2
    64    15    16   am
    65    34    33    1
    66    33     7    1
    67    33    35    1
    68    27    25    1
    69    52    54    1
    70    52    55    1
    71    52    53    1
    72     4     7    1
    73     4     5    2
    74    10    11    2
    75    20    19   ar
    76    20    21   ar
    77     7     8    1
    78    55    57    1
    79    36    35    1
    80    26    25    1
    81    16    19    1
    82    16    17    2
    83    25    21    1
    84    25    28    1
    85    35    37    1
    86    35    38    1
    87    19    24   ar
    88    21    23   ar
    89    57    58    1
    90    59    58    1
    91    23    24   ar
    92    58    60    1
    93    58    61    1
    94    61    62   ar
    95    61    69   ar
    96    64    62    1
    97    71    69    1
    98    62    63   ar
    99    69    67   ar
   100    63    66    1
   101    63    65   ar
   102    67    70    1
   103    67    65   ar
   104    65    68    1
@<TRIPOS>MOLECULE
crystal_redock_e8_er3_1.pdbqt
 102 104 0 0 0
SMALL
GASTEIGER

@<TRIPOS>ATOM
      1 C         -32.4990    9.5350   25.5080 C.3     1  UNL1        0.0890
      2 H         -31.8410    8.6810   25.6670 H       1  UNL1        0.0870
      3 N         -33.5130    9.5080   26.5510 N.am    1  UNL1       -0.3460
      4 C         -33.5280    8.3970   27.5710 C.2     1  UNL1        0.2410
      5 O         -32.7150    7.5340   27.5290 O.2     1  UNL1       -0.2710
      6 H         -34.1980   10.2510   26.5680 H       1  UNL1        0.1630
      7 C         -34.5810    8.3890   28.6470 C.3     1  UNL1        0.0920
      8 H         -34.4360    7.5160   29.2840 H       1  UNL1        0.0880
      9 N         -34.4250    9.5750   29.4950 N.am    1  UNL1       -0.3460
     10 C         -34.2870    9.4270   30.9230 C.2     1  UNL1        0.2400
     11 O         -34.3010    8.3610   31.4070 O.2     1  UNL1       -0.2710
     12 H         -34.4120   10.5010   29.0920 H       1  UNL1        0.1630
     13 C         -34.1230   10.6930   31.8200 C.3     1  UNL1        0.0860
     14 H         -33.3490   10.5750   32.5780 H       1  UNL1        0.0860
     15 N         -33.7220   11.8130   30.9850 N.am    1  UNL1       -0.3430
     16 C         -32.3080   11.9890   30.6440 C.2     1  UNL1        0.2730
     17 O         -31.5020   11.2250   31.0490 O.2     1  UNL1       -0.2660
     18 H         -34.4170   12.4620   30.6460 H       1  UNL1        0.1630
     19 C         -31.8700   13.1680   29.7620 C.ar    1  UNL1        0.1540
     20 C         -32.6170   14.3530   29.4680 C.ar    1  UNL1       -0.0170
     21 C         -31.7770   15.1110   28.6220 C.ar    1  UNL1        0.0770
     22 H         -33.6140   14.6210   29.8160 H       1  UNL1        0.0910
     23 O         -30.6790   14.4330   28.4570 O.2     1  UNL1       -0.2180
     24 N         -30.7100   13.2950   29.1120 N.ar    1  UNL1       -0.1230
     25 C         -32.0980   16.4710   28.0180 C.3     1  UNL1       -0.0290
     26 H         -31.2030   16.8830   27.5530 H       1  UNL1        0.0360
     27 H         -32.8790   16.3590   27.2650 H       1  UNL1        0.0360
     28 H         -32.4440   17.1450   28.8010 H       1  UNL1        0.0360
     29 C         -35.4320   11.0000   32.5030 C.3     1  UNL1       -0.0490
     30 H         -36.2100   10.3490   32.1060 H       1  UNL1        0.0300
     31 H         -35.3290   10.8330   33.5750 H       1  UNL1        0.0300
     32 H         -35.7010   12.0410   32.3210 H       1  UNL1        0.0300
     33 C         -35.9930    8.4060   27.9910 C.3     1  UNL1       -0.0330
     34 H         -36.0420    9.2780   27.3390 H       1  UNL1        0.0420
     35 C         -36.2230    7.1430   27.1040 C.3     1  UNL1       -0.0710
     36 H         -37.2910    6.9330   27.0410 H       1  UNL1        0.0280
     37 H         -35.8290    7.3250   26.1040 H       1  UNL1        0.0280
     38 H         -35.7110    6.2900   27.5470 H       1  UNL1        0.0280
     39 C         -37.1110    8.5490   29.0740 C.3     1  UNL1       -0.0710
     40 H         -37.1410    7.6470   29.6860 H       1  UNL1        0.0280
     41 H         -36.8970    9.4110   29.7060 H       1  UNL1        0.0280
     42 H         -38.0750    8.6890   28.5840 H       1  UNL1        0.0280
     43 C         -31.7360   10.8880   25.5930 C.2     1  UNL1        0.2400
     44 O         -30.9340   11.0610   26.4530 O.2     1  UNL1       -0.2710
     45 N         -31.9990   11.9660   24.5970 N.am    1  UNL1       -0.3550
     46 H         -32.6750   11.8290   23.8600 H       1  UNL1        0.1620
     47 C         -31.2640   13.2460   24.6910 C.3     1  UNL1        0.0130
     48 H         -30.5720   13.1740   25.5300 H       1  UNL1        0.0720
     49 C         -32.2480   14.3700   24.9270 C.3     1  UNL1       -0.0380
     50 H         -31.7180   15.1010   25.5380 H       1  UNL1        0.0360
     51 H         -32.6170   14.6490   23.9400 H       1  UNL1        0.0360
     52 C         -33.4800   13.9270   25.7450 C.3     1  UNL1        0.0180
     53 H         -33.7720   12.9600   25.3380 H       1  UNL1        0.0480
     54 H         -33.1850   14.0120   26.7920 H       1  UNL1        0.0480
     55 C         -34.7140   14.8560   25.5710 C.2     1  UNL1        0.2590
     56 O         -35.2470   14.9580   24.5140 O.2     1  UNL1       -0.2650
     57 O         -35.1930   15.5940   26.6880 O.3     1  UNL1       -0.3170
     58 C         -35.9100   16.7810   26.3380 C.3     1  UNL1        0.0520
     59 H         -36.0970   16.7070   25.2660 H       1  UNL1        0.0820
     60 H         -36.7460   16.8380   27.0340 H       1  UNL1        0.0820
     61 C         -34.9780   17.9960   26.5910 C.ar    1  UNL1       -0.0340
     62 C         -35.0180   18.6630   27.8110 C.ar    1  UNL1       -0.0750
     63 C         -34.1810   19.7540   28.0380 C.ar    1  UNL1       -0.0820
     64 H         -35.7060   18.3310   28.5890 H       1  UNL1        0.0840
     65 C         -33.3020   20.1800   27.0390 C.ar    1  UNL1       -0.0830
     66 H         -34.2140   20.2740   28.9960 H       1  UNL1        0.0830
     67 C         -33.2680   19.5130   25.8220 C.ar    1  UNL1       -0.0820
     68 H         -32.6440   21.0310   27.2080 H       1  UNL1        0.0830
     69 C         -34.1010   18.4200   25.5910 C.ar    1  UNL1       -0.0750
     70 H         -32.5820   19.8490   25.0430 H       1  UNL1        0.0830
     71 H         -34.0670   17.9010   24.6320 H       1  UNL1        0.0840
     72 C         -30.5010   13.4990   23.3930 C.3     1  UNL1       -0.0390
     73 H         -29.4680   13.2200   23.6050 H       1  UNL1        0.0360
     74 H         -31.0600   12.9720   22.6200 H       1  UNL1        0.0360
     75 C         -30.4990   15.0520   23.0000 C.3     1  UNL1       -0.0010
     76 C         -31.3000   15.2710   21.5810 C.3     1  UNL1       -0.0350
     77 C         -30.5140   15.9890   20.7430 C.3     1  UNL1        0.0850
     78 H         -31.4160   14.3180   21.0660 H       1  UNL1        0.0360
     79 H         -32.1640   15.9170   21.7350 H       1  UNL1        0.0360
     80 N         -29.1270   15.9990   21.3390 N.4     1  UNL1       -0.0490
     81 H         -30.4960   15.4280   19.8090 H       1  UNL1        0.0750
     82 H         -30.9160   17.0020   20.7630 H       1  UNL1        0.0750
     83 C         -29.2950   15.4990   22.8640 C.3     1  UNL1        0.1930
     84 H         -28.5920   15.3090   20.8310 H       1  UNL1        0.2800
     85 H         -28.8270   16.9640   21.3480 H       1  UNL1        0.2800
     86 H         -29.2540   16.2110   23.6880 H       1  UNL1        0.1290
     87 H         -30.7880   15.6900   23.8360 H       1  UNL1        0.0460
     88 O         -28.3140   14.5060   23.1680 O.3     1  UNL1       -0.3690
     89 H         -27.5220   14.6690   22.6520 H       1  UNL1        0.2120
     90 C         -33.1780    9.4160   24.1530 C.3     1  UNL1       -0.0350
     91 H         -33.6440   10.3850   23.9770 H       1  UNL1        0.0370
     92 H         -32.4070    9.0510   23.4740 H       1  UNL1        0.0370
     93 C         -34.3300    8.3610   24.1200 C.3     1  UNL1       -0.0590
     94 H         -34.8520    8.4110   25.0750 H       1  UNL1        0.0380
     95 C         -35.3700    8.6590   22.9920 C.3     1  UNL1       -0.0730
     96 H         -35.6140    7.7350   22.4690 H       1  UNL1        0.0280
     97 H         -36.2750    9.0760   23.4340 H       1  UNL1        0.0280
     98 H         -34.9470    9.3750   22.2880 H       1  UNL1        0.0280
     99 C         -33.7690    6.9440   23.9820 C.3     1  UNL1       -0.0730
    100 H         -33.6190    6.5140   24.9730 H       1  UNL1        0.0280
    101 H         -34.4710    6.3270   23.4210 H       1  UNL1        0.0280
    102 H         -32.8160    6.9790   23.4540 H       1  UNL1        0.0280
@<TRIPOS>BOND
     1    81    77    1
     2    77    82    1
     3    77    80    1
     4    77    76    1
     5    84    80    1
     6    78    76    1
     7    80    85    1
     8    80    83    1
     9    76    79    1
    10    76    75    1
    11    98    95    1
    12    96    95    1
    13    74    72    1
    14    89    88    1
    15    83    75    1
    16    83    88    1
    17    83    86    1
    18    95    97    1
    19    95    93    1
    20    75    72    1
    21    75    87    1
    22    72    73    1
    23    72    47    1
    24   101    99    1
    25   102    99    1
    26    92    90    1
    27    46    45    1
    28    51    49    1
    29    91    90    1
    30    99    93    1
    31    99   100    1
    32    93    90    1
    33    93    94    1
    34    90     1    1
    35    56    55    2
    36    45    47    1
    37    45    43   am
    38    71    69    1
    39    47    49    1
    40    47    48    1
    41    49    50    1
    42    49    52    1
    43    70    67    1
    44    59    58    1
    45    53    52    1
    46     1    43    1
    47     1     2    1
    48     1     3    1
    49    55    52    1
    50    55    57    1
    51    69    67   ar
    52    69    61   ar
    53    43    44    2
    54    52    54    1
    55    67    65   ar
    56    37    35    1
    57    58    61    1
    58    58    57    1
    59    58    60    1
    60     3     6    1
    61     3     4   am
    62    61    62   ar
    63    65    68    1
    64    65    63   ar
    65    36    35    1
    66    35    38    1
    67    35    33    1
    68    27    25    1
    69    34    33    1
    70     5     4    2
    71    26    25    1
    72     4     7    1
    73    62    63   ar
    74    62    64    1
    75    33     7    1
    76    33    39    1
    77    25    21    1
    78    25    28    1
    79    63    66    1
    80    23    21   ar
    81    23    24   ar
    82    42    39    1
    83    21    20   ar
    84     7     8    1
    85     7     9    1
    86    39    40    1
    87    39    41    1
    88    12     9    1
    89    24    19   ar
    90    20    19   ar
    91    20    22    1
    92     9    10   am
    93    19    16    1
    94    16    15   am
    95    16    17    2
    96    18    15    1
    97    10    11    2
    98    10    13    1
    99    15    13    1
   100    13    29    1
   101    13    14    1
   102    30    29    1
   103    32    29    1
   104    29    31    1
@<TRIPOS>MOLECULE
crystal_redock_e8_er3_1.pdbqt
 102 104 0 0 0
SMALL
GASTEIGER

@<TRIPOS>ATOM
      1 C         -33.0940   11.8370   28.4420 C.3     1  UNL1        0.0890
      2 H         -33.2980   12.1900   29.4530 H       1  UNL1        0.0870
      3 N         -33.6760   10.5090   28.3160 N.am    1  UNL1       -0.3460
      4 C         -34.2220    9.7990   29.5280 C.2     1  UNL1        0.2410
      5 O         -34.1800   10.3140   30.5960 O.2     1  UNL1       -0.2710
      6 H         -33.7000   10.0870   27.3980 H       1  UNL1        0.1630
      7 C         -34.8260    8.4270   29.3780 C.3     1  UNL1        0.0920
      8 H         -35.7280    8.4970   28.7700 H       1  UNL1        0.0880
      9 N         -33.8880    7.5560   28.6630 N.am    1  UNL1       -0.3460
     10 C         -34.1440    7.1950   27.2900 C.2     1  UNL1        0.2400
     11 O         -35.1000    7.5960   26.7460 O.2     1  UNL1       -0.2710
     12 H         -33.0600    7.2010   29.1190 H       1  UNL1        0.1630
     13 C         -33.1440    6.2650   26.5350 C.3     1  UNL1        0.0860
     14 H         -33.6390    5.6000   25.8280 H       1  UNL1        0.0860
     15 N         -32.2280    7.0860   25.7620 N.am    1  UNL1       -0.3430
     16 C         -32.5450    7.4040   24.3680 C.2     1  UNL1        0.2730
     17 O         -33.5380    6.9920   23.8770 O.2     1  UNL1       -0.2660
     18 H         -31.3800    7.4320   26.1890 H       1  UNL1        0.1630
     19 C         -31.5860    8.2730   23.5390 C.ar    1  UNL1        0.1540
     20 C         -31.3840    9.6860   23.6500 C.ar    1  UNL1       -0.0170
     21 C         -30.4090    9.9910   22.6750 C.ar    1  UNL1        0.0770
     22 H         -31.8700   10.3820   24.3340 H       1  UNL1        0.0910
     23 O         -30.0930    8.8780   22.0800 O.2     1  UNL1       -0.2180
     24 N         -30.7670    7.8620   22.5670 N.ar    1  UNL1       -0.1230
     25 C         -29.8330   11.3690   22.3760 C.3     1  UNL1       -0.0290
     26 H         -30.0430   11.6340   21.3400 H       1  UNL1        0.0360
     27 H         -30.2910   12.1050   23.0380 H       1  UNL1        0.0360
     28 H         -28.7560   11.3560   22.5370 H       1  UNL1        0.0360
     29 C         -32.3770    5.4330   27.5310 C.3     1  UNL1       -0.0490
     30 H         -31.4000    5.8830   27.7050 H       1  UNL1        0.0300
     31 H         -32.9290    5.3900   28.4700 H       1  UNL1        0.0300
     32 H         -32.2480    4.4240   27.1390 H       1  UNL1        0.0300
     33 C         -35.1130    7.8300   30.7860 C.3     1  UNL1       -0.0330
     34 H         -34.3940    8.2640   31.4810 H       1  UNL1        0.0420
     35 C         -36.5400    8.2160   31.2870 C.3     1  UNL1       -0.0710
     36 H         -37.2620    8.0540   30.4860 H       1  UNL1        0.0280
     37 H         -36.8040    7.5970   32.1440 H       1  UNL1        0.0280
     38 H         -36.5510    9.2660   31.5790 H       1  UNL1        0.0280
     39 C         -34.9120    6.2800   30.7890 C.3     1  UNL1       -0.0710
     40 H         -35.7880    5.7990   30.3530 H       1  UNL1        0.0280
     41 H         -34.0290    6.0270   30.2010 H       1  UNL1        0.0280
     42 H         -34.7780    5.9330   31.8130 H       1  UNL1        0.0280
     43 C         -33.7240   12.7600   27.3600 C.2     1  UNL1        0.2400
     44 O         -33.6940   12.4360   26.2170 O.2     1  UNL1       -0.2710
     45 N         -34.3740   14.0440   27.7490 N.am    1  UNL1       -0.3550
     46 H         -34.4100   14.3270   28.7180 H       1  UNL1        0.1620
     47 C         -34.9700   14.9090   26.7080 C.3     1  UNL1        0.0130
     48 H         -34.5500   14.6150   25.7470 H       1  UNL1        0.0720
     49 C         -34.6280   16.3520   27.0020 C.3     1  UNL1       -0.0380
     50 H         -34.8100   16.8930   26.0730 H       1  UNL1        0.0360
     51 H         -35.1870   16.6090   27.9020 H       1  UNL1        0.0360
     52 C         -33.1350   16.5570   27.3410 C.3     1  UNL1        0.0180
     53 H         -33.1190   17.0610   28.3070 H       1  UNL1        0.0480
     54 H         -32.6700   15.5770   27.2300 H       1  UNL1        0.0480
     55 C         -32.3920   17.4990   26.3530 C.2     1  UNL1        0.2590
     56 O         -32.1090   18.6070   26.6750 O.2     1  UNL1       -0.2650
     57 O         -32.0650   17.0260   25.0520 O.3     1  UNL1       -0.3170
     58 C         -31.2190   15.8720   25.0480 C.3     1  UNL1        0.0520
     59 H         -30.3890   16.1130   25.7140 H       1  UNL1        0.0820
     60 H         -31.8700   15.0280   25.2720 H       1  UNL1        0.0820
     61 C         -30.6600   15.6930   23.6120 C.ar    1  UNL1       -0.0340
     62 C         -31.3990   16.1310   22.5170 C.ar    1  UNL1       -0.0750
     63 C         -30.8980   15.9700   21.2260 C.ar    1  UNL1       -0.0820
     64 H         -32.3720   16.5990   22.6700 H       1  UNL1        0.0840
     65 C         -29.6520   15.3660   21.0320 C.ar    1  UNL1       -0.0830
     66 H         -31.4790   16.3150   20.3710 H       1  UNL1        0.0830
     67 C         -28.9200   14.9280   22.1270 C.ar    1  UNL1       -0.0820
     68 H         -29.2530   15.2370   20.0260 H       1  UNL1        0.0830
     69 C         -29.4160   15.0890   23.4190 C.ar    1  UNL1       -0.0750
     70 H         -27.9500   14.4550   21.9720 H       1  UNL1        0.0830
     71 H         -28.8350   14.7430   24.2740 H       1  UNL1        0.0840
     72 C         -36.4870   14.7360   26.7000 C.3     1  UNL1       -0.0390
     73 H         -36.7320   14.2700   27.6550 H       1  UNL1        0.0360
     74 H         -36.8900   15.7190   26.4550 H       1  UNL1        0.0360
     75 C         -36.9630   13.7290   25.5480 C.3     1  UNL1       -0.0010
     76 C         -38.2130   14.3890   24.7080 C.3     1  UNL1       -0.0350
     77 C         -39.2260   13.4910   24.6560 C.3     1  UNL1        0.0850
     78 H         -38.6400   15.2220   25.2670 H       1  UNL1        0.0360
     79 H         -37.9340   14.5200   23.6630 H       1  UNL1        0.0360
     80 N         -38.9080   12.4080   25.6590 N.4     1  UNL1       -0.0490
     81 H         -40.1120   14.0330   24.9870 H       1  UNL1        0.0750
     82 H         -39.1880   13.0680   23.6530 H       1  UNL1        0.0750
     83 C         -37.3520   12.6020   26.0430 C.3     1  UNL1        0.1930
     84 H         -39.4670   12.6020   26.4770 H       1  UNL1        0.2800
     85 H         -39.0120   11.5290   25.1720 H       1  UNL1        0.2800
     86 H         -36.5930   11.9340   25.6350 H       1  UNL1        0.1290
     87 H         -36.1250   13.3420   24.9670 H       1  UNL1        0.0460
     88 O         -37.1840   12.5500   27.4610 O.3     1  UNL1       -0.3690
     89 H         -37.9700   12.8960   27.8890 H       1  UNL1        0.2120
     90 C         -31.5920   11.7440   28.2230 C.3     1  UNL1       -0.0350
     91 H         -31.3390   10.7000   28.4030 H       1  UNL1        0.0370
     92 H         -31.4160   12.1870   27.2420 H       1  UNL1        0.0370
     93 C         -30.7570   12.5820   29.2420 C.3     1  UNL1       -0.0590
     94 H         -29.7920   12.0900   29.3630 H       1  UNL1        0.0380
     95 C         -30.4900   14.0350   28.7330 C.3     1  UNL1       -0.0730
     96 H         -30.2530   14.6790   29.5780 H       1  UNL1        0.0280
     97 H         -29.6520   14.0270   28.0360 H       1  UNL1        0.0280
     98 H         -31.3790   14.4110   28.2270 H       1  UNL1        0.0280
     99 C         -31.4320   12.6030   30.6160 C.3     1  UNL1       -0.0730
    100 H         -31.0930   13.4760   31.1750 H       1  UNL1        0.0280
    101 H         -32.5140   12.6500   30.4890 H       1  UNL1        0.0280
    102 H         -31.1710   11.6970   31.1630 H       1  UNL1        0.0280
@<TRIPOS>BOND
     1    68    65    1
     2    66    63    1
     3    65    63   ar
     4    65    67   ar
     5    63    62   ar
     6    26    25    1
     7    70    67    1
     8    23    24   ar
     9    23    21   ar
    10    67    69   ar
    11    25    28    1
    12    25    21    1
    13    25    27    1
    14    62    64    1
    15    62    61   ar
    16    24    19   ar
    17    21    20   ar
    18    69    61   ar
    19    69    71    1
    20    19    20   ar
    21    19    16    1
    22    61    58    1
    23    20    22    1
    24    82    77    1
    25    79    76    1
    26    17    16    2
    27    16    15   am
    28    77    76    1
    29    77    81    1
    30    77    80    1
    31    76    78    1
    32    76    75    1
    33    87    75    1
    34    58    57    1
    35    58    60    1
    36    58    59    1
    37    57    55    1
    38    85    80    1
    39    75    83    1
    40    75    72    1
    41    86    83    1
    42    80    83    1
    43    80    84    1
    44    48    47    1
    45    15    18    1
    46    15    13    1
    47    14    13    1
    48    83    88    1
    49    50    49    1
    50    44    43    2
    51    55    56    2
    52    55    52    1
    53    74    72    1
    54    13    10    1
    55    13    29    1
    56    72    47    1
    57    72    73    1
    58    47    49    1
    59    47    45    1
    60    11    10    2
    61    49    52    1
    62    49    51    1
    63    32    29    1
    64    54    52    1
    65    92    90    1
    66    10     9   am
    67    52    53    1
    68    43    45   am
    69    43     1    1
    70     6     3    1
    71    88    89    1
    72    29    30    1
    73    29    31    1
    74    45    46    1
    75    97    95    1
    76    90    91    1
    77    90     1    1
    78    90    93    1
    79    98    95    1
    80     3     1    1
    81     3     4   am
    82     1     2    1
    83     9    12    1
    84     9     7    1
    85    95    93    1
    86    95    96    1
    87     8     7    1
    88    93    94    1
    89    93    99    1
    90     7     4    1
    91     7    33    1
    92     4     5    2
    93    41    39    1
    94    40    39    1
    95    36    35    1
    96   101    99    1
    97    99   102    1
    98    99   100    1
    99    33    39    1
   100    33    35    1
   101    33    34    1
   102    39    42    1
   103    35    38    1
   104    35    37    1
@<TRIPOS>MOLECULE
crystal_redock_e8_er3_1.pdbqt
 102 104 0 0 0
SMALL
GASTEIGER

@<TRIPOS>ATOM
      1 C         -32.0350    9.8260   24.9240 C.3     1  UNL1        0.0890
      2 H         -31.5060    8.9280   25.2440 H       1  UNL1        0.0870
      3 N         -33.4360    9.6600   25.2790 N.am    1  UNL1       -0.3460
      4 C         -34.0410    8.2820   25.3700 C.2     1  UNL1        0.2410
      5 O         -33.3800    7.3210   25.1500 O.2     1  UNL1       -0.2710
      6 H         -33.9820   10.4910   25.4600 H       1  UNL1        0.1630
      7 C         -35.4920    8.1280   25.7430 C.3     1  UNL1        0.0920
      8 H         -35.6490    7.1370   26.1690 H       1  UNL1        0.0880
      9 N         -35.8350    9.1050   26.7810 N.am    1  UNL1       -0.3460
     10 C         -35.6830    8.7610   28.1730 C.2     1  UNL1        0.2400
     11 O         -35.2860    7.7030   28.4770 O.2     1  UNL1       -0.2710
     12 H         -36.1810   10.0220   26.5340 H       1  UNL1        0.1630
     13 C         -36.0530    9.8050   29.2730 C.3     1  UNL1        0.0860
     14 H         -36.1580    9.3570   30.2610 H       1  UNL1        0.0860
     15 N         -34.9850   10.7850   29.3720 N.am    1  UNL1       -0.3430
     16 C         -33.8600   10.5370   30.2770 C.2     1  UNL1        0.2730
     17 O         -33.8260    9.5480   30.9220 O.2     1  UNL1       -0.2660
     18 H         -35.0230   11.6290   28.8180 H       1  UNL1        0.1630
     19 C         -32.7230   11.5640   30.3900 C.ar    1  UNL1        0.1540
     20 C         -32.6320   12.8310   29.7300 C.ar    1  UNL1       -0.0170
     21 C         -31.4070   13.3810   30.1670 C.ar    1  UNL1        0.0770
     22 H         -33.3460   13.2810   29.0410 H       1  UNL1        0.0910
     23 O         -30.8660   12.5240   30.9830 O.2     1  UNL1       -0.2180
     24 N         -31.6140   11.4560   31.1280 N.ar    1  UNL1       -0.1230
     25 C         -30.8280   14.7300   29.7590 C.3     1  UNL1       -0.0290
     26 H         -29.8560   14.8660   30.2320 H       1  UNL1        0.0360
     27 H         -30.7120   14.7620   28.6760 H       1  UNL1        0.0360
     28 H         -31.5010   15.5250   30.0760 H       1  UNL1        0.0360
     29 C         -37.3470   10.4860   28.9070 C.3     1  UNL1       -0.0490
     30 H         -37.3740   10.6610   27.8320 H       1  UNL1        0.0300
     31 H         -38.1850    9.8510   29.1930 H       1  UNL1        0.0300
     32 H         -37.4170   11.4390   29.4320 H       1  UNL1        0.0300
     33 C         -36.3790    8.3740   24.4880 C.3     1  UNL1       -0.0330
     34 H         -35.7240    8.3800   23.6180 H       1  UNL1        0.0420
     35 C         -37.4130    7.2220   24.2890 C.3     1  UNL1       -0.0710
     36 H         -38.4190    7.6010   24.4660 H       1  UNL1        0.0280
     37 H         -37.3420    6.8430   23.2690 H       1  UNL1        0.0280
     38 H         -37.2000    6.4170   24.9920 H       1  UNL1        0.0280
     39 C         -37.0890    9.7640   24.5690 C.3     1  UNL1       -0.0710
     40 H         -36.6250   10.4500   23.8610 H       1  UNL1        0.0280
     41 H         -38.1450    9.6470   24.3240 H       1  UNL1        0.0280
     42 H         -36.9930   10.1630   25.5790 H       1  UNL1        0.0280
     43 C         -31.4950   11.1060   25.6250 C.2     1  UNL1        0.2400
     44 O         -31.0010   11.0250   26.7030 O.2     1  UNL1       -0.2710
     45 N         -31.5850   12.4310   24.9480 N.am    1  UNL1       -0.3550
     46 H         -31.9970   12.5110   24.0300 H       1  UNL1        0.1620
     47 C         -31.0650   13.6370   25.6270 C.3     1  UNL1        0.0130
     48 H         -30.2900   13.3220   26.3250 H       1  UNL1        0.0720
     49 C         -32.1910   14.3130   26.3760 C.3     1  UNL1       -0.0380
     50 H         -32.1730   13.8890   27.3810 H       1  UNL1        0.0360
     51 H         -32.0400   15.3830   26.2330 H       1  UNL1        0.0360
     52 C         -33.5820   13.9860   25.7900 C.3     1  UNL1        0.0180
     53 H         -33.7700   14.7460   25.0330 H       1  UNL1        0.0480
     54 H         -33.5440   12.9330   25.5080 H       1  UNL1        0.0480
     55 C         -34.7400   14.1110   26.8190 C.2     1  UNL1        0.2590
     56 O         -35.2980   13.1420   27.2200 O.2     1  UNL1       -0.2650
     57 O         -35.1370   15.4010   27.2680 O.3     1  UNL1       -0.3170
     58 C         -35.1910   16.3870   26.2320 C.3     1  UNL1        0.0520
     59 H         -34.8130   15.8940   25.3360 H       1  UNL1        0.0820
     60 H         -36.2080   16.7780   26.2510 H       1  UNL1        0.0820
     61 C         -34.2170   17.5340   26.6110 C.ar    1  UNL1       -0.0340
     62 C         -34.0460   18.6140   25.7520 C.ar    1  UNL1       -0.0750
     63 C         -33.1700   19.6450   26.0910 C.ar    1  UNL1       -0.0820
     64 H         -34.5970   18.6540   24.8120 H       1  UNL1        0.0840
     65 C         -32.4620   19.5910   27.2950 C.ar    1  UNL1       -0.0830
     66 H         -33.0390   20.4910   25.4160 H       1  UNL1        0.0830
     67 C         -32.6340   18.5090   28.1480 C.ar    1  UNL1       -0.0820
     68 H         -31.7760   20.3920   27.5680 H       1  UNL1        0.0830
     69 C         -33.5100   17.4780   27.8130 C.ar    1  UNL1       -0.0750
     70 H         -32.0790   18.4680   29.0850 H       1  UNL1        0.0830
     71 H         -33.6400   16.6320   28.4890 H       1  UNL1        0.0840
     72 C         -30.4890   14.6040   24.5940 C.3     1  UNL1       -0.0390
     73 H         -30.8350   15.5920   24.8970 H       1  UNL1        0.0360
     74 H         -29.4210   14.3880   24.5590 H       1  UNL1        0.0360
     75 C         -31.0760   14.3260   23.1300 C.3     1  UNL1       -0.0010
     76 C         -29.8500   13.9690   22.0930 C.3     1  UNL1       -0.0350
     77 C         -29.9600   14.7610   21.0000 C.3     1  UNL1        0.0850
     78 H         -28.8960   14.2650   22.5270 H       1  UNL1        0.0360
     79 H         -29.9790   12.9640   21.6930 H       1  UNL1        0.0360
     80 N         -30.9510   15.8480   21.3390 N.4     1  UNL1       -0.0490
     81 H         -28.9750   15.2080   20.8640 H       1  UNL1        0.0750
     82 H         -30.3810   14.1260   20.2210 H       1  UNL1        0.0750
     83 C         -31.7090   15.3560   22.6760 C.3     1  UNL1        0.1930
     84 H         -30.4090   16.6710   21.5600 H       1  UNL1        0.2800
     85 H         -31.6190   15.8720   20.5810 H       1  UNL1        0.2800
     86 H         -32.7230   14.9580   22.6240 H       1  UNL1        0.1290
     87 H         -31.9240   13.6410   23.1480 H       1  UNL1        0.0460
     88 O         -31.7640   16.4180   23.6310 O.3     1  UNL1       -0.3690
     89 H         -32.5810   16.9080   23.5170 H       1  UNL1        0.2120
     90 C         -31.9200    9.9820   23.4160 C.3     1  UNL1       -0.0350
     91 H         -32.9390    9.9080   23.0400 H       1  UNL1        0.0370
     92 H         -31.3480   10.8980   23.2640 H       1  UNL1        0.0370
     93 C         -31.1110    8.8370   22.7280 C.3     1  UNL1       -0.0590
     94 H         -30.8250    8.1230   23.5000 H       1  UNL1        0.0380
     95 C         -31.9620    8.0720   21.6640 C.3     1  UNL1       -0.0730
     96 H         -31.4980    8.1760   20.6840 H       1  UNL1        0.0280
     97 H         -32.0140    7.0170   21.9310 H       1  UNL1        0.0280
     98 H         -32.9690    8.4890   21.6360 H       1  UNL1        0.0280
     99 C         -29.8200    9.3760   22.1060 C.3     1  UNL1       -0.0730
    100 H         -29.5930   10.3550   22.5310 H       1  UNL1        0.0280
    101 H         -29.0000    8.6900   22.3180 H       1  UNL1        0.0280
    102 H         -29.9470    9.4680   21.0280 H       1  UNL1        0.0280
@<TRIPOS>BOND
     1    82    77    1
     2    85    80    1
     3    96    95    1
     4    81    77    1
     5    77    80    1
     6    77    76    1
     7   102    99    1
     8    80    84    1
     9    80    83    1
    10    98    95    1
    11    95    97    1
    12    95    93    1
    13    79    76    1
    14    76    78    1
    15    76    75    1
    16    99   101    1
    17    99   100    1
    18    99    93    1
    19    86    83    1
    20    83    75    1
    21    83    88    1
    22    93    90    1
    23    93    94    1
    24    91    90    1
    25    75    87    1
    26    75    72    1
    27    92    90    1
    28    37    35    1
    29    90     1    1
    30    89    88    1
    31    34    33    1
    32    40    39    1
    33    46    45    1
    34    35    36    1
    35    35    33    1
    36    35    38    1
    37    41    39    1
    38    33    39    1
    39    33     7    1
    40    74    72    1
    41    39    42    1
    42    72    73    1
    43    72    47    1
    44    64    62    1
    45     1     2    1
    46     1     3    1
    47     1    43    1
    48    45    43   am
    49    45    47    1
    50    53    52    1
    51     5     4    2
    52     3     4   am
    53     3     6    1
    54    59    58    1
    55     4     7    1
    56    66    63    1
    57    54    52    1
    58    43    44    2
    59    47    48    1
    60    47    49    1
    61     7     8    1
    62     7     9    1
    63    62    63   ar
    64    62    61   ar
    65    52    49    1
    66    52    55    1
    67    63    65   ar
    68    58    60    1
    69    58    61    1
    70    58    57    1
    71    51    49    1
    72    49    50    1
    73    12     9    1
    74    61    69   ar
    75     9    10   am
    76    55    56    2
    77    55    57    1
    78    65    68    1
    79    65    67   ar
    80    69    67   ar
    81    69    71    1
    82    30    29    1
    83    67    70    1
    84    10    11    2
    85    10    13    1
    86    27    25    1
    87    18    15    1
    88    29    31    1
    89    29    13    1
    90    29    32    1
    91    22    20    1
    92    13    15    1
    93    13    14    1
    94    15    16   am
    95    20    21   ar
    96    20    19   ar
    97    25    28    1
    98    25    21    1
    99    25    26    1
   100    21    23   ar
   101    16    19    1
   102    16    17    2
   103    19    24   ar
   104    23    24   ar
@<TRIPOS>MOLECULE
crystal_redock_e8_er3_1.pdbqt
 102 104 0 0 0
SMALL
GASTEIGER

@<TRIPOS>ATOM
      1 C         -36.6280   13.7980   26.3330 C.3     1  UNL1        0.0890
      2 H         -37.2470   13.8290   27.2310 H       1  UNL1        0.0870
      3 N         -36.2910   15.1700   25.9860 N.am    1  UNL1       -0.3460
      4 C         -36.9650   16.3210   26.6900 C.2     1  UNL1        0.2410
      5 O         -37.7780   16.1180   27.5300 O.2     1  UNL1       -0.2710
      6 H         -35.5980   15.3220   25.2670 H       1  UNL1        0.1630
      7 C         -36.6000   17.7360   26.3220 C.3     1  UNL1        0.0920
      8 H         -36.9520   18.4110   27.1010 H       1  UNL1        0.0880
      9 N         -35.1400   17.8650   26.2650 N.am    1  UNL1       -0.3460
     10 C         -34.3690   17.8720   27.4840 C.2     1  UNL1        0.2400
     11 O         -34.9070   17.7760   28.5190 O.2     1  UNL1       -0.2710
     12 H         -34.6630   17.9500   25.3790 H       1  UNL1        0.1630
     13 C         -32.8170   18.0120   27.4160 C.3     1  UNL1        0.0860
     14 H         -32.3040   17.3610   28.1230 H       1  UNL1        0.0860
     15 N         -32.3660   17.6260   26.0900 N.am    1  UNL1       -0.3430
     16 C         -31.8740   16.2650   25.8640 C.2     1  UNL1        0.2730
     17 O         -31.8420   15.4900   26.7560 O.2     1  UNL1       -0.2660
     18 H         -32.3930   18.2950   25.3340 H       1  UNL1        0.1630
     19 C         -31.3950   15.8420   24.4660 C.ar    1  UNL1        0.1540
     20 C         -30.5680   14.7210   24.1380 C.ar    1  UNL1       -0.0170
     21 C         -30.4220   14.7750   22.7340 C.ar    1  UNL1        0.0770
     22 H         -30.1390   13.9810   24.8150 H       1  UNL1        0.0910
     23 O         -31.0920   15.8080   22.3150 O.2     1  UNL1       -0.2180
     24 N         -31.6680   16.4470   23.3070 N.ar    1  UNL1       -0.1230
     25 C         -29.6290   13.8020   21.8720 C.3     1  UNL1       -0.0290
     26 H         -28.5700   14.0540   21.9200 H       1  UNL1        0.0360
     27 H         -29.7780   12.7870   22.2390 H       1  UNL1        0.0360
     28 H         -29.9720   13.8690   20.8390 H       1  UNL1        0.0360
     29 C         -32.4260   19.4410   27.6990 C.3     1  UNL1       -0.0490
     30 H         -31.9580   19.8710   26.8140 H       1  UNL1        0.0300
     31 H         -33.3150   20.0160   27.9550 H       1  UNL1        0.0300
     32 H         -31.7230   19.4680   28.5310 H       1  UNL1        0.0300
     33 C         -37.2030   18.0820   24.9290 C.3     1  UNL1       -0.0330
     34 H         -36.8320   17.3450   24.2180 H       1  UNL1        0.0420
     35 C         -38.7600   17.9770   24.9430 C.3     1  UNL1       -0.0710
     36 H         -39.1360   18.2760   25.9210 H       1  UNL1        0.0280
     37 H         -39.1750   18.6330   24.1780 H       1  UNL1        0.0280
     38 H         -39.0570   16.9480   24.7390 H       1  UNL1        0.0280
     39 C         -36.7340   19.4940   24.4520 C.3     1  UNL1       -0.0710
     40 H         -36.4810   19.4530   23.3920 H       1  UNL1        0.0280
     41 H         -37.5380   20.2150   24.6070 H       1  UNL1        0.0280
     42 H         -35.8580   19.7990   25.0240 H       1  UNL1        0.0280
     43 C         -35.3080   13.0050   26.5560 C.2     1  UNL1        0.2400
     44 O         -34.3450   13.2680   25.9120 O.2     1  UNL1       -0.2710
     45 N         -35.2440   11.9230   27.5790 N.am    1  UNL1       -0.3550
     46 H         -36.0550   11.6930   28.1360 H       1  UNL1        0.1620
     47 C         -33.9810   11.1790   27.7800 C.3     1  UNL1        0.0130
     48 H         -33.1790   11.7480   27.3120 H       1  UNL1        0.0720
     49 C         -34.0950    9.8170   27.1330 C.3     1  UNL1       -0.0380
     50 H         -35.0150    9.3810   27.5230 H       1  UNL1        0.0360
     51 H         -33.9840    9.9900   26.0620 H       1  UNL1        0.0360
     52 C         -32.9530    8.8620   27.5420 C.3     1  UNL1        0.0180
     53 H         -32.0390    9.3130   27.1560 H       1  UNL1        0.0480
     54 H         -33.0710    8.7010   28.6130 H       1  UNL1        0.0480
     55 C         -33.0470    7.4570   26.8850 C.2     1  UNL1        0.2590
     56 O         -33.7630    6.6250   27.3400 O.2     1  UNL1       -0.2650
     57 O         -32.2550    7.1690   25.7390 O.3     1  UNL1       -0.3170
     58 C         -32.8420    7.5910   24.5050 C.3     1  UNL1        0.0520
     59 H         -32.9410    6.6890   23.9010 H       1  UNL1        0.0820
     60 H         -33.7280    8.1620   24.7800 H       1  UNL1        0.0820
     61 C         -31.8420    8.5460   23.8000 C.ar    1  UNL1       -0.0340
     62 C         -31.8030    9.8930   24.1460 C.ar    1  UNL1       -0.0750
     63 C         -30.9050   10.7510   23.5130 C.ar    1  UNL1       -0.0820
     64 H         -32.4770   10.2770   24.9120 H       1  UNL1        0.0840
     65 C         -30.0450   10.2570   22.5280 C.ar    1  UNL1       -0.0830
     66 H         -30.8760   11.8050   23.7870 H       1  UNL1        0.0830
     67 C         -30.0890    8.9130   22.1840 C.ar    1  UNL1       -0.0820
     68 H         -29.3390   10.9210   22.0290 H       1  UNL1        0.0830
     69 C         -30.9840    8.0520   22.8160 C.ar    1  UNL1       -0.0750
     70 H         -29.4180    8.5320   21.4140 H       1  UNL1        0.0830
     71 H         -31.0120    6.9970   22.5410 H       1  UNL1        0.0840
     72 C         -33.7120   11.0120   29.2750 C.3     1  UNL1       -0.0390
     73 H         -34.6910   11.0600   29.7530 H       1  UNL1        0.0360
     74 H         -33.1070   10.1100   29.3620 H       1  UNL1        0.0360
     75 C         -32.8420   12.2240   29.8590 C.3     1  UNL1       -0.0010
     76 C         -31.6160   12.5820   28.8230 C.3     1  UNL1       -0.0350
     77 C         -30.4520   12.6050   29.5160 C.3     1  UNL1        0.0850
     78 H         -31.4740   11.7670   28.1140 H       1  UNL1        0.0360
     79 H         -31.7180   13.6060   28.4630 H       1  UNL1        0.0360
     80 N         -30.7260   11.9750   30.8600 N.4     1  UNL1       -0.0490
     81 H         -29.7680   11.9670   28.9570 H       1  UNL1        0.0750
     82 H         -30.2190   13.6600   29.6590 H       1  UNL1        0.0750
     83 C         -32.3330   11.9230   31.0070 C.3     1  UNL1        0.1930
     84 H         -30.3770   11.0290   30.8090 H       1  UNL1        0.2800
     85 H         -30.3600   12.6120   31.5540 H       1  UNL1        0.2800
     86 H         -32.8540   12.6350   31.6470 H       1  UNL1        0.1290
     87 H         -33.4630   13.0530   30.1980 H       1  UNL1        0.0460
     88 O         -32.7450   10.6310   31.4570 O.3     1  UNL1       -0.3690
     89 H         -31.9910   10.1660   31.8280 H       1  UNL1        0.2120
     90 C         -37.4120   13.1750   25.1890 C.3     1  UNL1       -0.0350
     91 H         -36.7070   12.5170   24.6810 H       1  UNL1        0.0370
     92 H         -38.3110   12.7620   25.6460 H       1  UNL1        0.0370
     93 C         -37.8940   14.2100   24.1230 C.3     1  UNL1       -0.0590
     94 H         -37.4530   15.1750   24.3760 H       1  UNL1        0.0380
     95 C         -37.4230   13.8350   22.6820 C.3     1  UNL1       -0.0730
     96 H         -38.0680   14.3200   21.9500 H       1  UNL1        0.0280
     97 H         -36.3950   14.1690   22.5360 H       1  UNL1        0.0280
     98 H         -37.4750   12.7540   22.5520 H       1  UNL1        0.0280
     99 C         -39.4140   14.3780   24.1730 C.3     1  UNL1       -0.0730
    100 H         -39.6620   15.4380   24.2260 H       1  UNL1        0.0280
    101 H         -39.8580   13.9470   23.2750 H       1  UNL1        0.0280
    102 H         -39.8080   13.8680   25.0520 H       1  UNL1        0.0280
@<TRIPOS>BOND
     1    28    25    1
     2    70    67    1
     3    25    26    1
     4    25    27    1
     5    25    21    1
     6    96    95    1
     7    68    65    1
     8    67    65   ar
     9    67    69   ar
    10    23    21   ar
    11    23    24   ar
    12    65    63   ar
    13    97    95    1
    14    71    69    1
    15    98    95    1
    16    95    93    1
    17    21    20   ar
    18    69    61   ar
    19   101    99    1
    20    24    19   ar
    21    40    39    1
    22    63    66    1
    23    63    62   ar
    24    61    62   ar
    25    61    58    1
    26    59    58    1
    27    93    99    1
    28    93    94    1
    29    93    90    1
    30    20    19   ar
    31    20    22    1
    32    62    64    1
    33    99   100    1
    34    99   102    1
    35    37    35    1
    36    34    33    1
    37    39    41    1
    38    39    33    1
    39    39    42    1
    40    19    16    1
    41    58    60    1
    42    58    57    1
    43    91    90    1
    44    38    35    1
    45    33    35    1
    46    33     7    1
    47    35    36    1
    48    90    92    1
    49    90     1    1
    50     6     3    1
    51    18    15    1
    52    12     9    1
    53    57    55    1
    54    16    15   am
    55    16    17    2
    56    44    43    2
    57     3     1    1
    58     3     4   am
    59    51    49    1
    60    15    13    1
    61     9     7    1
    62     9    10   am
    63     7     4    1
    64     7     8    1
    65     1    43    1
    66     1     2    1
    67    43    45   am
    68     4     5    2
    69    30    29    1
    70    55    56    2
    71    55    52    1
    72    49    50    1
    73    49    52    1
    74    49    47    1
    75    53    52    1
    76    48    47    1
    77    13    10    1
    78    13    29    1
    79    13    14    1
    80    10    11    2
    81    52    54    1
    82    45    47    1
    83    45    46    1
    84    29    31    1
    85    29    32    1
    86    47    72    1
    87    78    76    1
    88    79    76    1
    89    76    77    1
    90    76    75    1
    91    81    77    1
    92    72    74    1
    93    72    73    1
    94    72    75    1
    95    77    82    1
    96    77    80    1
    97    75    87    1
    98    75    83    1
    99    84    80    1
   100    80    83    1
   101    80    85    1
   102    83    88    1
   103    83    86    1
   104    88    89    1
@<TRIPOS>MOLECULE
crystal_redock_e8_er3_1.pdbqt
 102 104 0 0 0
SMALL
GASTEIGER

@<TRIPOS>ATOM
      1 C         -32.6190   10.1000   24.7810 C.3     1  UNL1        0.0890
      2 H         -32.5760    9.1690   25.3460 H       1  UNL1        0.0870
      3 N         -33.9980   10.5620   24.8010 N.am    1  UNL1       -0.3460
      4 C         -34.9910    9.9560   25.7610 C.2     1  UNL1        0.2410
      5 O         -34.6560    9.0960   26.5070 O.2     1  UNL1       -0.2710
      6 H         -34.2640   11.2940   24.1570 H       1  UNL1        0.1630
      7 C         -36.4140   10.4510   25.7720 C.3     1  UNL1        0.0920
      8 H         -36.7590   10.5280   26.8030 H       1  UNL1        0.0880
      9 N         -36.4680   11.7970   25.1940 N.am    1  UNL1       -0.3460
     10 C         -36.9660   12.8990   25.9810 C.2     1  UNL1        0.2400
     11 O         -37.3270   12.7190   27.0800 O.2     1  UNL1       -0.2710
     12 H         -36.1610   11.9670   24.2470 H       1  UNL1        0.1630
     13 C         -37.0240   14.3290   25.3600 C.3     1  UNL1        0.0860
     14 H         -37.9100   14.8850   25.6650 H       1  UNL1        0.0860
     15 N         -35.8760   15.0910   25.8230 N.am    1  UNL1       -0.3430
     16 C         -36.0210   15.9890   26.9710 C.2     1  UNL1        0.2730
     17 O         -37.0670   16.0930   27.5140 O.2     1  UNL1       -0.2660
     18 H         -34.9870   14.9980   25.3520 H       1  UNL1        0.1630
     19 C         -34.8160   16.7990   27.4720 C.ar    1  UNL1        0.1540
     20 C         -34.3510   18.0560   26.9710 C.ar    1  UNL1       -0.0170
     21 C         -33.2250   18.3700   27.7650 C.ar    1  UNL1        0.0770
     22 H         -34.7660   18.6490   26.1560 H       1  UNL1        0.0910
     23 O         -33.0720   17.4010   28.6200 O.2     1  UNL1       -0.2180
     24 N         -33.9880   16.4730   28.4680 N.ar    1  UNL1       -0.1230
     25 C         -32.3540   19.6130   27.6430 C.3     1  UNL1       -0.0290
     26 H         -32.5230   20.2610   28.5030 H       1  UNL1        0.0360
     27 H         -31.3050   19.3200   27.6110 H       1  UNL1        0.0360
     28 H         -32.6100   20.1480   26.7290 H       1  UNL1        0.0360
     29 C         -37.0050   14.2280   23.8560 C.3     1  UNL1       -0.0490
     30 H         -37.7600   14.8930   23.4380 H       1  UNL1        0.0300
     31 H         -36.0220   14.5170   23.4860 H       1  UNL1        0.0300
     32 H         -37.2180   13.2010   23.5580 H       1  UNL1        0.0300
     33 C         -37.3020    9.4910   24.9270 C.3     1  UNL1       -0.0330
     34 H         -36.7540    8.5560   24.8070 H       1  UNL1        0.0420
     35 C         -38.6390    9.1600   25.6620 C.3     1  UNL1       -0.0710
     36 H         -38.4600    9.1080   26.7360 H       1  UNL1        0.0280
     37 H         -39.3710    9.9390   25.4520 H       1  UNL1        0.0280
     38 H         -39.0180    8.2000   25.3110 H       1  UNL1        0.0280
     39 C         -37.5690   10.0810   23.5050 C.3     1  UNL1       -0.0710
     40 H         -38.6100    9.9110   23.2300 H       1  UNL1        0.0280
     41 H         -37.3650   11.1530   23.5130 H       1  UNL1        0.0280
     42 H         -36.9160    9.5940   22.7810 H       1  UNL1        0.0280
     43 C         -31.7170   11.2060   25.4030 C.2     1  UNL1        0.2400
     44 O         -30.8930   10.9130   26.2070 O.2     1  UNL1       -0.2710
     45 N         -31.8770   12.6290   24.9880 N.am    1  UNL1       -0.3550
     46 H         -32.5700   12.8890   24.3020 H       1  UNL1        0.1620
     47 C         -31.0110   13.6680   25.5870 C.3     1  UNL1        0.0130
     48 H         -30.0440   13.2140   25.8040 H       1  UNL1        0.0720
     49 C         -31.6450   14.1700   26.8650 C.3     1  UNL1       -0.0380
     50 H         -31.9750   15.1870   26.6500 H       1  UNL1        0.0360
     51 H         -32.3710   13.4100   27.1520 H       1  UNL1        0.0360
     52 C         -30.6390   14.2750   28.0320 C.3     1  UNL1        0.0180
     53 H         -29.9250   13.4660   27.8800 H       1  UNL1        0.0480
     54 H         -30.2960   15.3100   28.0350 H       1  UNL1        0.0480
     55 C         -31.2730   14.0300   29.4290 C.2     1  UNL1        0.2590
     56 O         -30.8420   14.5780   30.3910 O.2     1  UNL1       -0.2650
     57 O         -32.3690   13.1310   29.5490 O.3     1  UNL1       -0.3170
     58 C         -31.9930   11.7510   29.5450 C.3     1  UNL1        0.0520
     59 H         -31.9740   11.4540   28.4960 H       1  UNL1        0.0820
     60 H         -31.0860   11.6900   30.1450 H       1  UNL1        0.0820
     61 C         -33.1110   10.9480   30.2620 C.ar    1  UNL1       -0.0340
     62 C         -33.6920   11.4470   31.4230 C.ar    1  UNL1       -0.0750
     63 C         -34.6960   10.7260   32.0680 C.ar    1  UNL1       -0.0820
     64 H         -33.3600   12.4030   31.8290 H       1  UNL1        0.0840
     65 C         -35.1180    9.4990   31.5470 C.ar    1  UNL1       -0.0830
     66 H         -35.1500   11.1210   32.9770 H       1  UNL1        0.0830
     67 C         -34.5330    9.0040   30.3900 C.ar    1  UNL1       -0.0820
     68 H         -35.9020    8.9290   32.0450 H       1  UNL1        0.0830
     69 C         -33.5310    9.7220   29.7410 C.ar    1  UNL1       -0.0750
     70 H         -34.8630    8.0450   29.9880 H       1  UNL1        0.0830
     71 H         -33.0770    9.3270   28.8320 H       1  UNL1        0.0840
     72 C         -30.8450   14.8290   24.6090 C.3     1  UNL1       -0.0390
     73 H         -31.8550   15.1910   24.4160 H       1  UNL1        0.0360
     74 H         -30.1080   15.4890   25.0650 H       1  UNL1        0.0360
     75 C         -30.2410   14.3420   23.2080 C.3     1  UNL1       -0.0010
     76 C         -28.8650   15.1770   22.8700 C.3     1  UNL1       -0.0350
     77 C         -28.9610   15.6880   21.6200 C.3     1  UNL1        0.0850
     78 H         -28.8000   16.0610   23.5030 H       1  UNL1        0.0360
     79 H         -28.0200   14.4920   22.8010 H       1  UNL1        0.0360
     80 N         -30.4050   15.5560   21.1980 N.4     1  UNL1       -0.0490
     81 H         -28.7150   16.7460   21.7180 H       1  UNL1        0.0750
     82 H         -28.3480   15.0420   20.9930 H       1  UNL1        0.0750
     83 C         -31.0810   14.5310   22.2450 C.3     1  UNL1        0.1930
     84 H         -30.8240   16.4670   21.3230 H       1  UNL1        0.2800
     85 H         -30.3970   15.1250   20.2850 H       1  UNL1        0.2800
     86 H         -31.2870   13.5000   21.9570 H       1  UNL1        0.1290
     87 H         -30.1920   13.2550   23.1350 H       1  UNL1        0.0460
     88 O         -32.3270   15.0530   22.7120 O.3     1  UNL1       -0.3690
     89 H         -33.0010   14.9180   22.0420 H       1  UNL1        0.2120
     90 C         -32.2000    9.8490   23.3420 C.3     1  UNL1       -0.0350
     91 H         -32.7670    8.9740   23.0250 H       1  UNL1        0.0370
     92 H         -32.3370   10.8020   22.8300 H       1  UNL1        0.0370
     93 C         -30.6910    9.4770   23.1840 C.3     1  UNL1       -0.0590
     94 H         -30.2670    9.3860   24.1830 H       1  UNL1        0.0380
     95 C         -30.4950    8.1080   22.4570 C.3     1  UNL1       -0.0730
     96 H         -31.3030    7.9570   21.7410 H       1  UNL1        0.0280
     97 H         -29.5400    8.1090   21.9310 H       1  UNL1        0.0280
     98 H         -30.5050    7.3020   23.1900 H       1  UNL1        0.0280
     99 C         -29.9260   10.5900   22.4640 C.3     1  UNL1       -0.0730
    100 H         -29.0100   10.8140   23.0110 H       1  UNL1        0.0280
    101 H         -29.6750   10.2650   21.4540 H       1  UNL1        0.0280
    102 H         -30.5470   11.4840   22.4130 H       1  UNL1        0.0280
@<TRIPOS>BOND
     1    85    80    1
     2    82    77    1
     3    80    84    1
     4    80    77    1
     5    80    83    1
     6   101    99    1
     7    77    81    1
     8    77    76    1
     9    96    95    1
    10    97    95    1
    11    86    83    1
    12    89    88    1
    13    83    88    1
    14    83    75    1
    15   102    99    1
    16    95    93    1
    17    95    98    1
    18    99   100    1
    19    99    93    1
    20    42    39    1
    21    79    76    1
    22    92    90    1
    23    76    75    1
    24    76    78    1
    25    91    90    1
    26    87    75    1
    27    93    90    1
    28    93    94    1
    29    75    72    1
    30    40    39    1
    31    90     1    1
    32    30    29    1
    33    31    29    1
    34    39    41    1
    35    39    33    1
    36    32    29    1
    37    29    13    1
    38     6     3    1
    39    12     9    1
    40    46    45    1
    41    73    72    1
    42    72    74    1
    43    72    47    1
    44     1     3    1
    45     1     2    1
    46     1    43    1
    47     3     4   am
    48    34    33    1
    49    33    35    1
    50    33     7    1
    51    45    43   am
    52    45    47    1
    53     9     7    1
    54     9    10   am
    55    38    35    1
    56    18    15    1
    57    13    14    1
    58    13    15    1
    59    13    10    1
    60    43    44    2
    61    37    35    1
    62    47    48    1
    63    47    49    1
    64    35    36    1
    65     4     7    1
    66     4     5    2
    67     7     8    1
    68    15    16   am
    69    10    11    2
    70    22    20    1
    71    50    49    1
    72    28    25    1
    73    49    51    1
    74    49    52    1
    75    16    19    1
    76    16    17    2
    77    20    19   ar
    78    20    21   ar
    79    19    24   ar
    80    27    25    1
    81    25    21    1
    82    25    26    1
    83    21    23   ar
    84    53    52    1
    85    52    54    1
    86    52    55    1
    87    24    23   ar
    88    59    58    1
    89    71    69    1
    90    55    57    1
    91    55    56    2
    92    58    57    1
    93    58    60    1
    94    58    61    1
    95    69    61   ar
    96    69    67   ar
    97    70    67    1
    98    61    62   ar
    99    67    65   ar
   100    62    64    1
   101    62    63   ar
   102    65    68    1
   103    65    63   ar
   104    63    66    1
@<TRIPOS>MOLECULE
crystal_redock_e8_er3_1.pdbqt
 102 104 0 0 0
SMALL
GASTEIGER

@<TRIPOS>ATOM
      1 C         -36.1770   10.3350   26.4440 C.3     1  UNL1        0.0890
      2 H         -37.2110   10.1140   26.7090 H       1  UNL1        0.0870
      3 N         -35.3720   10.1740   27.6460 N.am    1  UNL1       -0.3460
      4 C         -36.0080   10.2860   29.0090 C.2     1  UNL1        0.2410
      5 O         -37.1690   10.5100   29.1130 O.2     1  UNL1       -0.2710
      6 H         -34.3860    9.9870   27.5360 H       1  UNL1        0.1630
      7 C         -35.1610   10.1110   30.2420 C.3     1  UNL1        0.0920
      8 H         -34.6720    9.1380   30.2060 H       1  UNL1        0.0880
      9 N         -34.1040   11.1280   30.2580 N.am    1  UNL1       -0.3460
     10 C         -32.8630   10.8860   29.5640 C.2     1  UNL1        0.2400
     11 O         -32.6970    9.8800   28.9900 O.2     1  UNL1       -0.2710
     12 H         -34.2320   12.0000   30.7500 H       1  UNL1        0.1630
     13 C         -31.7400   11.9700   29.5870 C.3     1  UNL1        0.0860
     14 H         -30.9850   11.8110   28.8190 H       1  UNL1        0.0860
     15 N         -32.3350   13.2700   29.3230 N.am    1  UNL1       -0.3430
     16 C         -31.6200   14.2320   28.4820 C.2     1  UNL1        0.2730
     17 O         -30.5670   13.9520   28.0250 O.2     1  UNL1       -0.2660
     18 H         -33.2350   13.5020   29.7200 H       1  UNL1        0.1630
     19 C         -32.2380   15.6100   28.1930 C.ar    1  UNL1        0.1540
     20 C         -32.4350   16.2170   26.9120 C.ar    1  UNL1       -0.0170
     21 C         -33.0310   17.4670   27.1910 C.ar    1  UNL1        0.0770
     22 H         -32.1830   15.8130   25.9310 H       1  UNL1        0.0910
     23 O         -33.1590   17.5560   28.4820 O.2     1  UNL1       -0.2180
     24 N         -32.7020   16.4850   29.0890 N.ar    1  UNL1       -0.1230
     25 C         -33.4480   18.5150   26.1680 C.3     1  UNL1       -0.0290
     26 H         -34.5350   18.5870   26.1430 H       1  UNL1        0.0360
     27 H         -33.0270   19.4820   26.4460 H       1  UNL1        0.0360
     28 H         -33.0800   18.2290   25.1830 H       1  UNL1        0.0360
     29 C         -31.0690   11.9740   30.9370 C.3     1  UNL1       -0.0490
     30 H         -31.3550   12.8740   31.4820 H       1  UNL1        0.0300
     31 H         -31.3810   11.0950   31.5000 H       1  UNL1        0.0300
     32 H         -29.9870   11.9570   30.8050 H       1  UNL1        0.0300
     33 C         -36.0510   10.2730   31.5090 C.3     1  UNL1       -0.0330
     34 H         -36.8990   10.9000   31.2370 H       1  UNL1        0.0420
     35 C         -36.6170    8.8990   31.9850 C.3     1  UNL1       -0.0710
     36 H         -35.8520    8.1310   31.8690 H       1  UNL1        0.0280
     37 H         -36.9060    8.9680   33.0330 H       1  UNL1        0.0280
     38 H         -37.4870    8.6370   31.3840 H       1  UNL1        0.0280
     39 C         -35.2670   10.9900   32.6550 C.3     1  UNL1       -0.0710
     40 H         -35.9570   11.5940   33.2440 H       1  UNL1        0.0280
     41 H         -34.7980   10.2430   33.2970 H       1  UNL1        0.0280
     42 H         -34.4990   11.6310   32.2240 H       1  UNL1        0.0280
     43 C         -35.6330    9.3710   25.3510 C.2     1  UNL1        0.2400
     44 O         -36.1440    9.3450   24.2780 O.2     1  UNL1       -0.2710
     45 N         -34.4690    8.4860   25.6390 N.am    1  UNL1       -0.3550
     46 H         -34.0230    8.5030   26.5450 H       1  UNL1        0.1620
     47 C         -33.9620    7.5760   24.5880 C.3     1  UNL1        0.0130
     48 H         -34.4720    7.8220   23.6570 H       1  UNL1        0.0720
     49 C         -34.2610    6.1470   24.9790 C.3     1  UNL1       -0.0380
     50 H         -35.0460    6.2050   25.7330 H       1  UNL1        0.0360
     51 H         -34.4430    5.6180   24.0430 H       1  UNL1        0.0360
     52 C         -33.0610    5.4450   25.6510 C.3     1  UNL1        0.0180
     53 H         -33.0650    4.4250   25.2710 H       1  UNL1        0.0480
     54 H         -32.2020    6.0920   25.4700 H       1  UNL1        0.0480
     55 C         -33.1900    5.3270   27.1950 C.2     1  UNL1        0.2590
     56 O         -32.6610    4.4360   27.7780 O.2     1  UNL1       -0.2650
     57 O         -33.9580    6.2900   27.9070 O.3     1  UNL1       -0.3170
     58 C         -34.5080    5.8040   29.1350 C.3     1  UNL1        0.0520
     59 H         -34.3880    4.7210   29.1040 H       1  UNL1        0.0820
     60 H         -34.0270    6.3830   29.9230 H       1  UNL1        0.0820
     61 C         -36.0250    6.1310   29.1420 C.ar    1  UNL1       -0.0340
     62 C         -36.5930    6.8290   28.0820 C.ar    1  UNL1       -0.0750
     63 C         -37.9550    7.1230   28.0880 C.ar    1  UNL1       -0.0820
     64 H         -35.9700    7.1480   27.2450 H       1  UNL1        0.0840
     65 C         -38.7510    6.7170   29.1630 C.ar    1  UNL1       -0.0830
     66 H         -38.3980    7.6690   27.2550 H       1  UNL1        0.0830
     67 C         -38.1800    6.0220   30.2210 C.ar    1  UNL1       -0.0820
     68 H         -39.8180    6.9410   29.1760 H       1  UNL1        0.0830
     69 C         -36.8190    5.7250   30.2170 C.ar    1  UNL1       -0.0750
     70 H         -38.8030    5.7090   31.0580 H       1  UNL1        0.0830
     71 H         -36.3770    5.1780   31.0510 H       1  UNL1        0.0840
     72 C         -32.4540    7.7570   24.4320 C.3     1  UNL1       -0.0390
     73 H         -32.0780    7.9480   25.4370 H       1  UNL1        0.0360
     74 H         -32.1130    6.8820   23.8800 H       1  UNL1        0.0360
     75 C         -32.1000    9.0430   23.5440 C.3     1  UNL1       -0.0010
     76 C         -31.0470    8.6280   22.3510 C.3     1  UNL1       -0.0350
     77 C         -29.9970    9.4830   22.3790 C.3     1  UNL1        0.0850
     78 H         -30.5950    7.6610   22.5720 H       1  UNL1        0.0360
     79 H         -31.4970    8.8090   21.3750 H       1  UNL1        0.0360
     80 N         -30.0770   10.2370   23.6840 N.4     1  UNL1       -0.0490
     81 H         -29.1080    8.8510   22.3870 H       1  UNL1        0.0750
     82 H         -30.1650   10.1770   21.5570 H       1  UNL1        0.0750
     83 C         -31.5610    9.9720   24.2600 C.3     1  UNL1        0.1930
     84 H         -29.4090    9.8050   24.3060 H       1  UNL1        0.2800
     85 H         -29.9910   11.2170   23.4530 H       1  UNL1        0.2800
     86 H         -32.3280   10.7450   24.1930 H       1  UNL1        0.1290
     87 H         -32.9910    9.5980   23.2480 H       1  UNL1        0.0460
     88 O         -31.4980    9.6180   25.6430 O.3     1  UNL1       -0.3690
     89 H         -32.3870    9.5690   26.0020 H       1  UNL1        0.2120
     90 C         -36.0650   11.7720   25.9600 C.3     1  UNL1       -0.0350
     91 H         -35.7580   11.7020   24.9170 H       1  UNL1        0.0370
     92 H         -37.0160   12.2390   26.2190 H       1  UNL1        0.0370
     93 C         -34.9560   12.5940   26.6920 C.3     1  UNL1       -0.0590
     94 H         -34.8150   12.1540   27.6780 H       1  UNL1        0.0380
     95 C         -33.5870   12.5340   25.9420 C.3     1  UNL1       -0.0730
     96 H         -33.0920   13.5030   26.0110 H       1  UNL1        0.0280
     97 H         -32.9560   11.7720   26.3970 H       1  UNL1        0.0280
     98 H         -33.7570   12.2870   24.8940 H       1  UNL1        0.0280
     99 C         -35.4000   14.0450   26.9000 C.3     1  UNL1       -0.0730
    100 H         -36.3360   14.0620   27.4590 H       1  UNL1        0.0280
    101 H         -34.6340   14.5820   27.4600 H       1  UNL1        0.0280
    102 H         -35.5450   14.5230   25.9320 H       1  UNL1        0.0280
@<TRIPOS>BOND
     1    79    76    1
     2    82    77    1
     3    76    77    1
     4    76    78    1
     5    76    75    1
     6    77    81    1
     7    77    80    1
     8    87    75    1
     9    85    80    1
    10    75    83    1
    11    75    72    1
    12    48    47    1
    13    80    83    1
    14    80    84    1
    15    74    72    1
    16    51    49    1
    17    86    83    1
    18    83    88    1
    19    44    43    2
    20    72    47    1
    21    72    73    1
    22    47    49    1
    23    47    45    1
    24    98    95    1
    25    91    90    1
    26    49    52    1
    27    49    50    1
    28    28    25    1
    29    53    52    1
    30    43    45   am
    31    43     1    1
    32    54    52    1
    33    45    46    1
    34    88    89    1
    35    52    55    1
    36    22    20    1
    37   102    99    1
    38    95    96    1
    39    95    97    1
    40    95    93    1
    41    90    92    1
    42    90     1    1
    43    90    93    1
    44    26    25    1
    45    25    27    1
    46    25    21    1
    47     1     2    1
    48     1     3    1
    49    93    99    1
    50    93    94    1
    51    99   100    1
    52    99   101    1
    53    20    21   ar
    54    20    19   ar
    55    21    23   ar
    56    55    56    2
    57    55    57    1
    58    64    62    1
    59    66    63    1
    60     6     3    1
    61     3     4   am
    62    57    58    1
    63    17    16    2
    64    62    63   ar
    65    62    61   ar
    66    63    65   ar
    67    19    16    1
    68    19    24   ar
    69    23    24   ar
    70    16    15   am
    71    14    13    1
    72    11    10    2
    73     4     5    2
    74     4     7    1
    75    59    58    1
    76    58    61    1
    77    58    60    1
    78    61    69   ar
    79    65    68    1
    80    65    67   ar
    81    15    13    1
    82    15    18    1
    83    10    13    1
    84    10     9   am
    85    13    29    1
    86     8     7    1
    87    69    67   ar
    88    69    71    1
    89    67    70    1
    90     7     9    1
    91     7    33    1
    92     9    12    1
    93    32    29    1
    94    29    30    1
    95    29    31    1
    96    34    33    1
    97    38    35    1
    98    33    35    1
    99    33    39    1
   100    36    35    1
   101    35    37    1
   102    42    39    1
   103    39    40    1
   104    39    41    1
@<TRIPOS>MOLECULE
crystal_redock_e8_er3_1.pdbqt
 102 104 0 0 0
SMALL
GASTEIGER

@<TRIPOS>ATOM
      1 C         -32.5130    7.5340   26.5810 C.3     1  UNL1        0.0890
      2 H         -31.6020    7.0550   26.9420 H       1  UNL1        0.0870
      3 N         -33.6390    6.7270   27.0270 N.am    1  UNL1       -0.3460
      4 C         -33.4040    5.4100   27.7210 C.2     1  UNL1        0.2410
      5 O         -32.2990    5.0170   27.9070 O.2     1  UNL1       -0.2710
      6 H         -34.5710    7.0780   26.8580 H       1  UNL1        0.1630
      7 C         -34.5810    4.5900   28.1820 C.3     1  UNL1        0.0920
      8 H         -34.2570    3.9060   28.9660 H       1  UNL1        0.0880
      9 N         -35.5920    5.4750   28.7690 N.am    1  UNL1       -0.3460
     10 C         -35.4730    5.8920   30.1450 C.2     1  UNL1        0.2400
     11 O         -34.5710    5.5240   30.7940 O.2     1  UNL1       -0.2710
     12 H         -36.3770    5.7990   28.2220 H       1  UNL1        0.1630
     13 C         -36.5540    6.8310   30.7650 C.3     1  UNL1        0.0860
     14 H         -36.1880    7.3800   31.6320 H       1  UNL1        0.0860
     15 N         -36.9400    7.8230   29.7760 N.am    1  UNL1       -0.3430
     16 C         -37.0620    9.2280   30.1740 C.2     1  UNL1        0.2730
     17 O         -36.8510    9.5480   31.2920 O.2     1  UNL1       -0.2660
     18 H         -37.1210    7.5410   28.8240 H       1  UNL1        0.1630
     19 C         -37.4670   10.2880   29.1380 C.ar    1  UNL1        0.1540
     20 C         -36.9230   10.4700   27.8280 C.ar    1  UNL1       -0.0170
     21 C         -37.6310   11.5670   27.2880 C.ar    1  UNL1        0.0770
     22 H         -36.1340    9.8940   27.3420 H       1  UNL1        0.0910
     23 O         -38.4810   11.9610   28.1910 O.2     1  UNL1       -0.2180
     24 N         -38.4040   11.2300   29.2790 N.ar    1  UNL1       -0.1230
     25 C         -37.4350   12.1750   25.9060 C.3     1  UNL1       -0.0290
     26 H         -36.3950   12.0580   25.6010 H       1  UNL1        0.0360
     27 H         -38.0820   11.6660   25.1910 H       1  UNL1        0.0360
     28 H         -37.6880   13.2340   25.9350 H       1  UNL1        0.0360
     29 C         -37.7550    6.0170   31.1750 C.3     1  UNL1       -0.0490
     30 H         -38.3430    6.5780   31.9010 H       1  UNL1        0.0300
     31 H         -38.3660    5.8040   30.2990 H       1  UNL1        0.0300
     32 H         -37.4230    5.0800   31.6230 H       1  UNL1        0.0300
     33 C         -35.1970    3.8380   26.9660 C.3     1  UNL1       -0.0330
     34 H         -35.0670    4.4710   26.0880 H       1  UNL1        0.0420
     35 C         -34.4510    2.4950   26.6920 C.3     1  UNL1       -0.0710
     36 H         -33.4390    2.7060   26.3450 H       1  UNL1        0.0280
     37 H         -34.4060    1.9100   27.6100 H       1  UNL1        0.0280
     38 H         -34.9860    1.9320   25.9270 H       1  UNL1        0.0280
     39 C         -36.7280    3.6040   27.1710 C.3     1  UNL1       -0.0710
     40 H         -37.0330    2.7060   26.6330 H       1  UNL1        0.0280
     41 H         -36.9380    3.4800   28.2340 H       1  UNL1        0.0280
     42 H         -37.2810    4.4630   26.7900 H       1  UNL1        0.0280
     43 C         -32.6820    8.9750   27.1420 C.2     1  UNL1        0.2400
     44 O         -33.0200    9.1330   28.2700 O.2     1  UNL1       -0.2710
     45 N         -32.4130   10.1570   26.2750 N.am    1  UNL1       -0.3550
     46 H         -32.1200   10.0350   25.3170 H       1  UNL1        0.1620
     47 C         -32.5760   11.5210   26.8250 C.3     1  UNL1        0.0130
     48 H         -33.0300   11.4320   27.8120 H       1  UNL1        0.0720
     49 C         -33.4770   12.3220   25.9120 C.3     1  UNL1       -0.0380
     50 H         -32.8260   12.7300   25.1390 H       1  UNL1        0.0360
     51 H         -34.2930   11.6510   25.6410 H       1  UNL1        0.0360
     52 C         -34.1240   13.5320   26.6210 C.3     1  UNL1        0.0180
     53 H         -35.1810   13.4970   26.3590 H       1  UNL1        0.0480
     54 H         -33.8180   13.4610   27.6650 H       1  UNL1        0.0480
     55 C         -33.6030   14.9060   26.1150 C.2     1  UNL1        0.2590
     56 O         -33.4010   15.7930   26.8790 O.2     1  UNL1       -0.2650
     57 O         -33.3820   15.0970   24.7230 O.3     1  UNL1       -0.3170
     58 C         -32.3390   16.0290   24.4210 C.3     1  UNL1        0.0520
     59 H         -32.8270   16.8680   23.9260 H       1  UNL1        0.0820
     60 H         -31.8030   16.1850   25.3580 H       1  UNL1        0.0820
     61 C         -31.3730   15.3560   23.4100 C.ar    1  UNL1       -0.0340
     62 C         -30.9240   14.0580   23.6330 C.ar    1  UNL1       -0.0750
     63 C         -30.0560   13.4540   22.7250 C.ar    1  UNL1       -0.0820
     64 H         -31.2520   13.5150   24.5190 H       1  UNL1        0.0840
     65 C         -29.6350   14.1540   21.5900 C.ar    1  UNL1       -0.0830
     66 H         -29.7080   12.4360   22.9010 H       1  UNL1        0.0830
     67 C         -30.0830   15.4500   21.3740 C.ar    1  UNL1       -0.0820
     68 H         -28.9570   13.6890   20.8750 H       1  UNL1        0.0830
     69 C         -30.9520   16.0570   22.2780 C.ar    1  UNL1       -0.0750
     70 H         -29.7510   15.9940   20.4890 H       1  UNL1        0.0830
     71 H         -31.3000   17.0750   22.1010 H       1  UNL1        0.0840
     72 C         -31.2140   12.2040   26.9250 C.3     1  UNL1       -0.0390
     73 H         -30.4890   11.4550   26.6060 H       1  UNL1        0.0360
     74 H         -31.3150   13.1360   26.3690 H       1  UNL1        0.0360
     75 C         -30.8560   12.5930   28.4380 C.3     1  UNL1       -0.0010
     76 C         -32.1290   12.2480   29.4210 C.3     1  UNL1       -0.0350
     77 C         -32.4170   13.3440   30.1630 C.3     1  UNL1        0.0850
     78 H         -33.0300   12.0980   28.8260 H       1  UNL1        0.0360
     79 H         -31.8370   11.5060   30.1640 H       1  UNL1        0.0360
     80 N         -31.6720   14.5030   29.5450 N.4     1  UNL1       -0.0490
     81 H         -33.4880   13.5040   30.0420 H       1  UNL1        0.0750
     82 H         -32.0040   13.1430   31.1510 H       1  UNL1        0.0750
     83 C         -30.5850   13.8510   28.5450 C.3     1  UNL1        0.1930
     84 H         -32.3470   15.0170   28.9970 H       1  UNL1        0.2800
     85 H         -31.1810   14.9610   30.3000 H       1  UNL1        0.2800
     86 H         -29.5330   13.8030   28.8260 H       1  UNL1        0.1290
     87 H         -29.8790   12.2160   28.7410 H       1  UNL1        0.0460
     88 O         -30.6140   14.5180   27.2830 O.3     1  UNL1       -0.3690
     89 H         -30.3170   15.4250   27.3930 H       1  UNL1        0.2120
     90 C         -32.5040    7.5750   25.0610 C.3     1  UNL1       -0.0350
     91 H         -33.5470    7.4740   24.7630 H       1  UNL1        0.0370
     92 H         -31.9480    8.4760   24.8000 H       1  UNL1        0.0370
     93 C         -31.7420    6.3800   24.4060 C.3     1  UNL1       -0.0590
     94 H         -31.0480    5.9840   25.1470 H       1  UNL1        0.0380
     95 C         -32.7060    5.2230   23.9890 C.3     1  UNL1       -0.0730
     96 H         -33.2980    5.5350   23.1290 H       1  UNL1        0.0280
     97 H         -32.1230    4.3410   23.7270 H       1  UNL1        0.0280
     98 H         -33.3700    4.9870   24.8200 H       1  UNL1        0.0280
     99 C         -30.9090    6.8520   23.2110 C.3     1  UNL1       -0.0730
    100 H         -30.2230    7.6360   23.5330 H       1  UNL1        0.0280
    101 H         -30.3390    6.0130   22.8110 H       1  UNL1        0.0280
    102 H         -31.5710    7.2420   22.4380 H       1  UNL1        0.0280
@<TRIPOS>BOND
     1    70    67    1
     2    68    65    1
     3    67    65   ar
     4    67    69   ar
     5    65    63   ar
     6    71    69    1
     7    69    61   ar
     8   102    99    1
     9    63    66    1
    10    63    62   ar
    11   101    99    1
    12    96    95    1
    13    99   100    1
    14    99    93    1
    15    61    62   ar
    16    61    58    1
    17    62    64    1
    18    97    95    1
    19    59    58    1
    20    95    93    1
    21    95    98    1
    22    93    90    1
    23    93    94    1
    24    58    57    1
    25    58    60    1
    26    57    55    1
    27    91    90    1
    28    92    90    1
    29    90     1    1
    30    50    49    1
    31    27    25    1
    32    46    45    1
    33    26    25    1
    34    51    49    1
    35    25    28    1
    36    25    21    1
    37    49    52    1
    38    49    47    1
    39    38    35    1
    40    34    33    1
    41    55    52    1
    42    55    56    2
    43    45    47    1
    44    45    43   am
    45    36    35    1
    46    53    52    1
    47    74    72    1
    48     1     2    1
    49     1     3    1
    50     1    43    1
    51    73    72    1
    52    52    54    1
    53    40    39    1
    54    35    33    1
    55    35    37    1
    56    42    39    1
    57    47    72    1
    58    47    48    1
    59     6     3    1
    60    72    75    1
    61    33    39    1
    62    33     7    1
    63     3     4   am
    64    43    44    2
    65    39    41    1
    66    88    89    1
    67    88    83    1
    68    21    20   ar
    69    21    23   ar
    70    22    20    1
    71     4     5    2
    72     4     7    1
    73    20    19   ar
    74     7     9    1
    75     7     8    1
    76    23    24   ar
    77    12     9    1
    78    75    83    1
    79    75    87    1
    80    75    76    1
    81    83    86    1
    82    83    80    1
    83     9    10   am
    84    18    15    1
    85    78    76    1
    86    84    80    1
    87    19    24   ar
    88    19    16    1
    89    76    77    1
    90    76    79    1
    91    80    77    1
    92    80    85    1
    93    15    16   am
    94    15    13    1
    95    81    77    1
    96    10    13    1
    97    10    11    2
    98    77    82    1
    99    16    17    2
   100    31    29    1
   101    13    29    1
   102    13    14    1
   103    29    32    1
   104    29    30    1
@<TRIPOS>MOLECULE
crystal_redock_e8_er3_1.pdbqt
 102 104 0 0 0
SMALL
GASTEIGER

@<TRIPOS>ATOM
      1 C         -33.6220   10.3900   28.4930 C.3     1  UNL1        0.0890
      2 H         -34.6480   10.7320   28.3540 H       1  UNL1        0.0870
      3 N         -33.5300    9.0450   27.9450 N.am    1  UNL1       -0.3460
      4 C         -34.7800    8.2450   27.6760 C.2     1  UNL1        0.2410
      5 O         -35.8480    8.7040   27.9130 O.2     1  UNL1       -0.2710
      6 H         -32.6110    8.6720   27.7530 H       1  UNL1        0.1630
      7 C         -34.6660    6.8570   27.1040 C.3     1  UNL1        0.0920
      8 H         -35.6330    6.3590   27.1770 H       1  UNL1        0.0880
      9 N         -34.3290    6.9410   25.6800 N.am    1  UNL1       -0.3460
     10 C         -35.3310    6.6520   24.6830 C.2     1  UNL1        0.2400
     11 O         -36.4130    6.3490   25.0100 O.2     1  UNL1       -0.2710
     12 H         -33.3990    7.2000   25.3830 H       1  UNL1        0.1630
     13 C         -34.9640    6.7410   23.1690 C.3     1  UNL1        0.0860
     14 H         -35.4630    7.5670   22.6620 H       1  UNL1        0.0860
     15 N         -33.5360    6.9770   23.0430 N.am    1  UNL1       -0.3430
     16 C         -33.0520    8.3240   22.7310 C.2     1  UNL1        0.2730
     17 O         -33.8210    9.2090   22.5800 O.2     1  UNL1       -0.2660
     18 H         -32.8860    6.2140   23.1700 H       1  UNL1        0.1630
     19 C         -31.5450    8.5890   22.5960 C.ar    1  UNL1        0.1540
     20 C         -30.4990    7.6150   22.5270 C.ar    1  UNL1       -0.0170
     21 C         -29.3090    8.3670   22.4080 C.ar    1  UNL1        0.0770
     22 H         -30.5890    6.5290   22.5580 H       1  UNL1        0.0910
     23 O         -29.6440    9.6240   22.4080 O.2     1  UNL1       -0.2180
     24 N         -30.9430    9.7790   22.5170 N.ar    1  UNL1       -0.1230
     25 C         -27.8960    7.8090   22.2990 C.3     1  UNL1       -0.0290
     26 H         -27.8220    7.1780   21.4140 H       1  UNL1        0.0360
     27 H         -27.1860    8.6320   22.2190 H       1  UNL1        0.0360
     28 H         -27.6690    7.2180   23.1860 H       1  UNL1        0.0360
     29 C         -35.3370    5.4510   22.4830 C.3     1  UNL1       -0.0490
     30 H         -35.7540    5.6700   21.5000 H       1  UNL1        0.0300
     31 H         -34.4490    4.8300   22.3700 H       1  UNL1        0.0300
     32 H         -36.0780    4.9220   23.0820 H       1  UNL1        0.0300
     33 C         -33.5480    6.0760   27.8540 C.3     1  UNL1       -0.0330
     34 H         -33.2110    6.6990   28.6820 H       1  UNL1        0.0420
     35 C         -34.0920    4.7450   28.4590 C.3     1  UNL1       -0.0710
     36 H         -35.1760    4.8040   28.5520 H       1  UNL1        0.0280
     37 H         -33.8280    3.9140   27.8060 H       1  UNL1        0.0280
     38 H         -33.6520    4.5870   29.4440 H       1  UNL1        0.0280
     39 C         -32.3240    5.8140   26.9180 C.3     1  UNL1       -0.0710
     40 H         -31.6460    5.1070   27.3960 H       1  UNL1        0.0280
     41 H         -32.6730    5.4000   25.9710 H       1  UNL1        0.0280
     42 H         -31.8010    6.7520   26.7320 H       1  UNL1        0.0280
     43 C         -32.5960   11.2970   27.7540 C.2     1  UNL1        0.2400
     44 O         -31.5870   10.8290   27.3340 O.2     1  UNL1       -0.2710
     45 N         -32.8750   12.7490   27.5620 N.am    1  UNL1       -0.3550
     46 H         -33.7310   13.1570   27.9090 H       1  UNL1        0.1620
     47 C         -31.8910   13.5970   26.8560 C.3     1  UNL1        0.0130
     48 H         -31.3090   12.9560   26.1940 H       1  UNL1        0.0720
     49 C         -30.9810   14.2550   27.8690 C.3     1  UNL1       -0.0380
     50 H         -30.1840   13.5350   28.0610 H       1  UNL1        0.0360
     51 H         -30.7420   15.2350   27.4570 H       1  UNL1        0.0360
     52 C         -31.6760   14.5070   29.2240 C.3     1  UNL1        0.0180
     53 H         -32.6410   14.0060   29.1590 H       1  UNL1        0.0480
     54 H         -30.9560   14.2070   29.9860 H       1  UNL1        0.0480
     55 C         -31.9900   16.0050   29.4980 C.2     1  UNL1        0.2590
     56 O         -31.3760   16.6100   30.3150 O.2     1  UNL1       -0.2650
     57 O         -33.0300   16.6440   28.7670 O.3     1  UNL1       -0.3170
     58 C         -32.6820   17.9400   28.2720 C.3     1  UNL1        0.0520
     59 H         -32.5520   18.5670   29.1530 H       1  UNL1        0.0820
     60 H         -31.8480   17.7800   27.5880 H       1  UNL1        0.0820
     61 C         -33.8870   18.4800   27.4570 C.ar    1  UNL1       -0.0340
     62 C         -34.5340   17.6570   26.5400 C.ar    1  UNL1       -0.0750
     63 C         -35.6160   18.1430   25.8080 C.ar    1  UNL1       -0.0820
     64 H         -34.1920   16.6320   26.3950 H       1  UNL1        0.0840
     65 C         -36.0510   19.4580   25.9940 C.ar    1  UNL1       -0.0830
     66 H         -36.1220   17.4950   25.0910 H       1  UNL1        0.0830
     67 C         -35.4000   20.2760   26.9080 C.ar    1  UNL1       -0.0820
     68 H         -36.8970   19.8450   25.4260 H       1  UNL1        0.0830
     69 C         -34.3190   19.7950   27.6430 C.ar    1  UNL1       -0.0750
     70 H         -35.7400   21.3030   27.0490 H       1  UNL1        0.0830
     71 H         -33.8140   20.4430   28.3590 H       1  UNL1        0.0840
     72 C         -32.6180   14.6720   26.0510 C.3     1  UNL1       -0.0390
     73 H         -33.6680   14.3770   26.0550 H       1  UNL1        0.0360
     74 H         -32.3170   15.6210   26.4950 H       1  UNL1        0.0360
     75 C         -32.1390   14.6930   24.5220 C.3     1  UNL1       -0.0010
     76 C         -31.1670   13.4010   24.2220 C.3     1  UNL1       -0.0350
     77 C         -30.0250   13.8400   23.6400 C.3     1  UNL1        0.0850
     78 H         -30.8240   12.9660   25.1600 H       1  UNL1        0.0360
     79 H         -31.6150   12.7650   23.4580 H       1  UNL1        0.0360
     80 N         -29.9900   15.3390   23.8130 N.4     1  UNL1       -0.0490
     81 H         -29.2150   13.3960   24.2180 H       1  UNL1        0.0750
     82 H         -30.1310   13.6070   22.5810 H       1  UNL1        0.0750
     83 C         -31.4820   15.7710   24.2530 C.3     1  UNL1        0.1930
     84 H         -29.3620   15.5240   24.5830 H       1  UNL1        0.2800
     85 H         -29.7980   15.7270   22.9010 H       1  UNL1        0.2800
     86 H         -32.1560   16.2400   23.5360 H       1  UNL1        0.1290
     87 H         -32.9670   14.8610   23.8330 H       1  UNL1        0.0460
     88 O         -31.4290   16.6630   25.3680 O.3     1  UNL1       -0.3690
     89 H         -30.6780   17.2530   25.2700 H       1  UNL1        0.2120
     90 C         -33.2890   10.3450   29.9750 C.3     1  UNL1       -0.0350
     91 H         -32.6680    9.4600   30.1050 H       1  UNL1        0.0370
     92 H         -32.8890   11.3310   30.2110 H       1  UNL1        0.0370
     93 C         -34.5390   10.1460   30.8920 C.3     1  UNL1       -0.0590
     94 H         -35.4200   10.4200   30.3130 H       1  UNL1        0.0380
     95 C         -34.7070    8.6590   31.3420 C.3     1  UNL1       -0.0730
     96 H         -35.7200    8.3250   31.1210 H       1  UNL1        0.0280
     97 H         -33.9940    8.0340   30.8060 H       1  UNL1        0.0280
     98 H         -34.5250    8.5820   32.4140 H       1  UNL1        0.0280
     99 C         -34.4820   11.0790   32.1040 C.3     1  UNL1       -0.0730
    100 H         -35.0590   11.9810   31.8950 H       1  UNL1        0.0280
    101 H         -34.9020   10.5730   32.9730 H       1  UNL1        0.0280
    102 H         -33.4460   11.3490   32.3070 H       1  UNL1        0.0280
@<TRIPOS>BOND
     1    26    25    1
     2    30    29    1
     3    27    25    1
     4    25    21    1
     5    25    28    1
     6    31    29    1
     7    23    21   ar
     8    23    24   ar
     9    21    20   ar
    10    29    32    1
    11    29    13    1
    12    24    19   ar
    13    20    22    1
    14    20    19   ar
    15    17    16    2
    16    82    77    1
    17    19    16    1
    18    14    13    1
    19    16    15   am
    20    85    80    1
    21    15    13    1
    22    15    18    1
    23    13    10    1
    24    79    76    1
    25    86    83    1
    26    77    80    1
    27    77    81    1
    28    77    76    1
    29    80    83    1
    30    80    84    1
    31    87    75    1
    32    76    75    1
    33    76    78    1
    34    83    75    1
    35    83    88    1
    36    75    72    1
    37    10    11    2
    38    10     9   am
    39    66    63    1
    40    89    88    1
    41    12     9    1
    42    68    65    1
    43     9     7    1
    44    63    65   ar
    45    63    62   ar
    46    41    39    1
    47    65    67   ar
    48    72    73    1
    49    72    74    1
    50    72    47    1
    51    48    47    1
    52    64    62    1
    53    62    61   ar
    54    42    39    1
    55    47    45    1
    56    47    49    1
    57    67    70    1
    58    67    69   ar
    59    39    40    1
    60    39    33    1
    61     7     8    1
    62     7     4    1
    63     7    33    1
    64    44    43    2
    65    51    49    1
    66    61    69   ar
    67    61    58    1
    68    45    43   am
    69    45    46    1
    70    60    58    1
    71    69    71    1
    72     4     5    2
    73     4     3   am
    74     6     3    1
    75    43     1    1
    76    37    35    1
    77    33    35    1
    78    33    34    1
    79    49    50    1
    80    49    52    1
    81     3     1    1
    82    58    57    1
    83    58    59    1
    84     2     1    1
    85    35    36    1
    86    35    38    1
    87     1    90    1
    88    57    55    1
    89    53    52    1
    90    52    55    1
    91    52    54    1
    92    55    56    2
    93    90    91    1
    94    90    92    1
    95    90    93    1
    96    94    93    1
    97    97    95    1
    98    93    95    1
    99    93    99    1
   100    96    95    1
   101    95    98    1
   102   100    99    1
   103    99   102    1
   104    99   101    1
@<TRIPOS>MOLECULE
crystal_redock_e8_er3_1.pdbqt
 102 104 0 0 0
SMALL
GASTEIGER

@<TRIPOS>ATOM
      1 C         -36.1900   10.5310   25.9660 C.3     1  UNL1        0.0890
      2 H         -37.2460   10.4560   26.2300 H       1  UNL1        0.0870
      3 N         -35.4210   10.3830   27.1930 N.am    1  UNL1       -0.3460
      4 C         -36.1050    9.9920   28.4790 C.2     1  UNL1        0.2410
      5 O         -37.2770    9.8050   28.5020 O.2     1  UNL1       -0.2710
      6 H         -34.4260   10.5500   27.1520 H       1  UNL1        0.1630
      7 C         -35.2930    9.8390   29.7380 C.3     1  UNL1        0.0920
      8 H         -34.6390    8.9720   29.6390 H       1  UNL1        0.0880
      9 N         -34.4330   11.0130   29.9110 N.am    1  UNL1       -0.3460
     10 C         -33.1020   11.0200   29.3560 C.2     1  UNL1        0.2400
     11 O         -32.7060   10.0880   28.7680 O.2     1  UNL1       -0.2710
     12 H         -34.7590   11.8240   30.4170 H       1  UNL1        0.1630
     13 C         -32.1900   12.2710   29.5460 C.3     1  UNL1        0.0860
     14 H         -31.3570   12.2970   28.8440 H       1  UNL1        0.0860
     15 N         -32.9770   13.4690   29.3030 N.am    1  UNL1       -0.3430
     16 C         -32.3300   14.6540   28.7350 C.2     1  UNL1        0.2730
     17 O         -31.1750   14.6350   28.4810 O.2     1  UNL1       -0.2660
     18 H         -33.9620   13.4780   29.5260 H       1  UNL1        0.1630
     19 C         -33.1490   15.9270   28.4710 C.ar    1  UNL1        0.1540
     20 C         -34.5020   16.0040   28.0110 C.ar    1  UNL1       -0.0170
     21 C         -34.7810   17.3870   27.9330 C.ar    1  UNL1        0.0770
     22 H         -35.1780   15.1830   27.7700 H       1  UNL1        0.0910
     23 O         -33.7090   18.0200   28.3080 O.2     1  UNL1       -0.2180
     24 N         -32.7430   17.1900   28.6260 N.ar    1  UNL1       -0.1230
     25 C         -36.0960   18.0170   27.4920 C.3     1  UNL1       -0.0290
     26 H         -36.4770   18.6570   28.2880 H       1  UNL1        0.0360
     27 H         -35.9290   18.6140   26.5960 H       1  UNL1        0.0360
     28 H         -36.8210   17.2330   27.2780 H       1  UNL1        0.0360
     29 C         -31.6430   12.2890   30.9510 C.3     1  UNL1       -0.0490
     30 H         -30.5710   12.0920   30.9260 H       1  UNL1        0.0300
     31 H         -31.8230   13.2670   31.3980 H       1  UNL1        0.0300
     32 H         -32.1400   11.5210   31.5440 H       1  UNL1        0.0300
     33 C         -36.2490    9.7140   30.9600 C.3     1  UNL1       -0.0330
     34 H         -37.2240   10.0930   30.6540 H       1  UNL1        0.0420
     35 C         -36.4370    8.2240   31.3850 C.3     1  UNL1       -0.0710
     36 H         -36.6670    7.6220   30.5060 H       1  UNL1        0.0280
     37 H         -35.5200    7.8590   31.8450 H       1  UNL1        0.0280
     38 H         -37.2570    8.1510   32.0990 H       1  UNL1        0.0280
     39 C         -35.7440   10.5850   32.1550 C.3     1  UNL1       -0.0710
     40 H         -36.4160   10.4600   33.0050 H       1  UNL1        0.0280
     41 H         -34.7390   10.2680   32.4370 H       1  UNL1        0.0280
     42 H         -35.7240   11.6330   31.8580 H       1  UNL1        0.0280
     43 C         -35.7530    9.4190   24.9710 C.2     1  UNL1        0.2400
     44 O         -36.5660    8.6850   24.5090 O.2     1  UNL1       -0.2710
     45 N         -34.3200    9.2740   24.5850 N.am    1  UNL1       -0.3550
     46 H         -33.6210    9.8940   24.9670 H       1  UNL1        0.1620
     47 C         -33.9210    8.2120   23.6360 C.3     1  UNL1        0.0130
     48 H         -34.8260    7.8110   23.1810 H       1  UNL1        0.0720
     49 C         -33.1920    7.1200   24.3860 C.3     1  UNL1       -0.0380
     50 H         -32.6970    6.5190   23.6230 H       1  UNL1        0.0360
     51 H         -32.6000    7.6300   25.1460 H       1  UNL1        0.0360
     52 C         -34.1470    6.1700   25.1400 C.3     1  UNL1        0.0180
     53 H         -35.1430    6.3850   24.7540 H       1  UNL1        0.0480
     54 H         -33.7220    5.1730   25.0260 H       1  UNL1        0.0480
     55 C         -34.2150    6.4350   26.6700 C.2     1  UNL1        0.2590
     56 O         -33.9330    7.5020   27.1100 O.2     1  UNL1       -0.2650
     57 O         -34.6070    5.3830   27.5420 O.3     1  UNL1       -0.3170
     58 C         -34.9890    5.8220   28.8490 C.3     1  UNL1        0.0520
     59 H         -34.6850    6.8670   28.9100 H       1  UNL1        0.0820
     60 H         -36.0400    5.5530   28.9550 H       1  UNL1        0.0820
     61 C         -34.1680    5.0100   29.8860 C.ar    1  UNL1       -0.0340
     62 C         -33.0800    4.2480   29.4710 C.ar    1  UNL1       -0.0750
     63 C         -32.3420    3.5190   30.4020 C.ar    1  UNL1       -0.0820
     64 H         -32.8060    4.2230   28.4160 H       1  UNL1        0.0840
     65 C         -32.6980    3.5510   31.7530 C.ar    1  UNL1       -0.0830
     66 H         -31.4890    2.9240   30.0740 H       1  UNL1        0.0830
     67 C         -33.7860    4.3090   32.1620 C.ar    1  UNL1       -0.0820
     68 H         -32.1260    2.9840   32.4880 H       1  UNL1        0.0830
     69 C         -34.5250    5.0420   31.2350 C.ar    1  UNL1       -0.0750
     70 H         -34.0620    4.3300   33.2170 H       1  UNL1        0.0830
     71 H         -35.3770    5.6360   31.5650 H       1  UNL1        0.0840
     72 C         -33.0020    8.7960   22.5650 C.3     1  UNL1       -0.0390
     73 H         -33.0260    8.0820   21.7410 H       1  UNL1        0.0360
     74 H         -33.3500    9.8180   22.4100 H       1  UNL1        0.0360
     75 C         -31.4840    8.8850   23.0690 C.3     1  UNL1       -0.0010
     76 C         -31.0680   10.4550   23.3210 C.3     1  UNL1       -0.0350
     77 C         -29.9120   10.7120   22.6640 C.3     1  UNL1        0.0850
     78 H         -31.7880   11.1150   22.8380 H       1  UNL1        0.0360
     79 H         -30.8050   10.6090   24.3680 H       1  UNL1        0.0360
     80 N         -29.6750    9.5560   21.7220 N.4     1  UNL1       -0.0490
     81 H         -30.1030   11.6130   22.0800 H       1  UNL1        0.0750
     82 H         -29.1360   10.7120   23.4280 H       1  UNL1        0.0750
     83 C         -30.6730    8.3810   22.2000 C.3     1  UNL1        0.1930
     84 H         -29.9630    9.8690   20.8060 H       1  UNL1        0.2800
     85 H         -28.7240    9.2530   21.8760 H       1  UNL1        0.2800
     86 H         -30.2930    7.5240   22.7570 H       1  UNL1        0.1290
     87 H         -31.2760    8.1810   23.8750 H       1  UNL1        0.0460
     88 O         -31.3610    7.8300   21.0760 O.3     1  UNL1       -0.3690
     89 H         -31.6170    8.5380   20.4790 H       1  UNL1        0.2120
     90 C         -35.9060   11.8970   25.3640 C.3     1  UNL1       -0.0350
     91 H         -34.8400   12.0630   25.5140 H       1  UNL1        0.0370
     92 H         -36.3150   11.8580   24.3540 H       1  UNL1        0.0370
     93 C         -36.6400   13.0680   26.0920 C.3     1  UNL1       -0.0590
     94 H         -36.1160   13.2550   27.0290 H       1  UNL1        0.0380
     95 C         -36.6120   14.3900   25.2590 C.3     1  UNL1       -0.0730
     96 H         -36.7880   14.1610   24.2080 H       1  UNL1        0.0280
     97 H         -37.3900   15.0630   25.6190 H       1  UNL1        0.0280
     98 H         -35.6390   14.8680   25.3690 H       1  UNL1        0.0280
     99 C         -38.0770   12.6770   26.4450 C.3     1  UNL1       -0.0730
    100 H         -38.3470   11.7650   25.9120 H       1  UNL1        0.0280
    101 H         -38.1550   12.5070   27.5190 H       1  UNL1        0.0280
    102 H         -38.7540   13.4810   26.1560 H       1  UNL1        0.0280
@<TRIPOS>BOND
     1    89    88    1
     2    84    80    1
     3    88    83    1
     4    80    85    1
     5    80    83    1
     6    80    77    1
     7    73    72    1
     8    81    77    1
     9    83    86    1
    10    83    75    1
    11    74    72    1
    12    72    75    1
    13    72    47    1
    14    77    76    1
    15    77    82    1
    16    78    76    1
    17    75    76    1
    18    75    87    1
    19    48    47    1
    20    76    79    1
    21    50    49    1
    22    47    49    1
    23    47    45    1
    24    96    95    1
    25    92    90    1
    26    49    52    1
    27    49    51    1
    28    44    43    2
    29    45    46    1
    30    45    43   am
    31    53    52    1
    32    43     1    1
    33    54    52    1
    34    52    55    1
    35    95    98    1
    36    95    97    1
    37    95    93    1
    38    90    91    1
    39    90     1    1
    40    90    93    1
    41   100    99    1
    42     1     2    1
    43     1     3    1
    44    93    99    1
    45    93    94    1
    46   102    99    1
    47    99   101    1
    48    27    25    1
    49    55    56    2
    50    55    57    1
    51     6     3    1
    52     3     4   am
    53    28    25    1
    54    25    21    1
    55    25    26    1
    56    57    58    1
    57    22    20    1
    58    21    20   ar
    59    21    23   ar
    60    20    19   ar
    61    23    24   ar
    62    64    62    1
    63    19    24   ar
    64    19    16    1
    65     4     5    2
    66     4     7    1
    67    17    16    2
    68    16    15   am
    69    11    10    2
    70    14    13    1
    71    58    59    1
    72    58    60    1
    73    58    61    1
    74    15    18    1
    75    15    13    1
    76    10    13    1
    77    10     9   am
    78    62    61   ar
    79    62    63   ar
    80    13    29    1
    81     8     7    1
    82     7     9    1
    83     7    33    1
    84    61    69   ar
    85     9    12    1
    86    66    63    1
    87    63    65   ar
    88    36    35    1
    89    34    33    1
    90    30    29    1
    91    29    31    1
    92    29    32    1
    93    33    35    1
    94    33    39    1
    95    69    71    1
    96    69    67   ar
    97    35    37    1
    98    35    38    1
    99    65    67   ar
   100    65    68    1
   101    42    39    1
   102    39    41    1
   103    39    40    1
   104    67    70    1
@<TRIPOS>MOLECULE
crystal_redock_e8_er3_1.pdbqt
 102 104 0 0 0
SMALL
GASTEIGER

@<TRIPOS>ATOM
      1 C         -32.3510    8.8920   25.0880 C.3     1  UNL1        0.0890
      2 H         -31.3120    8.5620   25.0580 H       1  UNL1        0.0870
      3 N         -33.1880    7.7030   25.1290 N.am    1  UNL1       -0.3460
      4 C         -32.5700    6.3320   25.0160 C.2     1  UNL1        0.2410
      5 O         -31.3960    6.2120   24.8890 O.2     1  UNL1       -0.2710
      6 H         -34.1850    7.8270   25.2350 H       1  UNL1        0.1630
      7 C         -33.4510    5.1110   25.0660 C.3     1  UNL1        0.0920
      8 H         -32.8630    4.2590   25.4070 H       1  UNL1        0.0880
      9 N         -34.5210    5.3200   26.0450 N.am    1  UNL1       -0.3460
     10 C         -34.4140    4.7450   27.3640 C.2     1  UNL1        0.2400
     11 O         -33.4740    4.1090   27.6520 O.2     1  UNL1       -0.2710
     12 H         -35.3390    5.8650   25.8110 H       1  UNL1        0.1630
     13 C         -35.5580    4.9680   28.4010 C.3     1  UNL1        0.0860
     14 H         -35.5380    4.2410   29.2130 H       1  UNL1        0.0860
     15 N         -35.3920    6.2770   29.0110 N.am    1  UNL1       -0.3430
     16 C         -35.0230    6.3730   30.4250 C.2     1  UNL1        0.2730
     17 O         -34.8660    5.3910   31.0640 O.2     1  UNL1       -0.2660
     18 H         -35.5310    7.1110   28.4580 H       1  UNL1        0.1630
     19 C         -34.8430    7.7500   31.0820 C.ar    1  UNL1        0.1540
     20 C         -34.3850    8.9530   30.4570 C.ar    1  UNL1       -0.0170
     21 C         -34.4000    9.9240   31.4830 C.ar    1  UNL1        0.0770
     22 H         -34.0880    9.0990   29.4180 H       1  UNL1        0.0910
     23 O         -34.8200    9.3380   32.5650 O.2     1  UNL1       -0.2180
     24 N         -35.0850    8.0690   32.3570 N.ar    1  UNL1       -0.1230
     25 C         -33.9990   11.3870   31.3460 C.3     1  UNL1       -0.0290
     26 H         -33.1700   11.6020   32.0200 H       1  UNL1        0.0360
     27 H         -33.6920   11.5840   30.3190 H       1  UNL1        0.0360
     28 H         -34.8470   12.0220   31.5990 H       1  UNL1        0.0360
     29 C         -36.8930    4.8870   27.7060 C.3     1  UNL1       -0.0490
     30 H         -36.7580    4.4730   26.7070 H       1  UNL1        0.0300
     31 H         -37.5620    4.2450   28.2780 H       1  UNL1        0.0300
     32 H         -37.3240    5.8860   27.6300 H       1  UNL1        0.0300
     33 C         -34.0770    4.8660   23.6620 C.3     1  UNL1       -0.0330
     34 H         -34.1610    5.8330   23.1660 H       1  UNL1        0.0420
     35 C         -33.1590    3.9640   22.7790 C.3     1  UNL1       -0.0710
     36 H         -32.7540    3.1540   23.3860 H       1  UNL1        0.0280
     37 H         -33.7410    3.5470   21.9580 H       1  UNL1        0.0280
     38 H         -32.3400    4.5610   22.3790 H       1  UNL1        0.0280
     39 C         -35.5130    4.2610   23.7880 C.3     1  UNL1       -0.0710
     40 H         -36.1410    4.6480   22.9860 H       1  UNL1        0.0280
     41 H         -35.4570    3.1740   23.7140 H       1  UNL1        0.0280
     42 H         -35.9400    4.5380   24.7510 H       1  UNL1        0.0280
     43 C         -32.6560    9.7560   26.3450 C.2     1  UNL1        0.2400
     44 O         -32.5310    9.2870   27.4300 O.2     1  UNL1       -0.2710
     45 N         -33.0970   11.1730   26.1970 N.am    1  UNL1       -0.3550
     46 H         -33.2030   11.5840   25.2810 H       1  UNL1        0.1620
     47 C         -33.3820   11.9820   27.4020 C.3     1  UNL1        0.0130
     48 H         -33.5670   11.2970   28.2290 H       1  UNL1        0.0720
     49 C         -34.6060   12.8340   27.1530 C.3     1  UNL1       -0.0380
     50 H         -35.4600   12.1660   27.2770 H       1  UNL1        0.0360
     51 H         -34.4960   13.7030   27.8010 H       1  UNL1        0.0360
     52 C         -34.6790   13.3720   25.7080 C.3     1  UNL1        0.0180
     53 H         -33.8290   12.9330   25.1860 H       1  UNL1        0.0480
     54 H         -35.6940   13.1660   25.3670 H       1  UNL1        0.0480
     55 C         -34.4960   14.9120   25.6030 C.2     1  UNL1        0.2590
     56 O         -35.1020   15.6410   26.3190 O.2     1  UNL1       -0.2650
     57 O         -33.6030   15.4420   24.6310 O.3     1  UNL1       -0.3170
     58 C         -32.2350   15.4660   25.0490 C.3     1  UNL1        0.0520
     59 H         -32.0110   16.5100   25.2670 H       1  UNL1        0.0820
     60 H         -32.1530   14.7160   25.8350 H       1  UNL1        0.0820
     61 C         -31.3600   15.0160   23.8480 C.ar    1  UNL1       -0.0340
     62 C         -30.8600   13.7190   23.7980 C.ar    1  UNL1       -0.0750
     63 C         -30.0740   13.3150   22.7200 C.ar    1  UNL1       -0.0820
     64 H         -31.0840   13.0190   24.6030 H       1  UNL1        0.0840
     65 C         -29.7860   14.2150   21.6900 C.ar    1  UNL1       -0.0830
     66 H         -29.6850   12.2970   22.6820 H       1  UNL1        0.0830
     67 C         -30.2850   15.5090   21.7460 C.ar    1  UNL1       -0.0820
     68 H         -29.1730   13.9070   20.8430 H       1  UNL1        0.0830
     69 C         -31.0730   15.9170   22.8210 C.ar    1  UNL1       -0.0750
     70 H         -30.0570   16.2100   20.9420 H       1  UNL1        0.0830
     71 H         -31.4610   16.9350   22.8570 H       1  UNL1        0.0840
     72 C         -32.1890   12.8820   27.7130 C.3     1  UNL1       -0.0390
     73 H         -31.3310   12.2130   27.7820 H       1  UNL1        0.0360
     74 H         -32.2100   13.6640   26.9540 H       1  UNL1        0.0360
     75 C         -32.3440   13.6000   29.1370 C.3     1  UNL1       -0.0010
     76 C         -32.6350   15.2050   28.9260 C.3     1  UNL1       -0.0350
     77 C         -31.7590   15.9100   29.6810 C.3     1  UNL1        0.0850
     78 H         -32.3860   15.4990   27.9060 H       1  UNL1        0.0360
     79 H         -33.6050   15.4680   29.3480 H       1  UNL1        0.0360
     80 N         -30.6880   14.9450   30.1320 N.4     1  UNL1       -0.0490
     81 H         -31.3160   16.6420   29.0060 H       1  UNL1        0.0750
     82 H         -32.3250   16.2430   30.5500 H       1  UNL1        0.0750
     83 C         -31.2730   13.4680   29.8460 C.3     1  UNL1        0.1930
     84 H         -29.8930   15.0990   29.5290 H       1  UNL1        0.2800
     85 H         -30.5970   15.0680   31.1310 H       1  UNL1        0.2800
     86 H         -31.6520   12.8550   30.6640 H       1  UNL1        0.1290
     87 H         -33.0160   13.0580   29.8020 H       1  UNL1        0.0460
     88 O         -30.2880   12.6660   29.1910 O.3     1  UNL1       -0.3690
     89 H         -30.4720   11.7380   29.3540 H       1  UNL1        0.2120
     90 C         -32.6760    9.6850   23.8320 C.3     1  UNL1       -0.0350
     91 H         -33.5920    9.2430   23.4410 H       1  UNL1        0.0370
     92 H         -32.6630   10.7310   24.1390 H       1  UNL1        0.0370
     93 C         -31.6030    9.5420   22.7060 C.3     1  UNL1       -0.0590
     94 H         -31.7560   10.3560   21.9980 H       1  UNL1        0.0380
     95 C         -30.1470    9.6590   23.2610 C.3     1  UNL1       -0.0730
     96 H         -30.0290   10.6150   23.7700 H       1  UNL1        0.0280
     97 H         -29.9600    8.8480   23.9630 H       1  UNL1        0.0280
     98 H         -29.4380    9.5970   22.4350 H       1  UNL1        0.0280
     99 C         -31.7890    8.2310   21.9370 C.3     1  UNL1       -0.0730
    100 H         -32.7430    7.7800   22.2110 H       1  UNL1        0.0280
    101 H         -31.7770    8.4320   20.8660 H       1  UNL1        0.0280
    102 H         -30.9790    7.5460   22.1860 H       1  UNL1        0.0280
@<TRIPOS>BOND
     1    68    65    1
     2   101    99    1
     3    70    67    1
     4    65    67   ar
     5    65    63   ar
     6    67    69   ar
     7    99   102    1
     8    99   100    1
     9    99    93    1
    10    37    35    1
    11    94    93    1
    12    38    35    1
    13    98    95    1
    14    66    63    1
    15    93    95    1
    16    93    90    1
    17    63    62   ar
    18    35    36    1
    19    35    33    1
    20    69    71    1
    21    69    61   ar
    22    40    39    1
    23    34    33    1
    24    95    96    1
    25    95    97    1
    26    91    90    1
    27    33    39    1
    28    33     7    1
    29    41    39    1
    30    39    42    1
    31    62    61   ar
    32    62    64    1
    33    90    92    1
    34    90     1    1
    35    61    58    1
    36    57    58    1
    37    57    55    1
    38     5     4    2
    39     4     7    1
    40     4     3   am
    41    58    59    1
    42    58    60    1
    43     2     1    1
    44     7     8    1
    45     7     9    1
    46     1     3    1
    47     1    43    1
    48     3     6    1
    49    53    52    1
    50    46    45    1
    51    54    52    1
    52    55    52    1
    53    55    56    2
    54    52    49    1
    55    12     9    1
    56     9    10   am
    57    45    43   am
    58    45    47    1
    59    43    44    2
    60    30    29    1
    61    74    72    1
    62    49    50    1
    63    49    47    1
    64    49    51    1
    65    10    11    2
    66    10    13    1
    67    47    72    1
    68    47    48    1
    69    32    29    1
    70    29    31    1
    71    29    13    1
    72    72    73    1
    73    72    75    1
    74    78    76    1
    75    13    15    1
    76    13    14    1
    77    18    15    1
    78    76    75    1
    79    76    79    1
    80    76    77    1
    81    81    77    1
    82    15    16   am
    83    75    87    1
    84    75    83    1
    85    88    89    1
    86    88    83    1
    87    22    20    1
    88    84    80    1
    89    77    80    1
    90    77    82    1
    91    83    80    1
    92    83    86    1
    93    80    85    1
    94    27    25    1
    95    16    17    2
    96    16    19    1
    97    20    19   ar
    98    20    21   ar
    99    19    24   ar
   100    25    21    1
   101    25    28    1
   102    25    26    1
   103    21    23   ar
   104    24    23   ar
@<TRIPOS>MOLECULE
crystal_redock_e8_er3_1.pdbqt
 102 104 0 0 0
SMALL
GASTEIGER

@<TRIPOS>ATOM
      1 C         -34.7590   11.2150   25.3770 C.3     1  UNL1        0.0890
      2 H         -34.2830   11.6600   24.5030 H       1  UNL1        0.0870
      3 N         -34.2850    9.8440   25.4850 N.am    1  UNL1       -0.3460
      4 C         -32.9720    9.4410   24.8630 C.2     1  UNL1        0.2410
      5 O         -32.3150   10.2380   24.2790 O.2     1  UNL1       -0.2710
      6 H         -34.8610    9.1800   25.9840 H       1  UNL1        0.1630
      7 C         -32.4940    8.0180   24.9890 C.3     1  UNL1        0.0920
      8 H         -31.5350    8.0060   25.5070 H       1  UNL1        0.0880
      9 N         -33.4400    7.2550   25.8090 N.am    1  UNL1       -0.3460
     10 C         -32.9770    6.5650   26.9880 C.2     1  UNL1        0.2400
     11 O         -31.8470    6.6110   27.2900 O.2     1  UNL1       -0.2710
     12 H         -34.4170    7.2040   25.5600 H       1  UNL1        0.1630
     13 C         -33.9870    5.7520   27.8560 C.3     1  UNL1        0.0860
     14 H         -33.6410    4.7410   28.0710 H       1  UNL1        0.0860
     15 N         -34.1500    6.4170   29.1380 N.am    1  UNL1       -0.3430
     16 C         -34.6590    7.7900   29.1790 C.2     1  UNL1        0.2730
     17 O         -34.9330    8.3510   28.1750 O.2     1  UNL1       -0.2660
     18 H         -33.9110    5.9310   29.9910 H       1  UNL1        0.1630
     19 C         -34.8370    8.5050   30.5270 C.ar    1  UNL1        0.1540
     20 C         -35.2030    9.8720   30.7390 C.ar    1  UNL1       -0.0170
     21 C         -35.2300   10.0270   32.1430 C.ar    1  UNL1        0.0770
     22 H         -35.4150   10.6340   29.9900 H       1  UNL1        0.0910
     23 O         -34.9180    8.8780   32.6660 O.2     1  UNL1       -0.2180
     24 N         -34.6840    7.9740   31.7430 N.ar    1  UNL1       -0.1230
     25 C         -35.5650   11.3040   32.9030 C.3     1  UNL1       -0.0290
     26 H         -36.0360   12.0170   32.2260 H       1  UNL1        0.0360
     27 H         -36.2500   11.0720   33.7190 H       1  UNL1        0.0360
     28 H         -34.6510   11.7370   33.3080 H       1  UNL1        0.0360
     29 C         -35.3140    5.6710   27.1440 C.3     1  UNL1       -0.0490
     30 H         -36.1170    5.6040   27.8780 H       1  UNL1        0.0300
     31 H         -35.4540    6.5640   26.5340 H       1  UNL1        0.0300
     32 H         -35.3310    4.7880   26.5050 H       1  UNL1        0.0300
     33 C         -32.4030    7.3750   23.5740 C.3     1  UNL1       -0.0330
     34 H         -32.6270    8.1520   22.8440 H       1  UNL1        0.0420
     35 C         -30.9610    6.8560   23.2780 C.3     1  UNL1       -0.0710
     36 H         -30.9870    6.1790   22.4230 H       1  UNL1        0.0280
     37 H         -30.3100    7.7000   23.0540 H       1  UNL1        0.0280
     38 H         -30.5800    6.3240   24.1500 H       1  UNL1        0.0280
     39 C         -33.4600    6.2360   23.4080 C.3     1  UNL1       -0.0710
     40 H         -34.0380    6.4070   22.5000 H       1  UNL1        0.0280
     41 H         -32.9510    5.2740   23.3400 H       1  UNL1        0.0280
     42 H         -34.1280    6.2320   24.2700 H       1  UNL1        0.0280
     43 C         -34.3970   11.9690   26.6890 C.2     1  UNL1        0.2400
     44 O         -34.8410   11.5960   27.7270 O.2     1  UNL1       -0.2710
     45 N         -33.4890   13.1500   26.6530 N.am    1  UNL1       -0.3550
     46 H         -33.1020   13.4740   25.7790 H       1  UNL1        0.1620
     47 C         -33.1530   13.8550   27.9100 C.3     1  UNL1        0.0130
     48 H         -33.4200   13.2030   28.7410 H       1  UNL1        0.0720
     49 C         -33.9450   15.1410   27.9880 C.3     1  UNL1       -0.0380
     50 H         -34.7330   14.9580   28.7190 H       1  UNL1        0.0360
     51 H         -33.2100   15.9280   28.1630 H       1  UNL1        0.0360
     52 C         -34.6520   15.4910   26.6610 C.3     1  UNL1        0.0180
     53 H         -34.8350   14.5390   26.1640 H       1  UNL1        0.0480
     54 H         -35.4900   16.1330   26.9340 H       1  UNL1        0.0480
     55 C         -33.7760   16.3230   25.6840 C.2     1  UNL1        0.2590
     56 O         -33.6810   17.5010   25.8120 O.2     1  UNL1       -0.2650
     57 O         -33.0950   15.6620   24.6240 O.3     1  UNL1       -0.3170
     58 C         -31.8650   16.2850   24.2450 C.3     1  UNL1        0.0520
     59 H         -32.1410   17.0980   23.5730 H       1  UNL1        0.0820
     60 H         -31.3440   16.5020   25.1770 H       1  UNL1        0.0820
     61 C         -31.0300   15.2490   23.4460 C.ar    1  UNL1       -0.0340
     62 C         -30.3000   15.6530   22.3320 C.ar    1  UNL1       -0.0750
     63 C         -29.5500   14.7220   21.6140 C.ar    1  UNL1       -0.0820
     64 H         -30.3150   16.6980   22.0220 H       1  UNL1        0.0840
     65 C         -29.5340   13.3830   22.0120 C.ar    1  UNL1       -0.0830
     66 H         -28.9770   15.0420   20.7430 H       1  UNL1        0.0830
     67 C         -30.2670   12.9840   23.1210 C.ar    1  UNL1       -0.0820
     68 H         -28.9500   12.6490   21.4560 H       1  UNL1        0.0830
     69 C         -31.0160   13.9110   23.8430 C.ar    1  UNL1       -0.0750
     70 H         -30.2550   11.9380   23.4280 H       1  UNL1        0.0830
     71 H         -31.5880   13.5900   24.7140 H       1  UNL1        0.0840
     72 C         -31.6600   14.1720   27.9410 C.3     1  UNL1       -0.0390
     73 H         -31.3030   13.9850   26.9280 H       1  UNL1        0.0360
     74 H         -31.5840   15.1720   28.3690 H       1  UNL1        0.0360
     75 C         -30.8630   13.1800   28.9140 C.3     1  UNL1       -0.0010
     76 C         -31.7670   11.8380   29.2070 C.3     1  UNL1       -0.0350
     77 C         -31.8340   11.6400   30.5450 C.3     1  UNL1        0.0850
     78 H         -32.8040   12.0160   28.9240 H       1  UNL1        0.0360
     79 H         -31.2480   10.9500   28.8440 H       1  UNL1        0.0360
     80 N         -31.3350   12.9040   31.2030 N.4     1  UNL1       -0.0490
     81 H         -32.8940   11.5170   30.7690 H       1  UNL1        0.0750
     82 H         -31.1350   10.8310   30.7550 H       1  UNL1        0.0750
     83 C         -30.5950   13.7470   30.0420 C.3     1  UNL1        0.1930
     84 H         -32.1540   13.4150   31.4990 H       1  UNL1        0.2800
     85 H         -30.6450   12.6180   31.8830 H       1  UNL1        0.2800
     86 H         -29.5070   13.7830   29.9920 H       1  UNL1        0.1290
     87 H         -29.8340   13.0230   28.5910 H       1  UNL1        0.0460
     88 O         -31.0210   15.1100   30.0750 O.3     1  UNL1       -0.3690
     89 H         -31.9750   15.1450   30.1780 H       1  UNL1        0.2120
     90 C         -36.2690   11.2060   25.1930 C.3     1  UNL1       -0.0350
     91 H         -36.4420   10.6750   24.2580 H       1  UNL1        0.0370
     92 H         -36.6710   10.8110   26.1270 H       1  UNL1        0.0370
     93 C         -36.8870   12.6290   25.0130 C.3     1  UNL1       -0.0590
     94 H         -36.0930   13.3580   25.1780 H       1  UNL1        0.0380
     95 C         -37.4440   12.8510   23.5700 C.3     1  UNL1       -0.0730
     96 H         -37.1100   12.0400   22.9230 H       1  UNL1        0.0280
     97 H         -38.5330   12.8660   23.5990 H       1  UNL1        0.0280
     98 H         -37.0780   13.8010   23.1820 H       1  UNL1        0.0280
     99 C         -37.9710   12.8910   26.0610 C.3     1  UNL1       -0.0730
    100 H         -38.1910   13.9580   26.0980 H       1  UNL1        0.0280
    101 H         -38.8750   12.3420   25.7950 H       1  UNL1        0.0280
    102 H         -37.6200   12.5580   27.0380 H       1  UNL1        0.0280
@<TRIPOS>BOND
     1    66    63    1
     2    68    65    1
     3    63    65   ar
     4    63    62   ar
     5    65    67   ar
     6    64    62    1
     7    62    61   ar
     8    36    35    1
     9    40    39    1
    10    34    33    1
    11    96    95    1
    12    37    35    1
    13    67    70    1
    14    67    69   ar
    15    98    95    1
    16    35    33    1
    17    35    38    1
    18    41    39    1
    19    39    33    1
    20    39    42    1
    21    61    69   ar
    22    61    58    1
    23    95    97    1
    24    95    93    1
    25    59    58    1
    26    33     7    1
    27    69    71    1
    28    58    57    1
    29    58    60    1
    30    91    90    1
    31     5     4    2
    32     2     1    1
    33    57    55    1
    34     4     7    1
    35     4     3   am
    36     7     8    1
    37     7     9    1
    38    93    94    1
    39    93    90    1
    40    93    99    1
    41    90     1    1
    42    90    92    1
    43     1     3    1
    44     1    43    1
    45     3     6    1
    46    12     9    1
    47    55    56    2
    48    55    52    1
    49    46    45    1
    50   101    99    1
    51     9    10   am
    52    99   100    1
    53    99   102    1
    54    53    52    1
    55    32    29    1
    56    31    29    1
    57    45    43   am
    58    45    47    1
    59    52    54    1
    60    52    49    1
    61    43    44    2
    62    73    72    1
    63    10    11    2
    64    10    13    1
    65    29    13    1
    66    29    30    1
    67    13    14    1
    68    13    15    1
    69    47    72    1
    70    47    49    1
    71    47    48    1
    72    72    74    1
    73    72    75    1
    74    49    51    1
    75    49    50    1
    76    17    16    2
    77    87    75    1
    78    79    76    1
    79    75    76    1
    80    75    83    1
    81    78    76    1
    82    15    16   am
    83    15    18    1
    84    16    19    1
    85    76    77    1
    86    22    20    1
    87    86    83    1
    88    83    88    1
    89    83    80    1
    90    88    89    1
    91    19    20   ar
    92    19    24   ar
    93    77    82    1
    94    77    81    1
    95    77    80    1
    96    20    21   ar
    97    80    84    1
    98    80    85    1
    99    24    23   ar
   100    21    23   ar
   101    21    25    1
   102    26    25    1
   103    25    28    1
   104    25    27    1
@<TRIPOS>MOLECULE
crystal_redock_e8_er3_1.pdbqt
 102 104 0 0 0
SMALL
GASTEIGER

@<TRIPOS>ATOM
      1 C         -34.4430   10.3430   29.3130 C.3     1  UNL1        0.0890
      2 H         -35.3740   10.8820   29.1300 H       1  UNL1        0.0870
      3 N         -34.6700    8.9480   28.9640 N.am    1  UNL1       -0.3460
      4 C         -36.0680    8.4420   28.7160 C.2     1  UNL1        0.2410
      5 O         -36.9970    9.1760   28.8060 O.2     1  UNL1       -0.2710
      6 H         -33.8660    8.3390   28.8940 H       1  UNL1        0.1630
      7 C         -36.2840    6.9970   28.3500 C.3     1  UNL1        0.0920
      8 H         -36.9630    6.9400   27.5000 H       1  UNL1        0.0880
      9 N         -35.0110    6.4050   27.9280 N.am    1  UNL1       -0.3460
     10 C         -34.8230    6.0030   26.5560 C.2     1  UNL1        0.2400
     11 O         -35.6860    6.1480   25.7780 O.2     1  UNL1       -0.2710
     12 H         -34.2580    6.2720   28.5880 H       1  UNL1        0.1630
     13 C         -33.4680    5.3700   26.1130 C.3     1  UNL1        0.0860
     14 H         -33.5980    4.5020   25.4660 H       1  UNL1        0.0860
     15 N         -32.7180    6.3510   25.3460 N.am    1  UNL1       -0.3430
     16 C         -32.6570    6.2320   23.8870 C.2     1  UNL1        0.2730
     17 O         -33.2110    5.3430   23.3410 O.2     1  UNL1       -0.2660
     18 H         -32.2440    7.1060   25.8210 H       1  UNL1        0.1630
     19 C         -31.8690    7.2630   23.0630 C.ar    1  UNL1        0.1540
     20 C         -31.2910    8.4850   23.5320 C.ar    1  UNL1       -0.0170
     21 C         -30.6840    9.0600   22.3940 C.ar    1  UNL1        0.0770
     22 H         -31.3090    8.8920   24.5430 H       1  UNL1        0.0910
     23 O         -30.8930    8.2540   21.3940 O.2     1  UNL1       -0.2180
     24 N         -31.5820    7.1990   21.7600 N.ar    1  UNL1       -0.1230
     25 C         -29.9240   10.3790   22.3470 C.3     1  UNL1       -0.0290
     26 H         -29.4560   10.4950   21.3690 H       1  UNL1        0.0360
     27 H         -30.6160   11.2030   22.5170 H       1  UNL1        0.0360
     28 H         -29.1560   10.3840   23.1200 H       1  UNL1        0.0360
     29 C         -32.6810    4.9560   27.3310 C.3     1  UNL1       -0.0490
     30 H         -33.1700    4.1060   27.8070 H       1  UNL1        0.0300
     31 H         -31.6720    4.6750   27.0330 H       1  UNL1        0.0300
     32 H         -32.6350    5.7890   28.0330 H       1  UNL1        0.0300
     33 C         -36.8270    6.2240   29.5880 C.3     1  UNL1       -0.0330
     34 H         -37.3450    6.9430   30.2230 H       1  UNL1        0.0420
     35 C         -37.8630    5.1360   29.1680 C.3     1  UNL1       -0.0710
     36 H         -37.3650    4.3690   28.5750 H       1  UNL1        0.0280
     37 H         -38.2950    4.6820   30.0600 H       1  UNL1        0.0280
     38 H         -38.6540    5.5960   28.5760 H       1  UNL1        0.0280
     39 C         -35.6570    5.6030   30.4170 C.3     1  UNL1       -0.0710
     40 H         -35.8070    5.8200   31.4750 H       1  UNL1        0.0280
     41 H         -35.6390    4.5230   30.2660 H       1  UNL1        0.0280
     42 H         -34.7110    6.0310   30.0880 H       1  UNL1        0.0280
     43 C         -33.2710   10.8860   28.4470 C.2     1  UNL1        0.2400
     44 O         -32.6480   10.1410   27.7610 O.2     1  UNL1       -0.2710
     45 N         -32.9290   12.3370   28.4660 N.am    1  UNL1       -0.3550
     46 H         -33.4540   12.9800   29.0410 H       1  UNL1        0.1620
     47 C         -31.8130   12.8380   27.6360 C.3     1  UNL1        0.0130
     48 H         -31.1880   11.9870   27.3640 H       1  UNL1        0.0720
     49 C         -31.0050   13.8370   28.4350 C.3     1  UNL1       -0.0380
     50 H         -30.1740   13.2720   28.8570 H       1  UNL1        0.0360
     51 H         -30.8120   14.6680   27.7560 H       1  UNL1        0.0360
     52 C         -31.7890   14.4210   29.6300 C.3     1  UNL1        0.0180
     53 H         -32.7830   13.9790   29.5760 H       1  UNL1        0.0480
     54 H         -31.1620   14.2500   30.5060 H       1  UNL1        0.0480
     55 C         -31.9990   15.9590   29.5490 C.2     1  UNL1        0.2590
     56 O         -31.4400   16.6850   30.3050 O.2     1  UNL1       -0.2650
     57 O         -32.8800   16.4910   28.5670 O.3     1  UNL1       -0.3170
     58 C         -32.5700   17.8300   28.1710 C.3     1  UNL1        0.0520
     59 H         -32.4880   18.3990   29.0970 H       1  UNL1        0.0820
     60 H         -31.7120   17.7490   27.5030 H       1  UNL1        0.0820
     61 C         -33.7730   18.3800   27.3600 C.ar    1  UNL1       -0.0340
     62 C         -34.4470   17.5540   26.4660 C.ar    1  UNL1       -0.0750
     63 C         -35.5280   18.0480   25.7370 C.ar    1  UNL1       -0.0820
     64 H         -34.1280   16.5200   26.3360 H       1  UNL1        0.0840
     65 C         -35.9330   19.3750   25.9030 C.ar    1  UNL1       -0.0830
     66 H         -36.0540   17.3980   25.0380 H       1  UNL1        0.0830
     67 C         -35.2560   20.1970   26.7940 C.ar    1  UNL1       -0.0820
     68 H         -36.7770   19.7700   25.3380 H       1  UNL1        0.0830
     69 C         -34.1760   19.7060   27.5260 C.ar    1  UNL1       -0.0750
     70 H         -35.5730   21.2320   26.9190 H       1  UNL1        0.0830
     71 H         -33.6500   20.3580   28.2240 H       1  UNL1        0.0840
     72 C         -32.3640   13.5140   26.3820 C.3     1  UNL1       -0.0390
     73 H         -32.8250   12.7150   25.8010 H       1  UNL1        0.0360
     74 H         -32.9690   14.3450   26.7430 H       1  UNL1        0.0360
     75 C         -31.1940   14.1380   25.4820 C.3     1  UNL1       -0.0010
     76 C         -31.5320   15.7090   25.1360 C.3     1  UNL1       -0.0350
     77 C         -31.4230   15.8940   23.7980 C.3     1  UNL1        0.0850
     78 H         -32.5810   15.9190   25.3380 H       1  UNL1        0.0360
     79 H         -30.7570   16.3570   25.5460 H       1  UNL1        0.0360
     80 N         -31.3640   14.5240   23.1670 N.4     1  UNL1       -0.0490
     81 H         -32.3480   16.3850   23.4960 H       1  UNL1        0.0750
     82 H         -30.4670   16.3950   23.6500 H       1  UNL1        0.0750
     83 C         -31.0640   13.4920   24.3720 C.3     1  UNL1        0.1930
     84 H         -32.2880   14.3350   22.8040 H       1  UNL1        0.2800
     85 H         -30.5690   14.5310   22.5440 H       1  UNL1        0.2800
     86 H         -30.0680   13.0690   24.5030 H       1  UNL1        0.1290
     87 H         -30.2040   13.9200   25.8830 H       1  UNL1        0.0460
     88 O         -31.9470   12.3720   24.2930 O.3     1  UNL1       -0.3690
     89 H         -32.8070   12.6630   23.9780 H       1  UNL1        0.2120
     90 C         -34.0760   10.4330   30.7850 C.3     1  UNL1       -0.0350
     91 H         -33.3720    9.6190   30.9570 H       1  UNL1        0.0370
     92 H         -33.7650   11.4650   30.9420 H       1  UNL1        0.0370
     93 C         -35.2800   10.1830   31.7480 C.3     1  UNL1       -0.0590
     94 H         -36.1960   10.3020   31.1690 H       1  UNL1        0.0380
     95 C         -35.2740    8.7360   32.3370 C.3     1  UNL1       -0.0730
     96 H         -34.7650    8.0640   31.6460 H       1  UNL1        0.0280
     97 H         -34.7520    8.7350   33.2930 H       1  UNL1        0.0280
     98 H         -36.3000    8.3990   32.4830 H       1  UNL1        0.0280
     99 C         -35.3110   11.2270   32.8670 C.3     1  UNL1       -0.0730
    100 H         -35.4250   12.2210   32.4350 H       1  UNL1        0.0280
    101 H         -36.1490   11.0220   33.5330 H       1  UNL1        0.0280
    102 H         -34.3800   11.1810   33.4320 H       1  UNL1        0.0280
@<TRIPOS>BOND
     1    26    25    1
     2    23    24   ar
     3    23    21   ar
     4    24    19   ar
     5    25    21    1
     6    25    27    1
     7    25    28    1
     8    21    20   ar
     9    85    80    1
    10    84    80    1
    11    19    20   ar
    12    19    16    1
    13    80    77    1
    14    80    83    1
    15    17    16    2
    16    81    77    1
    17    20    22    1
    18    82    77    1
    19    77    76    1
    20    16    15   am
    21    89    88    1
    22    88    83    1
    23    83    86    1
    24    83    75    1
    25    66    63    1
    26    76    78    1
    27    76    75    1
    28    76    79    1
    29    68    65    1
    30    15    18    1
    31    15    13    1
    32    14    13    1
    33    75    87    1
    34    75    72    1
    35    63    65   ar
    36    63    62   ar
    37    11    10    2
    38    73    72    1
    39    65    67   ar
    40    13    10    1
    41    13    29    1
    42    64    62    1
    43    72    74    1
    44    72    47    1
    45    62    61   ar
    46    10     9   am
    47    67    70    1
    48    67    69   ar
    49    31    29    1
    50    29    30    1
    51    29    32    1
    52    61    69   ar
    53    61    58    1
    54    48    47    1
    55     8     7    1
    56    60    58    1
    57    69    71    1
    58    47    49    1
    59    47    45    1
    60    51    49    1
    61    44    43    2
    62     9     7    1
    63     9    12    1
    64    58    57    1
    65    58    59    1
    66     7     4    1
    67     7    33    1
    68    49    50    1
    69    49    52    1
    70    43    45   am
    71    43     1    1
    72    45    46    1
    73    57    55    1
    74    36    35    1
    75    38    35    1
    76     4     5    2
    77     4     3   am
    78     6     3    1
    79     3     1    1
    80     2     1    1
    81    35    33    1
    82    35    37    1
    83     1    90    1
    84    55    52    1
    85    55    56    2
    86    53    52    1
    87    33    34    1
    88    33    39    1
    89    52    54    1
    90    42    39    1
    91    41    39    1
    92    39    40    1
    93    90    92    1
    94    90    91    1
    95    90    93    1
    96    94    93    1
    97    96    95    1
    98    93    95    1
    99    93    99    1
   100    95    98    1
   101    95    97    1
   102   100    99    1
   103    99   102    1
   104    99   101    1
