crystal_redock_e24_er3_1.pdbqt
     RDKit          3D

102104  0  0  0  0  0  0  0  0999 V2000
  -30.8766   14.9721   24.1995 C   0  0  2  0  0  0  0  0  0  0  0  0
  -29.8991   15.1158   23.7274 H   0  0  0  0  0  0  0  0  0  0  0  0
  -31.1203   13.5334   24.2289 N   0  0  0  0  0  0  0  0  0  0  0  0
  -30.9077   12.6999   23.1389 C   0  0  0  0  0  0  0  0  0  0  0  0
  -30.5200   13.0827   22.0375 O   0  0  0  0  0  0  0  0  0  0  0  0
  -31.4500   13.1170   25.0950 H   0  0  0  0  0  0  0  0  0  0  0  0
  -31.1548   11.2256   23.4764 C   0  0  1  0  0  0  0  0  0  0  0  0
  -30.5527   10.9737   24.3584 H   0  0  0  0  0  0  0  0  0  0  0  0
  -32.5723   11.1603   23.8218 N   0  0  0  0  0  0  0  0  0  0  0  0
  -33.0352   10.8746   25.0974 C   0  0  0  0  0  0  0  0  0  0  0  0
  -32.3216   10.5503   26.0462 O   0  0  0  0  0  0  0  0  0  0  0  0
  -33.2408   11.4243   23.1045 H   0  0  0  0  0  0  0  0  0  0  0  0
  -34.5536   10.8507   25.2193 C   0  0  1  0  0  0  0  0  0  0  0  0
  -34.8050   10.8682   26.2848 H   0  0  0  0  0  0  0  0  0  0  0  0
  -35.0918   12.0527   24.5971 N   0  0  0  0  0  0  0  0  0  0  0  0
  -35.3066   13.2259   25.3085 C   0  0  0  0  0  0  0  0  0  0  0  0
  -35.1570   13.3281   26.5241 O   0  0  0  0  0  0  0  0  0  0  0  0
  -35.1588   12.0581   23.5848 H   0  0  0  0  0  0  0  0  0  0  0  0
  -35.7280   14.3612   24.4982 C   0  0  0  0  0  0  0  0  0  0  0  0
  -35.9410   14.4614   23.0992 C   0  0  0  0  0  0  0  0  0  0  0  0
  -36.3202   15.7643   22.8984 C   0  0  0  0  0  0  0  0  0  0  0  0
  -35.8341   13.7020   22.3386 H   0  0  0  0  0  0  0  0  0  0  0  0
  -36.3385   16.4126   24.0914 O   0  0  0  0  0  0  0  0  0  0  0  0
  -35.9678   15.5391   25.0964 N   0  0  0  0  0  0  0  0  0  0  0  0
  -36.6900   16.5539   21.7118 C   0  0  0  0  0  0  0  0  0  0  0  0
  -36.0845   17.4632   21.6494 H   0  0  0  0  0  0  0  0  0  0  0  0
  -36.5346   15.9793   20.7934 H   0  0  0  0  0  0  0  0  0  0  0  0
  -37.7441   16.8437   21.7589 H   0  0  0  0  0  0  0  0  0  0  0  0
  -35.1271    9.5992   24.5712 C   0  0  0  0  0  0  0  0  0  0  0  0
  -34.6945    8.6967   25.0158 H   0  0  0  0  0  0  0  0  0  0  0  0
  -36.2137    9.5600   24.7020 H   0  0  0  0  0  0  0  0  0  0  0  0
  -34.9235    9.5690   23.4950 H   0  0  0  0  0  0  0  0  0  0  0  0
  -30.8073   10.2596   22.3217 C   0  0  0  0  0  0  0  0  0  0  0  0
  -31.2707   10.6170   21.3929 H   0  0  0  0  0  0  0  0  0  0  0  0
  -29.2902   10.1860   22.1036 C   0  0  0  0  0  0  0  0  0  0  0  0
  -28.7796    9.8185   23.0005 H   0  0  0  0  0  0  0  0  0  0  0  0
  -29.0509    9.5060   21.2787 H   0  0  0  0  0  0  0  0  0  0  0  0
  -28.8665   11.1623   21.8525 H   0  0  0  0  0  0  0  0  0  0  0  0
  -31.3303    8.8415   22.5874 C   0  0  0  0  0  0  0  0  0  0  0  0
  -32.4241    8.8196   22.6241 H   0  0  0  0  0  0  0  0  0  0  0  0
  -31.0213    8.1572   21.7898 H   0  0  0  0  0  0  0  0  0  0  0  0
  -30.9484    8.4495   23.5363 H   0  0  0  0  0  0  0  0  0  0  0  0
  -30.7928   15.4198   25.6539 C   0  0  0  0  0  0  0  0  0  0  0  0
  -29.8299   16.0637   26.0674 O   0  0  0  0  0  0  0  0  0  0  0  0
  -31.9189   15.1019   26.3974 N   0  0  0  0  0  0  0  0  0  0  0  0
  -32.6678   14.5766   25.9561 H   0  0  0  0  0  0  0  0  0  0  0  0
  -32.0773   15.4226   27.8129 C   0  0  2  0  0  0  0  0  0  0  0  0
  -31.2095   16.0013   28.1494 H   0  0  0  0  0  0  0  0  0  0  0  0
  -32.1492   14.1191   28.6294 C   0  0  0  0  0  0  0  0  0  0  0  0
  -32.4314   14.3531   29.6639 H   0  0  0  0  0  0  0  0  0  0  0  0
  -32.9419   13.4744   28.2277 H   0  0  0  0  0  0  0  0  0  0  0  0
  -30.8239   13.3505   28.6466 C   0  0  0  0  0  0  0  0  0  0  0  0
  -30.4049   13.2970   27.6359 H   0  0  0  0  0  0  0  0  0  0  0  0
  -30.0923   13.8542   29.2869 H   0  0  0  0  0  0  0  0  0  0  0  0
  -30.9774   11.9244   29.1221 C   0  0  0  0  0  0  0  0  0  0  0  0
  -30.3651   10.9866   28.6256 O   0  0  0  0  0  0  0  0  0  0  0  0
  -31.8383   11.8501   30.1752 O   0  0  0  0  0  0  0  0  0  0  0  0
  -32.1253   10.5427   30.7029 C   0  0  0  0  0  0  0  0  0  0  0  0
  -31.2252    9.9161   30.7000 H   0  0  0  0  0  0  0  0  0  0  0  0
  -32.4149   10.6662   31.7526 H   0  0  0  0  0  0  0  0  0  0  0  0
  -33.2594    9.9122   29.9414 C   0  0  0  0  0  0  0  0  0  0  0  0
  -33.0470    8.7684   29.1613 C   0  0  0  0  0  0  0  0  0  0  0  0
  -34.1004    8.1931   28.4489 C   0  0  0  0  0  0  0  0  0  0  0  0
  -32.0590    8.3191   29.1002 H   0  0  0  0  0  0  0  0  0  0  0  0
  -35.3742    8.7550   28.5098 C   0  0  0  0  0  0  0  0  0  0  0  0
  -33.9264    7.3074   27.8448 H   0  0  0  0  0  0  0  0  0  0  0  0
  -35.5954    9.8953   29.2796 C   0  0  0  0  0  0  0  0  0  0  0  0
  -36.1926    8.3076   27.9535 H   0  0  0  0  0  0  0  0  0  0  0  0
  -34.5432   10.4725   29.9918 C   0  0  0  0  0  0  0  0  0  0  0  0
  -36.5868   10.3366   29.3241 H   0  0  0  0  0  0  0  0  0  0  0  0
  -34.7295   11.3633   30.5866 H   0  0  0  0  0  0  0  0  0  0  0  0
  -33.3559   16.2568   28.0302 C   0  0  0  0  0  0  0  0  0  0  0  0
  -34.2341   15.6512   27.7729 H   0  0  0  0  0  0  0  0  0  0  0  0
  -33.4370   16.4886   29.0996 H   0  0  0  0  0  0  0  0  0  0  0  0
  -33.4107   17.5534   27.2105 C   0  0  2  0  0  0  0  0  0  0  0  0
  -32.3208   18.5599   27.5669 C   0  0  0  0  0  0  0  0  0  0  0  0
  -32.7808   19.8270   26.8715 C   0  0  0  0  0  0  0  0  0  0  0  0
  -32.2694   18.7175   28.6511 H   0  0  0  0  0  0  0  0  0  0  0  0
  -31.3285   18.2561   27.2222 H   0  0  0  0  0  0  0  0  0  0  0  0
  -34.2789   19.7450   26.8911 N   0  0  0  0  0  0  0  0  0  0  0  0
  -32.4743   20.7434   27.3820 H   0  0  0  0  0  0  0  0  0  0  0  0
  -32.4790   19.8525   25.8199 H   0  0  0  0  0  0  0  0  0  0  0  0
  -34.6877   18.3846   27.3970 C   0  0  2  0  0  0  0  0  0  0  0  0
  -34.6791   20.4724   27.4985 H   0  0  0  0  0  0  0  0  0  0  0  0
  -34.6556   19.9086   25.9474 H   0  0  0  0  0  0  0  0  0  0  0  0
  -35.5057   18.0402   26.7564 H   0  0  0  0  0  0  0  0  0  0  0  0
  -33.3261   17.3112   26.1426 H   0  0  0  0  0  0  0  0  0  0  0  0
  -35.1356   18.3928   28.7446 O   0  0  0  0  0  0  0  0  0  0  0  0
  -35.5255   17.5215   28.9289 H   0  0  0  0  0  0  0  0  0  0  0  0
  -31.9731   15.7248   23.4291 C   0  0  0  0  0  0  0  0  0  0  0  0
  -32.0735   15.2993   22.4222 H   0  0  0  0  0  0  0  0  0  0  0  0
  -32.9411   15.5576   23.9167 H   0  0  0  0  0  0  0  0  0  0  0  0
  -31.7319   17.2443   23.3120 C   0  0  0  0  0  0  0  0  0  0  0  0
  -31.5742   17.6668   24.3112 H   0  0  0  0  0  0  0  0  0  0  0  0
  -30.5052   17.5691   22.4587 C   0  0  0  0  0  0  0  0  0  0  0  0
  -29.5864   17.1996   22.9234 H   0  0  0  0  0  0  0  0  0  0  0  0
  -30.5865   17.1248   21.4610 H   0  0  0  0  0  0  0  0  0  0  0  0
  -30.3929   18.6520   22.3373 H   0  0  0  0  0  0  0  0  0  0  0  0
  -32.9686   17.9241   22.7201 C   0  0  0  0  0  0  0  0  0  0  0  0
  -33.2004   17.5333   21.7237 H   0  0  0  0  0  0  0  0  0  0  0  0
  -33.8410   17.7642   23.3617 H   0  0  0  0  0  0  0  0  0  0  0  0
  -32.8166   19.0053   22.6348 H   0  0  0  0  0  0  0  0  0  0  0  0
102 99  1  0
101 99  1  0
100 99  1  0
 99 93  1  0
 98 95  1  0
 41 39  1  0
 93 94  1  0
 93 95  1  0
 93 90  1  0
 34 33  1  0
 37 35  1  0
 97 95  1  0
 91 90  1  0
 95 96  1  0
 40 39  1  0
 39 33  1  0
 39 42  1  0
 90 92  1  0
 90  1  1  0
 33 35  1  0
 33  7  1  0
  5  4  2  0
 35 36  1  0
 35 38  1  0
 27 25  1  0
 12  9  1  0
  4  7  1  0
  4  3  1  0
  1  2  1  6
  7  9  1  0
  7  8  1  1
 28 25  1  0
 22 20  1  0
  1  3  1  0
  1 43  1  0
 25 26  1  0
 25 21  1  0
 32 29  1  0
  9 10  1  0
  3  6  1  0
 18 15  1  0
 20 21  2  0
 20 19  1  0
 43 44  2  0
 43 45  1  0
 21 23  1  0
 30 29  1  0
 29 31  1  0
 29 13  1  0
 75 87  1  6
 73 72  1  0
 83 86  1  6
 10 13  1  0
 10 11  2  0
 46 45  1  0
 15 13  1  0
 15 16  1  0
 45 47  1  0
 89 88  1  0
 13 14  1  1
 19 16  1  0
 19 24  2  0
 75 72  1  0
 75 83  1  0
 75 76  1  0
 72 47  1  0
 72 74  1  0
 23 24  1  0
 83 88  1  0
 83 80  1  0
 16 17  2  0
 79 76  1  0
 47 48  1  1
 47 49  1  0
 76 77  1  0
 76 78  1  0
 85 80  1  0
 82 77  1  0
 51 49  1  0
 80 77  1  0
 80 84  1  0
 49 50  1  0
 49 52  1  0
 77 81  1  0
 56 55  2  0
 64 62  1  0
 66 63  1  0
 53 52  1  0
 52 55  1  0
 52 54  1  0
 55 57  1  0
 59 58  1  0
 62 63  2  0
 62 61  1  0
 63 65  1  0
 58 61  1  0
 58 57  1  0
 58 60  1  0
 61 69  2  0
 65 68  1  0
 65 67  2  0
 69 67  1  0
 69 71  1  0
 67 70  1  0
M  CHG  1  80   1
M  END
>  <_TriposChargeType>  (1) 
GASTEIGER

>  <energy_abs>  (1) 
85.31450667295893

>  <SMILE>  (1) 
[H]O[C@]1([H])[C@]([H])(C([H])([H])[C@]([H])(N([H])C(=O)[C@@]([H])(N([H])C(=O)[C@@]([H])(N([H])C(=O)[C@@]([H])(N([H])C(=O)c2noc(C([H])([H])[H])c2[H])C([H])([H])[H])C([H])(C([H])([H])[H])C([H])([H])[H])C([H])([H])C([H])(C([H])([H])[H])C([H])([H])[H])C([H])([H])C([H])([H])C(=O)OC([H])([H])c2c([H])c([H])c([H])c([H])c2[H])C([H])([H])C([H])([H])[N+]1([H])[H]

$$$$
