crystal_redock_e32_er3_1.pdbqt
     RDKit          3D

102104  0  0  0  0  0  0  0  0999 V2000
  -11.2554   13.8395   69.0450 C   0  0  2  0  0  0  0  0  0  0  0  0
  -12.0954   13.4004   68.4971 H   0  0  0  0  0  0  0  0  0  0  0  0
  -10.1251   12.9274   68.9008 N   0  0  0  0  0  0  0  0  0  0  0  0
  -10.2769   11.5501   68.8200 C   0  0  0  0  0  0  0  0  0  0  0  0
  -11.3667   10.9781   68.8249 O   0  0  0  0  0  0  0  0  0  0  0  0
   -9.1873   13.3108   68.9800 H   0  0  0  0  0  0  0  0  0  0  0  0
   -8.9694   10.8078   68.5222 C   0  0  1  0  0  0  0  0  0  0  0  0
   -8.8169   10.9160   67.4401 H   0  0  0  0  0  0  0  0  0  0  0  0
   -7.8647   11.4693   69.2031 N   0  0  0  0  0  0  0  0  0  0  0  0
   -6.6649   11.7889   68.5865 C   0  0  0  0  0  0  0  0  0  0  0  0
   -6.3773   11.5130   67.4223 O   0  0  0  0  0  0  0  0  0  0  0  0
   -7.9857   11.6878   70.1873 H   0  0  0  0  0  0  0  0  0  0  0  0
   -5.6403   12.4272   69.5165 C   0  0  1  0  0  0  0  0  0  0  0  0
   -4.8133   12.8021   68.9030 H   0  0  0  0  0  0  0  0  0  0  0  0
   -6.2805   13.5522   70.1853 N   0  0  0  0  0  0  0  0  0  0  0  0
   -6.2000   14.8533   69.7058 C   0  0  0  0  0  0  0  0  0  0  0  0
   -5.4935   15.1965   68.7604 O   0  0  0  0  0  0  0  0  0  0  0  0
   -6.9322   13.3316   70.9309 H   0  0  0  0  0  0  0  0  0  0  0  0
   -7.0369   15.8132   70.4142 C   0  0  0  0  0  0  0  0  0  0  0  0
   -8.0218   15.6059   71.4130 C   0  0  0  0  0  0  0  0  0  0  0  0
   -8.5127   16.8581   71.6817 C   0  0  0  0  0  0  0  0  0  0  0  0
   -8.3506   14.6803   71.8624 H   0  0  0  0  0  0  0  0  0  0  0  0
   -7.8605   17.7676   70.9128 O   0  0  0  0  0  0  0  0  0  0  0  0
   -6.9313   17.1193   70.1202 N   0  0  0  0  0  0  0  0  0  0  0  0
   -9.5561   17.3783   72.5811 C   0  0  0  0  0  0  0  0  0  0  0  0
   -9.1604   18.1845   73.2062 H   0  0  0  0  0  0  0  0  0  0  0  0
  -10.3978   17.7703   72.0020 H   0  0  0  0  0  0  0  0  0  0  0  0
   -9.9340   16.5910   73.2407 H   0  0  0  0  0  0  0  0  0  0  0  0
   -5.1143   11.4181   70.5272 C   0  0  0  0  0  0  0  0  0  0  0  0
   -5.9079   11.0444   71.1838 H   0  0  0  0  0  0  0  0  0  0  0  0
   -4.6702   10.5552   70.0198 H   0  0  0  0  0  0  0  0  0  0  0  0
   -4.3491   11.8740   71.1645 H   0  0  0  0  0  0  0  0  0  0  0  0
   -9.0536    9.2990   68.8514 C   0  0  0  0  0  0  0  0  0  0  0  0
   -9.9641    8.8965   68.3877 H   0  0  0  0  0  0  0  0  0  0  0  0
   -7.8743    8.5266   68.2527 C   0  0  0  0  0  0  0  0  0  0  0  0
   -6.9240    8.8161   68.7128 H   0  0  0  0  0  0  0  0  0  0  0  0
   -8.0028    7.4496   68.4058 H   0  0  0  0  0  0  0  0  0  0  0  0
   -7.8010    8.7017   67.1742 H   0  0  0  0  0  0  0  0  0  0  0  0
   -9.1454    9.0219   70.3558 C   0  0  0  0  0  0  0  0  0  0  0  0
   -8.2341    9.3277   70.8805 H   0  0  0  0  0  0  0  0  0  0  0  0
   -9.9914    9.5489   70.8077 H   0  0  0  0  0  0  0  0  0  0  0  0
   -9.2884    7.9514   70.5391 H   0  0  0  0  0  0  0  0  0  0  0  0
  -10.9116   15.1598   68.3449 C   0  0  0  0  0  0  0  0  0  0  0  0
  -11.3859   16.2381   68.6981 O   0  0  0  0  0  0  0  0  0  0  0  0
  -10.1656   14.9817   67.1883 N   0  0  0  0  0  0  0  0  0  0  0  0
   -9.6999   14.0879   67.0625 H   0  0  0  0  0  0  0  0  0  0  0  0
   -9.7694   16.0714   66.2902 C   0  0  2  0  0  0  0  0  0  0  0  0
  -10.6305   16.7468   66.2272 H   0  0  0  0  0  0  0  0  0  0  0  0
   -9.4531   15.5036   64.8915 C   0  0  0  0  0  0  0  0  0  0  0  0
   -9.2263   16.3312   64.2153 H   0  0  0  0  0  0  0  0  0  0  0  0
   -8.5551   14.8751   64.9376 H   0  0  0  0  0  0  0  0  0  0  0  0
  -10.6107   14.7213   64.2555 C   0  0  0  0  0  0  0  0  0  0  0  0
  -11.5529   15.2540   64.4271 H   0  0  0  0  0  0  0  0  0  0  0  0
  -10.4492   14.6521   63.1735 H   0  0  0  0  0  0  0  0  0  0  0  0
  -10.7289   13.3017   64.7667 C   0  0  0  0  0  0  0  0  0  0  0  0
   -9.8109   12.6577   65.2566 O   0  0  0  0  0  0  0  0  0  0  0  0
  -12.0068   12.8587   64.5779 O   0  0  0  0  0  0  0  0  0  0  0  0
  -12.3287   11.5557   65.0996 C   0  0  0  0  0  0  0  0  0  0  0  0
  -11.9400   11.4639   66.1203 H   0  0  0  0  0  0  0  0  0  0  0  0
  -13.4202   11.4928   65.1747 H   0  0  0  0  0  0  0  0  0  0  0  0
  -11.8310   10.4537   64.2044 C   0  0  0  0  0  0  0  0  0  0  0  0
  -12.2509   10.3768   62.8699 C   0  0  0  0  0  0  0  0  0  0  0  0
  -11.7884    9.3528   62.0420 C   0  0  0  0  0  0  0  0  0  0  0  0
  -12.9404   11.1148   62.4680 H   0  0  0  0  0  0  0  0  0  0  0  0
  -10.9054    8.3965   62.5405 C   0  0  0  0  0  0  0  0  0  0  0  0
  -12.1174    9.3012   61.0082 H   0  0  0  0  0  0  0  0  0  0  0  0
  -10.4852    8.4619   63.8676 C   0  0  0  0  0  0  0  0  0  0  0  0
  -10.5460    7.6002   61.8954 H   0  0  0  0  0  0  0  0  0  0  0  0
  -10.9469    9.4846   64.6973 C   0  0  0  0  0  0  0  0  0  0  0  0
   -9.7979    7.7165   64.2572 H   0  0  0  0  0  0  0  0  0  0  0  0
  -10.6089    9.5213   65.7298 H   0  0  0  0  0  0  0  0  0  0  0  0
   -8.5772   16.8233   66.9203 C   0  0  0  0  0  0  0  0  0  0  0  0
   -8.8243   16.9687   67.9810 H   0  0  0  0  0  0  0  0  0  0  0  0
   -7.6927   16.1730   66.9361 H   0  0  0  0  0  0  0  0  0  0  0  0
   -8.1977   18.2194   66.4012 C   0  0  2  0  0  0  0  0  0  0  0  0
   -9.2361   18.9892   65.5951 C   0  0  0  0  0  0  0  0  0  0  0  0
   -8.4523   20.1918   65.1034 C   0  0  0  0  0  0  0  0  0  0  0  0
   -9.6023   18.4204   64.7359 H   0  0  0  0  0  0  0  0  0  0  0  0
  -10.0983   19.2880   66.1989 H   0  0  0  0  0  0  0  0  0  0  0  0
   -7.0685   19.6610   64.8658 N   0  0  0  0  0  0  0  0  0  0  0  0
   -8.8297   20.6138   64.1687 H   0  0  0  0  0  0  0  0  0  0  0  0
   -8.3666   20.9686   65.8697 H   0  0  0  0  0  0  0  0  0  0  0  0
   -6.9378   18.3098   65.5287 C   0  0  2  0  0  0  0  0  0  0  0  0
   -6.8866   19.5648   63.8579 H   0  0  0  0  0  0  0  0  0  0  0  0
   -6.3640   20.3177   65.2289 H   0  0  0  0  0  0  0  0  0  0  0  0
   -6.0356   18.3473   66.1479 H   0  0  0  0  0  0  0  0  0  0  0  0
   -7.9840   18.8261   67.2962 H   0  0  0  0  0  0  0  0  0  0  0  0
   -6.8046   17.2200   64.6325 O   0  0  0  0  0  0  0  0  0  0  0  0
   -7.4026   17.3761   63.8828 H   0  0  0  0  0  0  0  0  0  0  0  0
  -11.6091   14.0242   70.5288 C   0  0  0  0  0  0  0  0  0  0  0  0
  -11.4524   13.0803   71.0686 H   0  0  0  0  0  0  0  0  0  0  0  0
  -10.9081   14.7420   70.9723 H   0  0  0  0  0  0  0  0  0  0  0  0
  -13.0532   14.4991   70.7924 C   0  0  0  0  0  0  0  0  0  0  0  0
  -13.2696   15.3824   70.1815 H   0  0  0  0  0  0  0  0  0  0  0  0
  -14.0846   13.4199   70.4543 C   0  0  0  0  0  0  0  0  0  0  0  0
  -14.0845   13.1825   69.3868 H   0  0  0  0  0  0  0  0  0  0  0  0
  -13.8884   12.4956   71.0082 H   0  0  0  0  0  0  0  0  0  0  0  0
  -15.0951   13.7570   70.7100 H   0  0  0  0  0  0  0  0  0  0  0  0
  -13.2020   14.9047   72.2617 C   0  0  0  0  0  0  0  0  0  0  0  0
  -14.2160   15.2647   72.4658 H   0  0  0  0  0  0  0  0  0  0  0  0
  -13.0005   14.0607   72.9301 H   0  0  0  0  0  0  0  0  0  0  0  0
  -12.5065   15.7119   72.5146 H   0  0  0  0  0  0  0  0  0  0  0  0
 66 63  1  0
 63 65  1  0
 63 62  2  0
 68 65  1  0
 64 62  1  0
 65 67  2  0
 62 61  1  0
 67 70  1  0
 67 69  1  0
 61 69  2  0
 61 58  1  0
 60 58  1  0
 69 71  1  0
 57 58  1  0
 57 55  1  0
 58 59  1  0
 54 52  1  0
 50 49  1  0
 84 80  1  0
 55 52  1  0
 55 56  2  0
 51 49  1  0
 52 49  1  0
 52 53  1  0
 89 88  1  0
 49 47  1  0
 88 83  1  0
 81 77  1  0
 80 85  1  0
 80 77  1  0
 80 83  1  0
 74 72  1  0
 77 82  1  0
 77 76  1  0
 83 86  1  1
 83 75  1  0
 47 48  1  6
 47 72  1  0
 47 45  1  0
 78 76  1  0
 72 75  1  0
 72 73  1  0
 24 23  1  0
 24 19  2  0
 17 16  2  0
 76 75  1  0
 76 79  1  0
 11 10  2  0
 46 45  1  0
 75 87  1  1
 23 21  1  0
 45 43  1  0
 38 35  1  0
  7  8  1  6
 16 19  1  0
 16 15  1  0
 19 20  1  0
 13 14  1  6
 10 13  1  0
 10  9  1  0
 43 44  2  0
 43  1  1  0
 35 36  1  0
 35 37  1  0
 35 33  1  0
 21 20  2  0
 21 25  1  0
  7  4  1  0
  7  9  1  0
  7 33  1  0
 13 15  1  0
 13 29  1  0
 27 25  1  0
 15 18  1  0
  5  4  2  0
  4  3  1  0
 20 22  1  0
  9 12  1  0
  3  6  1  0
  3  1  1  0
  1  2  1  6
 33 34  1  0
 33 39  1  0
 25 28  1  0
 25 26  1  0
  1 90  1  0
 31 29  1  0
 29 30  1  0
 29 32  1  0
 39 40  1  0
 39 42  1  0
 39 41  1  0
 92 90  1  0
 94 93  1  0
 90 91  1  0
 90 93  1  0
 96 95  1  0
 93 95  1  0
 93 99  1  0
 98 95  1  0
 95 97  1  0
102 99  1  0
100 99  1  0
 99101  1  0
M  CHG  1  80   1
M  END
>  <_TriposChargeType>  (1) 
GASTEIGER

>  <energy_abs>  (1) 
93.61710336329429

>  <SMILE>  (1) 
[H]O[C@]1([H])[C@]([H])(C([H])([H])[C@]([H])(N([H])C(=O)[C@@]([H])(N([H])C(=O)[C@@]([H])(N([H])C(=O)[C@@]([H])(N([H])C(=O)c2noc(C([H])([H])[H])c2[H])C([H])([H])[H])C([H])(C([H])([H])[H])C([H])([H])[H])C([H])([H])C([H])(C([H])([H])[H])C([H])([H])[H])C([H])([H])C([H])([H])C(=O)OC([H])([H])c2c([H])c([H])c([H])c([H])c2[H])C([H])([H])C([H])([H])[N+]1([H])[H]

$$$$
