@<TRIPOS>MOLECULE
crystal_redock_e8_er3_1.pdbqt
 102 104 0 0 0
SMALL
GASTEIGER

@<TRIPOS>ATOM
      1 C1         -7.7260    9.1360   67.3680 C.3     1  UNL1        0.0890
      2 H1         -7.5500    8.5080   66.4940 H       1  UNL1        0.0870
      3 N1         -8.7990   10.0620   67.0340 N.am    1  UNL1       -0.3460
      4 C2         -9.5390    9.9300   65.7280 C.2     1  UNL1        0.2410
      5 O1         -9.2520    9.0730   64.9590 O.2     1  UNL1       -0.2710
      6 H2         -9.0260   10.7850   67.7010 H       1  UNL1        0.1630
      7 C3        -10.6510   10.8920   65.4010 C.3     1  UNL1        0.0920
      8 H3        -11.5770   10.5360   65.8510 H       1  UNL1        0.0880
      9 N2        -10.3550   12.2000   65.9950 N.am    1  UNL1       -0.3460
     10 C4        -11.2130   12.7340   67.0250 C.2     1  UNL1        0.2400
     11 O2        -12.1450   12.1250   67.3870 O.2     1  UNL1       -0.2710
     12 H4         -9.5560   12.7370   65.6920 H       1  UNL1        0.1630
     13 C5        -10.8950   14.1270   67.6510 C.3     1  UNL1        0.0860
     14 H5        -11.3700   14.9480   67.1150 H       1  UNL1        0.0860
     15 N3        -11.4120   14.1630   69.0090 N.am    1  UNL1       -0.3430
     16 C6        -11.9730   15.4090   69.5350 C.2     1  UNL1        0.2730
     17 O3        -12.0010   16.3780   68.8580 O.2     1  UNL1       -0.2660
     18 H6        -11.3820   13.3310   69.5810 H       1  UNL1        0.1630
     19 C7        -12.5240   15.4610   70.9680 C.ar    1  UNL1        0.1540
     20 C8        -11.7750   15.6080   72.1780 C.ar    1  UNL1       -0.0170
     21 C9        -12.7420   15.5970   73.2080 C.ar    1  UNL1        0.0770
     22 H7        -10.6950   15.7070   72.2920 H       1  UNL1        0.0910
     23 O4        -13.9060   15.4610   72.6450 O.2     1  UNL1       -0.2180
     24 N4        -13.8050   15.3790   71.3380 N.ar    1  UNL1       -0.1230
     25 C10       -12.4700   15.7230   74.7010 C.3     1  UNL1       -0.0290
     26 H8        -12.4100   14.7290   75.1450 H       1  UNL1        0.0360
     27 H9        -11.5270   16.2470   74.8560 H       1  UNL1        0.0360
     28 H10       -13.2780   16.2830   75.1720 H       1  UNL1        0.0360
     29 C11        -9.4040   14.3490   67.6600 C.3     1  UNL1       -0.0490
     30 H11        -9.1730   15.2470   68.2330 H       1  UNL1        0.0300
     31 H12        -8.9110   13.4900   68.1160 H       1  UNL1        0.0300
     32 H13        -9.0490   14.4710   66.6370 H       1  UNL1        0.0300
     33 C12       -10.7700   11.0430   63.8560 C.3     1  UNL1       -0.0330
     34 H14       -10.8320   10.0400   63.4320 H       1  UNL1        0.0420
     35 C13       -12.0740   11.8010   63.4580 C.3     1  UNL1       -0.0710
     36 H15       -12.8610   11.0800   63.2360 H       1  UNL1        0.0280
     37 H16       -12.3900   12.4390   64.2830 H       1  UNL1        0.0280
     38 H17       -11.8830   12.4130   62.5770 H       1  UNL1        0.0280
     39 C14        -9.5050   11.7410   63.2630 C.3     1  UNL1       -0.0710
     40 H18        -9.4740   12.7790   63.5930 H       1  UNL1        0.0280
     41 H19        -8.6090   11.2240   63.6070 H       1  UNL1        0.0280
     42 H20        -9.5480   11.7070   62.1740 H       1  UNL1        0.0280
     43 C15        -8.1560    8.3060   68.6110 C.2     1  UNL1        0.2400
     44 O5         -7.3530    7.6490   69.1900 O.2     1  UNL1       -0.2710
     45 N5         -9.5690    8.3370   69.0850 N.am    1  UNL1       -0.3550
     46 H21       -10.2600    8.8950   68.6040 H       1  UNL1        0.1620
     47 C16        -9.9620    7.5430   70.2690 C.3     1  UNL1        0.0130
     48 H22        -9.0700    7.0480   70.6520 H       1  UNL1        0.0720
     49 C17       -10.9900    6.5120   69.8610 C.3     1  UNL1       -0.0380
     50 H23       -10.7190    5.5990   70.3920 H       1  UNL1        0.0360
     51 H24       -11.9600    6.9780   70.0370 H       1  UNL1        0.0360
     52 C18       -10.9340    6.1740   68.3550 C.3     1  UNL1        0.0180
     53 H25       -11.9220    5.7890   68.1020 H       1  UNL1        0.0480
     54 H26       -10.5570    7.0720   67.8650 H       1  UNL1        0.0480
     55 C19        -9.9310    5.0400   68.0040 C.2     1  UNL1        0.2590
     56 O6         -9.8300    4.0860   68.7050 O.2     1  UNL1       -0.2650
     57 O7         -9.1220    5.1610   66.8410 O.3     1  UNL1       -0.3170
     58 C20        -7.7480    4.8200   67.0480 C.3     1  UNL1        0.0520
     59 H27        -7.4080    5.4520   67.8680 H       1  UNL1        0.0820
     60 H28        -7.7260    3.7350   67.1500 H       1  UNL1        0.0820
     61 C21        -6.9600    5.2080   65.7690 C.ar    1  UNL1       -0.0340
     62 C22        -7.5990    5.8830   64.7340 C.ar    1  UNL1       -0.0750
     63 C23        -6.8910    6.2310   63.5850 C.ar    1  UNL1       -0.0820
     64 H29        -8.6550    6.1390   64.8240 H       1  UNL1        0.0840
     65 C24        -5.5380    5.9000   63.4720 C.ar    1  UNL1       -0.0830
     66 H30        -7.3950    6.7620   62.7770 H       1  UNL1        0.0830
     67 C25        -4.9050    5.2240   64.5060 C.ar    1  UNL1       -0.0820
     68 H31        -4.9770    6.1690   62.5770 H       1  UNL1        0.0830
     69 C26        -5.6080    4.8750   65.6570 C.ar    1  UNL1       -0.0750
     70 H32        -3.8500    4.9650   64.4130 H       1  UNL1        0.0830
     71 H33        -5.1040    4.3450   66.4650 H       1  UNL1        0.0840
     72 C27       -10.5570    8.4630   71.3330 C.3     1  UNL1       -0.0390
     73 H34       -10.7520    7.8220   72.1940 H       1  UNL1        0.0360
     74 H35        -9.8590    9.2950   71.4210 H       1  UNL1        0.0360
     75 C28       -11.9640    9.0720   70.8700 C.3     1  UNL1       -0.0010
     76 C29       -11.8030   10.6790   70.5580 C.3     1  UNL1       -0.0350
     77 C30       -12.7610   11.3540   71.2370 C.3     1  UNL1        0.0850
     78 H36       -10.8750   11.0520   70.9900 H       1  UNL1        0.0360
     79 H37       -12.0390   10.8830   69.5140 H       1  UNL1        0.0360
     80 N6        -13.3540   10.3910   72.2370 N.4     1  UNL1       -0.0490
     81 H38       -12.2370   12.1450   71.7730 H       1  UNL1        0.0750
     82 H39       -13.5190   11.6070   70.4960 H       1  UNL1        0.0750
     83 C31       -12.8630    8.9210   71.7840 C.3     1  UNL1        0.1930
     84 H40       -12.9340   10.6100   73.1290 H       1  UNL1        0.2800
     85 H41       -14.3570   10.4430   72.1250 H       1  UNL1        0.2800
     86 H42       -13.5480    8.2400   71.2780 H       1  UNL1        0.1290
     87 H43       -12.4460    8.4650   70.1030 H       1  UNL1        0.0460
     88 O8        -12.3690    8.1970   72.9120 O.3     1  UNL1       -0.3690
     89 H44       -11.4320    8.0250   72.7950 H       1  UNL1        0.2120
     90 C32        -6.4700    9.9290   67.6930 C.3     1  UNL1       -0.0350
     91 H45        -6.7740   10.9760   67.6650 H       1  UNL1        0.0370
     92 H46        -6.0870    9.4980   68.6180 H       1  UNL1        0.0370
     93 C33        -5.3360    9.7710   66.6300 C.3     1  UNL1       -0.0590
     94 H47        -4.4850   10.3640   66.9640 H       1  UNL1        0.0380
     95 C34        -4.8610    8.2890   66.4920 C.3     1  UNL1       -0.0730
     96 H48        -3.8650    8.2670   66.0490 H       1  UNL1        0.0280
     97 H49        -4.8300    7.8250   67.4780 H       1  UNL1        0.0280
     98 H50        -5.5550    7.7430   65.8540 H       1  UNL1        0.0280
     99 C35        -5.7760   10.3300   65.2740 C.3     1  UNL1       -0.0730
    100 H51        -6.4210    9.6060   64.7740 H       1  UNL1        0.0280
    101 H52        -6.3230   11.2610   65.4260 H       1  UNL1        0.0280
    102 H53        -4.8980   10.5210   64.6580 H       1  UNL1        0.0280
@<TRIPOS>BOND
     1    42    39    1
     2    38    35    1
     3    68    65    1
     4    66    63    1
     5    36    35    1
     6    39    40    1
     7    39    41    1
     8    39    33    1
     9    34    33    1
    10    35    33    1
    11    35    37    1
    12    65    63   ar
    13    65    67   ar
    14    63    62   ar
    15    33     7    1
    16    70    67    1
    17    67    69   ar
    18   102    99    1
    19    62    64    1
    20    62    61   ar
    21   100    99    1
    22     5     4    2
    23    99   101    1
    24    99    93    1
    25     7     4    1
    26     7     8    1
    27     7     9    1
    28    69    61   ar
    29    69    71    1
    30    12     9    1
    31     4     3   am
    32    61    58    1
    33    98    95    1
    34     9    10   am
    35    96    95    1
    36    95    93    1
    37    95    97    1
    38     2     1    1
    39    93    94    1
    40    93    90    1
    41    32    29    1
    42    57    58    1
    43    57    55    1
    44    10    11    2
    45    10    13    1
    46     3     1    1
    47     3     6    1
    48    58    60    1
    49    58    59    1
    50    14    13    1
    51     1    90    1
    52     1    43    1
    53    13    29    1
    54    13    15    1
    55    29    31    1
    56    29    30    1
    57    91    90    1
    58    90    92    1
    59    54    52    1
    60    55    52    1
    61    55    56    2
    62    53    52    1
    63    52    49    1
    64    46    45    1
    65    43    45   am
    66    43    44    2
    67    17    16    2
    68    15    16   am
    69    15    18    1
    70    45    47    1
    71    79    76    1
    72    16    19    1
    73    49    51    1
    74    49    47    1
    75    49    50    1
    76    87    75    1
    77    47    48    1
    78    47    72    1
    79    82    77    1
    80    76    75    1
    81    76    78    1
    82    76    77    1
    83    75    72    1
    84    75    83    1
    85    19    24   ar
    86    19    20   ar
    87    77    81    1
    88    77    80    1
    89    86    83    1
    90    72    74    1
    91    72    73    1
    92    24    23   ar
    93    83    80    1
    94    83    88    1
    95    85    80    1
    96    20    22    1
    97    20    21   ar
    98    80    84    1
    99    23    21   ar
   100    89    88    1
   101    21    25    1
   102    25    27    1
   103    25    26    1
   104    25    28    1
@<TRIPOS>MOLECULE
crystal_redock_e8_er3_1.pdbqt
 102 104 0 0 0
SMALL
GASTEIGER

@<TRIPOS>ATOM
      1 C         -11.7570   10.5090   70.3560 C.3     1  UNL1        0.0890
      2 H         -10.9650   10.1670   71.0240 H       1  UNL1        0.0870
      3 N         -11.7640   11.9640   70.3940 N.am    1  UNL1       -0.3460
      4 C         -12.6120   12.6950   71.4050 C.2     1  UNL1        0.2410
      5 O         -13.2820   12.0910   72.1750 O.2     1  UNL1       -0.2710
      6 H         -11.1890   12.4590   69.7280 H       1  UNL1        0.1630
      7 C         -12.6030   14.2010   71.4330 C.3     1  UNL1        0.0920
      8 H         -11.6550   14.5460   71.8480 H       1  UNL1        0.0880
      9 N         -12.6900   14.7170   70.0640 N.am    1  UNL1       -0.3460
     10 C         -11.4900   15.0890   69.3560 C.2     1  UNL1        0.2400
     11 O         -10.4460   14.9810   69.8740 O.2     1  UNL1       -0.2710
     12 H         -13.5840   14.8170   69.6050 H       1  UNL1        0.1630
     13 C         -11.5900   15.6400   67.9000 C.3     1  UNL1        0.0860
     14 H         -12.3160   16.4470   67.8030 H       1  UNL1        0.0860
     15 N         -10.3010   16.1930   67.5150 N.am    1  UNL1       -0.3430
     16 C         -10.1190   17.6450   67.4850 C.2     1  UNL1        0.2730
     17 O         -11.0160   18.3610   67.7680 O.2     1  UNL1       -0.2660
     18 H          -9.5410   15.5730   67.2720 H       1  UNL1        0.1630
     19 C          -8.7620   18.2430   67.0820 C.ar    1  UNL1        0.1540
     20 C          -7.5490   18.2250   67.8420 C.ar    1  UNL1       -0.0170
     21 C          -6.6050   18.8990   67.0350 C.ar    1  UNL1        0.0770
     22 H          -7.3810   17.7900   68.8270 H       1  UNL1        0.0910
     23 O          -7.2140   19.2570   65.9430 O.2     1  UNL1       -0.2180
     24 N          -8.4740   18.8860   65.9470 N.ar    1  UNL1       -0.1230
     25 C          -5.1450   19.1580   67.3820 C.3     1  UNL1       -0.0290
     26 H          -4.6750   18.2260   67.6970 H       1  UNL1        0.0360
     27 H          -4.6270   19.5470   66.5050 H       1  UNL1        0.0360
     28 H          -5.0870   19.8860   68.1910 H       1  UNL1        0.0360
     29 C         -11.9740   14.5240   66.9620 C.3     1  UNL1       -0.0490
     30 H         -11.0980   14.2070   66.3960 H       1  UNL1        0.0300
     31 H         -12.3580   13.6820   67.5380 H       1  UNL1        0.0300
     32 H         -12.7420   14.8760   66.2740 H       1  UNL1        0.0300
     33 C         -13.8220   14.7110   72.2560 C.3     1  UNL1       -0.0330
     34 H         -14.1590   13.8900   72.8880 H       1  UNL1        0.0420
     35 C         -13.4200   15.8910   73.1950 C.3     1  UNL1       -0.0710
     36 H         -12.3390   15.8940   73.3320 H       1  UNL1        0.0280
     37 H         -13.7320   16.8340   72.7460 H       1  UNL1        0.0280
     38 H         -13.9090   15.7690   74.1610 H       1  UNL1        0.0280
     39 C         -15.0030   15.1130   71.3140 C.3     1  UNL1       -0.0710
     40 H         -15.7090   14.2870   71.2450 H       1  UNL1        0.0280
     41 H         -15.5080   15.9900   71.7200 H       1  UNL1        0.0280
     42 H         -14.6140   15.3430   70.3230 H       1  UNL1        0.0280
     43 C         -11.5250   10.0530   68.8870 C.2     1  UNL1        0.2400
     44 O         -11.8300   10.7700   67.9900 O.2     1  UNL1       -0.2710
     45 N         -10.9120    8.7250   68.5990 N.am    1  UNL1       -0.3550
     46 H         -10.6440    8.1090   69.3530 H       1  UNL1        0.1620
     47 C         -10.6960    8.3060   67.1970 C.3     1  UNL1        0.0130
     48 H         -11.3730    8.8830   66.5670 H       1  UNL1        0.0720
     49 C         -10.9990    6.8310   67.0640 C.3     1  UNL1       -0.0380
     50 H         -12.0280    6.7720   66.7090 H       1  UNL1        0.0360
     51 H         -10.1900    6.4180   66.4610 H       1  UNL1        0.0360
     52 C         -10.9600    6.0860   68.4160 C.3     1  UNL1        0.0180
     53 H         -10.6430    6.8260   69.1520 H       1  UNL1        0.0480
     54 H         -11.9310    5.6010   68.5140 H       1  UNL1        0.0480
     55 C          -9.9040    4.9470   68.4730 C.2     1  UNL1        0.2590
     56 O          -9.5820    4.4750   69.5150 O.2     1  UNL1       -0.2650
     57 O          -9.3160    4.4810   67.2650 O.3     1  UNL1       -0.3170
     58 C          -7.9450    4.8560   67.1020 C.3     1  UNL1        0.0520
     59 H          -7.8190    5.7710   67.6810 H       1  UNL1        0.0820
     60 H          -7.3650    3.9690   67.3520 H       1  UNL1        0.0820
     61 C          -7.7150    5.1870   65.6030 C.ar    1  UNL1       -0.0340
     62 C          -8.7460    5.0170   64.6850 C.ar    1  UNL1       -0.0750
     63 C          -8.5390    5.3150   63.3390 C.ar    1  UNL1       -0.0820
     64 H          -9.7170    4.6520   65.0200 H       1  UNL1        0.0840
     65 C          -7.2930    5.7810   62.9110 C.ar    1  UNL1       -0.0830
     66 H          -9.3500    5.1830   62.6230 H       1  UNL1        0.0830
     67 C          -6.2650    5.9460   63.8310 C.ar    1  UNL1       -0.0820
     68 H          -7.1220    6.0170   61.8610 H       1  UNL1        0.0830
     69 C          -6.4690    5.6520   65.1770 C.ar    1  UNL1       -0.0750
     70 H          -5.2940    6.3080   63.4930 H       1  UNL1        0.0830
     71 H          -5.6570    5.7850   65.8930 H       1  UNL1        0.0840
     72 C          -9.2460    8.5670   66.7980 C.3     1  UNL1       -0.0390
     73 H          -8.7740    8.9970   67.6820 H       1  UNL1        0.0360
     74 H          -8.8820    7.6230   66.3920 H       1  UNL1        0.0360
     75 C          -9.1400    9.6570   65.6280 C.3     1  UNL1       -0.0010
     76 C          -8.5100    8.9670   64.2750 C.3     1  UNL1       -0.0350
     77 C          -7.4760    9.7250   63.8390 C.3     1  UNL1        0.0850
     78 H          -8.0410    8.0150   64.5240 H       1  UNL1        0.0360
     79 H          -9.2290    9.0220   63.4570 H       1  UNL1        0.0360
     80 N          -7.1340   10.6870   64.9510 N.4     1  UNL1       -0.0490
     81 H          -6.6450    9.0330   63.7010 H       1  UNL1        0.0750
     82 H          -7.8640   10.2870   62.9910 H       1  UNL1        0.0750
     83 C          -8.3820   10.6430   65.9750 C.3     1  UNL1        0.1930
     84 H          -6.3220   10.3090   65.4180 H       1  UNL1        0.2800
     85 H          -7.0940   11.6060   64.5330 H       1  UNL1        0.2800
     86 H          -9.1100   11.4540   65.9960 H       1  UNL1        0.1290
     87 H         -10.0610   10.2270   65.5110 H       1  UNL1        0.0460
     88 O          -7.9130   10.5160   67.3180 O.3     1  UNL1       -0.3690
     89 H          -6.9570   10.5990   67.3330 H       1  UNL1        0.2120
     90 C         -13.1010    9.9930   70.8450 C.3     1  UNL1       -0.0350
     91 H         -13.5720   10.8410   71.3440 H       1  UNL1        0.0370
     92 H         -13.5740    9.5450   69.9710 H       1  UNL1        0.0370
     93 C         -12.9860    8.8600   71.9140 C.3     1  UNL1       -0.0590
     94 H         -13.3650    9.2560   72.8570 H       1  UNL1        0.0380
     95 C         -13.8460    7.6100   71.5420 C.3     1  UNL1       -0.0730
     96 H         -14.8690    7.7580   71.8850 H       1  UNL1        0.0280
     97 H         -13.8400    7.4740   70.4600 H       1  UNL1        0.0280
     98 H         -13.4260    6.7250   72.0210 H       1  UNL1        0.0280
     99 C         -11.5240    8.4690   72.1410 C.3     1  UNL1       -0.0730
    100 H         -11.4050    7.3970   71.9760 H       1  UNL1        0.0280
    101 H         -10.8890    9.0160   71.4440 H       1  UNL1        0.0280
    102 H         -11.2360    8.7140   73.1630 H       1  UNL1        0.0280
@<TRIPOS>BOND
     1    68    65    1
     2    66    63    1
     3    65    63   ar
     4    65    67   ar
     5    82    77    1
     6    63    62   ar
     7    79    76    1
     8    70    67    1
     9    81    77    1
    10    67    69   ar
    11    77    76    1
    12    77    80    1
    13    76    78    1
    14    76    75    1
    15    85    80    1
    16    62    64    1
    17    62    61   ar
    18    80    84    1
    19    80    83    1
    20    69    61   ar
    21    69    71    1
    22    87    75    1
    23    61    58    1
    24    75    83    1
    25    75    72    1
    26    23    24   ar
    27    23    21   ar
    28    24    19   ar
    29    83    86    1
    30    83    88    1
    31    32    29    1
    32    74    72    1
    33    30    29    1
    34    51    49    1
    35    27    25    1
    36    48    47    1
    37    50    49    1
    38    72    47    1
    39    72    73    1
    40    29    31    1
    41    29    13    1
    42    21    25    1
    43    21    20   ar
    44    49    47    1
    45    49    52    1
    46    19    16    1
    47    19    20   ar
    48    58    57    1
    49    58    60    1
    50    58    59    1
    51    47    45    1
    52    57    55    1
    53    18    15    1
    54    88    89    1
    55    25    26    1
    56    25    28    1
    57    16    15   am
    58    16    17    2
    59    15    13    1
    60    14    13    1
    61    20    22    1
    62    13    10    1
    63    44    43    2
    64    52    55    1
    65    52    54    1
    66    52    53    1
    67    55    56    2
    68    45    43   am
    69    45    46    1
    70    43     1    1
    71    10    11    2
    72    10     9   am
    73    12     9    1
    74     6     3    1
    75    92    90    1
    76     9     7    1
    77    42    39    1
    78     1     3    1
    79     1    90    1
    80     1     2    1
    81     3     4   am
    82    97    95    1
    83    90    91    1
    84    90    93    1
    85    40    39    1
    86    39    41    1
    87    39    33    1
    88     4     7    1
    89     4     5    2
    90     7     8    1
    91     7    33    1
    92   101    99    1
    93    95    96    1
    94    95    93    1
    95    95    98    1
    96    93    99    1
    97    93    94    1
    98   100    99    1
    99    99   102    1
   100    33    34    1
   101    33    35    1
   102    37    35    1
   103    35    36    1
   104    35    38    1
@<TRIPOS>MOLECULE
crystal_redock_e8_er3_1.pdbqt
 102 104 0 0 0
SMALL
GASTEIGER

@<TRIPOS>ATOM
      1 C         -10.2370   10.2310   68.8540 C.3     1  UNL1        0.0890
      2 H          -9.5920   10.2240   69.7320 H       1  UNL1        0.0870
      3 N         -10.8920    8.9330   68.7800 N.am    1  UNL1       -0.3460
      4 C         -10.2230    7.7090   69.3500 C.2     1  UNL1        0.2410
      5 O          -9.1550    7.7920   69.8620 O.2     1  UNL1       -0.2710
      6 H         -11.8000    8.8830   68.3390 H       1  UNL1        0.1630
      7 C         -10.9170    6.3750   69.2700 C.3     1  UNL1        0.0920
      8 H         -11.9200    6.5160   68.8660 H       1  UNL1        0.0880
      9 N         -10.1940    5.5020   68.3410 N.am    1  UNL1       -0.3460
     10 C         -10.3940    5.6400   66.9190 C.2     1  UNL1        0.2400
     11 O         -11.1340    6.4470   66.5060 O.2     1  UNL1       -0.2710
     12 H          -9.5540    4.7990   68.6820 H       1  UNL1        0.1630
     13 C          -9.6240    4.7060   65.9350 C.3     1  UNL1        0.0860
     14 H         -10.1990    4.4720   65.0390 H       1  UNL1        0.0860
     15 N          -8.4170    5.3820   65.4910 N.am    1  UNL1       -0.3430
     16 C          -8.1100    5.4440   64.0600 C.2     1  UNL1        0.2730
     17 O          -8.8390    4.9440   63.2750 O.2     1  UNL1       -0.2660
     18 H          -7.7980    5.8040   66.1680 H       1  UNL1        0.1630
     19 C          -6.8370    6.1570   63.5760 C.ar    1  UNL1        0.1540
     20 C          -6.5920    7.5670   63.5520 C.ar    1  UNL1       -0.0170
     21 C          -5.2880    7.7000   63.0240 C.ar    1  UNL1        0.0770
     22 H          -7.2580    8.3700   63.8690 H       1  UNL1        0.0910
     23 O          -4.8460    6.5010   62.7780 O.2     1  UNL1       -0.2180
     24 N          -5.7320    5.5840   63.0920 N.ar    1  UNL1       -0.1230
     25 C          -4.5410    9.0050   62.7870 C.3     1  UNL1       -0.0290
     26 H          -5.2000    9.8460   63.0010 H       1  UNL1        0.0360
     27 H          -3.6710    9.0490   63.4430 H       1  UNL1        0.0360
     28 H          -4.2140    9.0540   61.7480 H       1  UNL1        0.0360
     29 C          -9.2680    3.4190   66.6340 C.3     1  UNL1       -0.0490
     30 H          -9.3520    3.5560   67.7130 H       1  UNL1        0.0300
     31 H          -9.9490    2.6300   66.3140 H       1  UNL1        0.0300
     32 H          -8.2450    3.1400   66.3830 H       1  UNL1        0.0300
     33 C         -10.9430    5.7180   70.6820 C.3     1  UNL1       -0.0330
     34 H         -11.7330    4.9670   70.6810 H       1  UNL1        0.0420
     35 C          -9.6000    4.9840   70.9910 C.3     1  UNL1       -0.0710
     36 H          -9.5380    4.0740   70.3950 H       1  UNL1        0.0280
     37 H          -8.7640    5.6380   70.7440 H       1  UNL1        0.0280
     38 H          -9.5620    4.7290   72.0500 H       1  UNL1        0.0280
     39 C         -11.2790    6.7730   71.7840 C.3     1  UNL1       -0.0710
     40 H         -12.2510    6.5460   72.2190 H       1  UNL1        0.0280
     41 H         -10.5160    6.7410   72.5620 H       1  UNL1        0.0280
     42 H         -11.3020    7.7670   71.3390 H       1  UNL1        0.0280
     43 C         -11.3310   11.3340   68.9370 C.2     1  UNL1        0.2400
     44 O         -12.4290   11.1090   68.5400 O.2     1  UNL1       -0.2710
     45 N         -11.0130   12.6680   69.5210 N.am    1  UNL1       -0.3550
     46 H         -10.0850   12.8690   69.8660 H       1  UNL1        0.1620
     47 C         -12.0640   13.7050   69.5950 C.3     1  UNL1        0.0130
     48 H         -12.8690   13.4160   68.9190 H       1  UNL1        0.0720
     49 C         -11.4850   15.0350   69.1690 C.3     1  UNL1       -0.0380
     50 H         -12.2600   15.5180   68.5740 H       1  UNL1        0.0360
     51 H         -11.1270   15.5070   70.0850 H       1  UNL1        0.0360
     52 C         -10.2560   14.8860   68.2460 C.3     1  UNL1        0.0180
     53 H          -9.4910   15.5410   68.6640 H       1  UNL1        0.0480
     54 H         -10.0720   13.8140   68.1710 H       1  UNL1        0.0480
     55 C         -10.4990   15.3820   66.7940 C.2     1  UNL1        0.2590
     56 O         -11.3180   14.8620   66.1080 O.2     1  UNL1       -0.2650
     57 O          -9.7220   16.4600   66.2870 O.3     1  UNL1       -0.3170
     58 C         -10.1920   17.7530   66.6810 C.3     1  UNL1        0.0520
     59 H         -10.5170   18.2410   65.7620 H       1  UNL1        0.0820
     60 H         -10.9040   17.5750   67.4860 H       1  UNL1        0.0820
     61 C          -8.9880   18.5440   67.2580 C.ar    1  UNL1       -0.0340
     62 C          -8.2440   18.0140   68.3070 C.ar    1  UNL1       -0.0750
     63 C          -7.1630   18.7260   68.8260 C.ar    1  UNL1       -0.0820
     64 H          -8.5070   17.0420   68.7230 H       1  UNL1        0.0840
     65 C          -6.8280   19.9730   68.2920 C.ar    1  UNL1       -0.0830
     66 H          -6.5800   18.3070   69.6460 H       1  UNL1        0.0830
     67 C          -7.5750   20.5000   67.2480 C.ar    1  UNL1       -0.0820
     68 H          -5.9840   20.5360   68.6910 H       1  UNL1        0.0830
     69 C          -8.6550   19.7910   66.7250 C.ar    1  UNL1       -0.0750
     70 H          -7.3130   21.4740   66.8350 H       1  UNL1        0.0830
     71 H          -9.2370   20.2110   65.9030 H       1  UNL1        0.0840
     72 C         -12.5860   13.8110   71.0260 C.3     1  UNL1       -0.0390
     73 H         -13.5610   13.3230   71.0170 H       1  UNL1        0.0360
     74 H         -11.7870   13.4200   71.6560 H       1  UNL1        0.0360
     75 C         -12.8250   15.3350   71.4590 C.3     1  UNL1       -0.0010
     76 C         -11.7720   15.7500   72.6520 C.3     1  UNL1       -0.0350
     77 C         -12.4680   16.2990   73.6770 C.3     1  UNL1        0.0850
     78 H         -11.3340   14.8550   73.0920 H       1  UNL1        0.0360
     79 H         -11.1290   16.5640   72.3160 H       1  UNL1        0.0360
     80 N         -13.9270   15.9970   73.4310 N.4     1  UNL1       -0.0490
     81 H         -12.1410   15.7650   74.5700 H       1  UNL1        0.0750
     82 H         -12.3090   17.3730   73.5940 H       1  UNL1        0.0750
     83 C         -14.0280   15.5140   71.8940 C.3     1  UNL1        0.1930
     84 H         -14.1630   15.2180   74.0290 H       1  UNL1        0.2800
     85 H         -14.4200   16.8740   73.5250 H       1  UNL1        0.2800
     86 H         -14.4180   16.1840   71.1270 H       1  UNL1        0.1290
     87 H         -12.8900   16.0030   70.6000 H       1  UNL1        0.0460
     88 O         -14.8170   14.3270   71.8010 O.3     1  UNL1       -0.3690
     89 H         -14.8340   13.8870   72.6540 H       1  UNL1        0.2120
     90 C          -9.4000   10.4360   67.6020 C.3     1  UNL1       -0.0350
     91 H          -9.2480   11.5130   67.5280 H       1  UNL1        0.0370
     92 H          -8.5430    9.7720   67.7160 H       1  UNL1        0.0370
     93 C         -10.1220   10.0010   66.2860 C.3     1  UNL1       -0.0590
     94 H         -11.0160    9.4460   66.5680 H       1  UNL1        0.0380
     95 C         -10.5730   11.2270   65.4290 C.3     1  UNL1       -0.0730
     96 H         -10.6180   12.1150   66.0600 H       1  UNL1        0.0280
     97 H          -9.8560   11.3900   64.6240 H       1  UNL1        0.0280
     98 H         -11.5580   11.0320   65.0050 H       1  UNL1        0.0280
     99 C          -9.2400    9.0570   65.4650 C.3     1  UNL1       -0.0730
    100 H          -9.6940    8.8950   64.4870 H       1  UNL1        0.0280
    101 H          -8.2520    9.5010   65.3390 H       1  UNL1        0.0280
    102 H          -9.1460    8.1040   65.9850 H       1  UNL1        0.0280
@<TRIPOS>BOND
     1    28    25    1
     2    23    21   ar
     3    23    24   ar
     4    25    26    1
     5    25    21    1
     6    25    27    1
     7    21    20   ar
     8    24    19   ar
     9    17    16    2
    10    20    19   ar
    11    20    22    1
    12    19    16    1
    13    16    15   am
    14   100    99    1
    15    97    95    1
    16    98    95    1
    17    14    13    1
    18   101    99    1
    19    95    96    1
    20    95    93    1
    21    99   102    1
    22    99    93    1
    23    15    13    1
    24    15    18    1
    25    59    58    1
    26    71    69    1
    27    13    29    1
    28    13    10    1
    29    56    55    2
    30    93    94    1
    31    93    90    1
    32    57    58    1
    33    57    55    1
    34    31    29    1
    35    32    29    1
    36    11    10    2
    37    29    30    1
    38    58    61    1
    39    58    60    1
    40    69    67   ar
    41    69    61   ar
    42    55    52    1
    43    70    67    1
    44    10     9   am
    45    67    65   ar
    46    61    62   ar
    47    91    90    1
    48    90    92    1
    49    90     1    1
    50    54    52    1
    51    52    53    1
    52    52    49    1
    53    65    68    1
    54    65    63   ar
    55    62    64    1
    56    62    63   ar
    57     6     3    1
    58     9    12    1
    59     9     7    1
    60    44    43    2
    61    50    49    1
    62     3     1    1
    63     3     4   am
    64    63    66    1
    65     1    43    1
    66     1     2    1
    67     8     7    1
    68    48    47    1
    69    43    45   am
    70    49    47    1
    71    49    51    1
    72     7     4    1
    73     7    33    1
    74     4     5    2
    75    45    47    1
    76    45    46    1
    77    47    72    1
    78    36    35    1
    79    87    75    1
    80    34    33    1
    81    33    35    1
    82    33    39    1
    83    37    35    1
    84    35    38    1
    85    73    72    1
    86    72    75    1
    87    72    74    1
    88    86    83    1
    89    42    39    1
    90    75    83    1
    91    75    76    1
    92    39    40    1
    93    39    41    1
    94    88    83    1
    95    88    89    1
    96    83    80    1
    97    79    76    1
    98    76    78    1
    99    76    77    1
   100    80    85    1
   101    80    77    1
   102    80    84    1
   103    82    77    1
   104    77    81    1
@<TRIPOS>MOLECULE
crystal_redock_e8_er3_1.pdbqt
 102 104 0 0 0
SMALL
GASTEIGER

@<TRIPOS>ATOM
      1 C         -10.7340    9.6070   68.8310 C.3     1  UNL1        0.0890
      2 H         -11.4110    8.7720   68.6500 H       1  UNL1        0.0870
      3 N          -9.7130    9.5760   67.7950 N.am    1  UNL1       -0.3460
      4 C          -9.7120    8.4810   66.7580 C.2     1  UNL1        0.2410
      5 O         -10.5420    7.6330   66.7810 O.2     1  UNL1       -0.2710
      6 H          -9.0140   10.3060   67.7950 H       1  UNL1        0.1630
      7 C          -8.6510    8.4680   65.6900 C.3     1  UNL1        0.0920
      8 H          -9.0300    8.9750   64.8020 H       1  UNL1        0.0880
      9 N          -7.4810    9.2220   66.1520 N.am    1  UNL1       -0.3460
     10 C          -6.7560   10.0630   65.2320 C.2     1  UNL1        0.2400
     11 O          -7.0990   10.1450   64.1160 O.2     1  UNL1       -0.2710
     12 H          -7.1720    9.1600   67.1120 H       1  UNL1        0.1630
     13 C          -5.5100   10.8600   65.7300 C.3     1  UNL1        0.0860
     14 H          -5.4680   11.8720   65.3270 H       1  UNL1        0.0860
     15 N          -5.5810   10.9910   67.1760 N.am    1  UNL1       -0.3430
     16 C          -5.3540   12.2990   67.7940 C.2     1  UNL1        0.2730
     17 O          -5.1110   13.2390   67.1190 O.2     1  UNL1       -0.2660
     18 H          -5.7860   10.1820   67.7450 H       1  UNL1        0.1630
     19 C          -5.4270   12.4530   69.3210 C.ar    1  UNL1        0.1540
     20 C          -5.2150   13.6460   70.0810 C.ar    1  UNL1       -0.0170
     21 C          -5.3970   13.2570   71.4270 C.ar    1  UNL1        0.0770
     22 H          -4.9670   14.6420   69.7130 H       1  UNL1        0.0910
     23 O          -5.6810   11.9880   71.4280 O.2     1  UNL1       -0.2180
     24 N          -5.7040   11.4960   70.2110 N.ar    1  UNL1       -0.1230
     25 C          -5.2820   14.1580   72.6490 C.3     1  UNL1       -0.0290
     26 H          -6.0290   14.9510   72.5890 H       1  UNL1        0.0360
     27 H          -5.4500   13.5690   73.5510 H       1  UNL1        0.0360
     28 H          -4.2860   14.5990   72.6840 H       1  UNL1        0.0360
     29 C          -4.2520   10.1270   65.3390 C.3     1  UNL1       -0.0490
     30 H          -3.6580   10.7540   64.6740 H       1  UNL1        0.0300
     31 H          -3.6740    9.8950   66.2330 H       1  UNL1        0.0300
     32 H          -4.5160    9.2030   64.8250 H       1  UNL1        0.0300
     33 C          -8.2330    6.9990   65.3910 C.3     1  UNL1       -0.0330
     34 H          -9.0720    6.3570   65.6590 H       1  UNL1        0.0420
     35 C          -7.9460    6.7860   63.8720 C.3     1  UNL1       -0.0710
     36 H          -6.9350    7.1240   63.6430 H       1  UNL1        0.0280
     37 H          -8.0380    5.7280   63.6300 H       1  UNL1        0.0280
     38 H          -8.6630    7.3580   63.2840 H       1  UNL1        0.0280
     39 C          -7.0060    6.5780   66.2630 C.3     1  UNL1       -0.0710
     40 H          -7.1480    6.9310   67.2840 H       1  UNL1        0.0280
     41 H          -6.9170    5.4910   66.2640 H       1  UNL1        0.0280
     42 H          -6.0990    7.0170   65.8490 H       1  UNL1        0.0280
     43 C         -11.4640   10.9790   68.7670 C.2     1  UNL1        0.2400
     44 O         -12.0570   11.2880   67.7850 O.2     1  UNL1       -0.2710
     45 N         -11.4300   11.9050   69.9350 N.am    1  UNL1       -0.3550
     46 H         -10.9330   11.6520   70.7770 H       1  UNL1        0.1620
     47 C         -12.1300   13.2060   69.8590 C.3     1  UNL1        0.0130
     48 H         -12.8990   13.1290   69.0900 H       1  UNL1        0.0720
     49 C         -11.1380   14.2860   69.4920 C.3     1  UNL1       -0.0380
     50 H         -11.2340   15.0490   70.2650 H       1  UNL1        0.0360
     51 H         -10.1870   13.7750   69.3450 H       1  UNL1        0.0360
     52 C         -11.4740   14.9780   68.1530 C.3     1  UNL1        0.0180
     53 H         -11.7510   14.1760   67.4680 H       1  UNL1        0.0480
     54 H         -12.1940   15.7600   68.3970 H       1  UNL1        0.0480
     55 C         -10.2630   15.7000   67.5000 C.2     1  UNL1        0.2590
     56 O          -9.5740   16.4240   68.1430 O.2     1  UNL1       -0.2650
     57 O          -9.9920   15.4960   66.1180 O.3     1  UNL1       -0.3170
     58 C         -11.1610   15.2880   65.3210 C.3     1  UNL1        0.0520
     59 H         -12.0050   15.3870   66.0030 H       1  UNL1        0.0820
     60 H         -11.0630   15.9660   64.4730 H       1  UNL1        0.0820
     61 C         -11.1260   13.8300   64.7900 C.ar    1  UNL1       -0.0340
     62 C         -10.1550   12.9460   65.2470 C.ar    1  UNL1       -0.0750
     63 C         -10.1230   11.6360   64.7710 C.ar    1  UNL1       -0.0820
     64 H          -9.4180   13.2780   65.9790 H       1  UNL1        0.0840
     65 C         -11.0670   11.2120   63.8310 C.ar    1  UNL1       -0.0830
     66 H          -9.3620   10.9440   65.1330 H       1  UNL1        0.0830
     67 C         -12.0330   12.1000   63.3760 C.ar    1  UNL1       -0.0820
     68 H         -11.0500   10.1900   63.4540 H       1  UNL1        0.0830
     69 C         -12.0690   13.4090   63.8510 C.ar    1  UNL1       -0.0750
     70 H         -12.7660   11.7670   62.6410 H       1  UNL1        0.0830
     71 H         -12.8310   14.0990   63.4890 H       1  UNL1        0.0840
     72 C         -12.7630   13.5320   71.2110 C.3     1  UNL1       -0.0390
     73 H         -13.8000   13.2040   71.1320 H       1  UNL1        0.0360
     74 H         -12.1050   13.0830   71.9550 H       1  UNL1        0.0360
     75 C         -12.7860   15.1090   71.4890 C.3     1  UNL1       -0.0010
     76 C         -11.8300   15.4630   72.7800 C.3     1  UNL1       -0.0350
     77 C         -12.5400   16.2150   73.6550 C.3     1  UNL1        0.0850
     78 H         -11.6100   14.5560   73.3420 H       1  UNL1        0.0360
     79 H         -11.0190   16.1260   72.4740 H       1  UNL1        0.0360
     80 N         -13.9880   16.1300   73.2370 N.4     1  UNL1       -0.0490
     81 H         -12.4200   15.7260   74.6230 H       1  UNL1        0.0750
     82 H         -12.1880   17.2360   73.5140 H       1  UNL1        0.0750
     83 C         -13.9830   15.5220   71.7410 C.3     1  UNL1        0.1930
     84 H         -14.4260   15.4620   73.8540 H       1  UNL1        0.2800
     85 H         -14.3290   17.0800   73.1960 H       1  UNL1        0.2800
     86 H         -14.1550   16.1680   70.8800 H       1  UNL1        0.1290
     87 H         -12.6290   15.6910   70.5810 H       1  UNL1        0.0460
     88 O         -14.9480   14.4740   71.6320 O.3     1  UNL1       -0.3690
     89 H         -15.6160   14.5830   72.3130 H       1  UNL1        0.2120
     90 C         -10.0680    9.4450   70.1880 C.3     1  UNL1       -0.0350
     91 H          -9.0550    9.1030   69.9740 H       1  UNL1        0.0370
     92 H         -10.2260   10.3930   70.7030 H       1  UNL1        0.0370
     93 C         -10.7250    8.3440   71.0810 C.3     1  UNL1       -0.0590
     94 H          -9.9820    8.0240   71.8120 H       1  UNL1        0.0380
     95 C         -11.9640    8.8830   71.8650 C.3     1  UNL1       -0.0730
     96 H         -11.6270    9.4060   72.7600 H       1  UNL1        0.0280
     97 H         -12.5240    9.5710   71.2310 H       1  UNL1        0.0280
     98 H         -12.6050    8.0480   72.1500 H       1  UNL1        0.0280
     99 C         -11.1010    7.1160   70.2470 C.3     1  UNL1       -0.0730
    100 H         -11.2290    7.4100   69.2050 H       1  UNL1        0.0280
    101 H         -10.3080    6.3710   70.3200 H       1  UNL1        0.0280
    102 H         -12.0320    6.6930   70.6230 H       1  UNL1        0.0280
@<TRIPOS>BOND
     1    70    67    1
     2    38    35    1
     3    67    65   ar
     4    67    69   ar
     5    68    65    1
     6    71    69    1
     7    37    35    1
     8    36    35    1
     9    65    63   ar
    10    69    61   ar
    11    35    33    1
    12    11    10    2
    13    60    58    1
    14    30    29    1
    15    63    66    1
    16    63    62   ar
    17    61    62   ar
    18    61    58    1
    19     8     7    1
    20    32    29    1
    21    10    13    1
    22    10     9   am
    23    62    64    1
    24    58    59    1
    25    58    57    1
    26    14    13    1
    27    29    13    1
    28    29    31    1
    29    33    34    1
    30    33     7    1
    31    33    39    1
    32     7     9    1
    33     7     4    1
    34    13    15    1
    35    42    39    1
    36    57    55    1
    37     9    12    1
    38    39    41    1
    39    39    40    1
    40     4     5    2
    41     4     3   am
    42    17    16    2
    43    15    18    1
    44    15    16   am
    45    53    52    1
    46    55    56    2
    47    55    52    1
    48    44    43    2
    49    16    19    1
    50     6     3    1
    51     3     1    1
    52    52    54    1
    53    52    49    1
    54     2     1    1
    55    43     1    1
    56    43    45   am
    57     1    90    1
    58    48    47    1
    59   100    99    1
    60    19    20   ar
    61    19    24   ar
    62    51    49    1
    63    49    47    1
    64    49    50    1
    65    22    20    1
    66    47    45    1
    67    47    72    1
    68    45    46    1
    69    91    90    1
    70    20    21   ar
    71    90    92    1
    72    90    93    1
    73    24    23   ar
    74    99   101    1
    75    99   102    1
    76    99    93    1
    77    87    75    1
    78    86    83    1
    79    93    94    1
    80    93    95    1
    81    73    72    1
    82    72    75    1
    83    72    74    1
    84    97    95    1
    85    21    23   ar
    86    21    25    1
    87    75    83    1
    88    75    76    1
    89    88    83    1
    90    88    89    1
    91    83    80    1
    92    95    98    1
    93    95    96    1
    94    79    76    1
    95    26    25    1
    96    25    28    1
    97    25    27    1
    98    76    78    1
    99    76    77    1
   100    85    80    1
   101    80    77    1
   102    80    84    1
   103    82    77    1
   104    77    81    1
@<TRIPOS>MOLECULE
crystal_redock_e8_er3_1.pdbqt
 102 104 0 0 0
SMALL
GASTEIGER

@<TRIPOS>ATOM
      1 C         -10.8860    9.2470   69.4380 C.3     1  UNL1        0.0890
      2 H         -11.5010    8.3990   69.1330 H       1  UNL1        0.0870
      3 N          -9.7030    9.2570   68.5910 N.am    1  UNL1       -0.3460
      4 C          -9.6890    8.4910   67.2920 C.2     1  UNL1        0.2410
      5 O         -10.6410    7.8700   66.9510 O.2     1  UNL1       -0.2710
      6 H          -8.9020    9.7900   68.9000 H       1  UNL1        0.1630
      7 C          -8.4580    8.5170   66.4250 C.3     1  UNL1        0.0920
      8 H          -8.7360    8.8240   65.4170 H       1  UNL1        0.0880
      9 N          -7.5190    9.5200   66.9390 N.am    1  UNL1       -0.3460
     10 C          -6.8420   10.4070   66.0260 C.2     1  UNL1        0.2400
     11 O          -7.0400   10.3280   64.8750 O.2     1  UNL1       -0.2710
     12 H          -7.3380    9.5990   67.9290 H       1  UNL1        0.1630
     13 C          -5.8420   11.4700   66.5780 C.3     1  UNL1        0.0860
     14 H          -5.1960   11.8830   65.8040 H       1  UNL1        0.0860
     15 N          -6.5950   12.5840   67.1300 N.am    1  UNL1       -0.3430
     16 C          -5.8950   13.8160   67.5000 C.2     1  UNL1        0.2730
     17 O          -4.7250   13.8990   67.3530 O.2     1  UNL1       -0.2660
     18 H          -7.5950   12.5040   67.2540 H       1  UNL1        0.1630
     19 C          -6.6780   15.0020   68.0820 C.ar    1  UNL1        0.1540
     20 C          -6.7480   16.3330   67.5600 C.ar    1  UNL1       -0.0170
     21 C          -7.5900   17.0310   68.4540 C.ar    1  UNL1        0.0770
     22 H          -6.2630   16.7300   66.6680 H       1  UNL1        0.0910
     23 O          -7.9560   16.1910   69.3770 O.2     1  UNL1       -0.2180
     24 N          -7.4370   15.0010   69.1820 N.ar    1  UNL1       -0.1230
     25 C          -7.9940   18.4960   68.3540 C.3     1  UNL1       -0.0290
     26 H          -7.1190   19.1260   68.5130 H       1  UNL1        0.0360
     27 H          -8.4080   18.6920   67.3650 H       1  UNL1        0.0360
     28 H          -8.7450   18.7190   69.1130 H       1  UNL1        0.0360
     29 C          -4.9840   10.8470   67.6490 C.3     1  UNL1       -0.0490
     30 H          -4.5730   11.6300   68.2870 H       1  UNL1        0.0300
     31 H          -5.5880   10.1680   68.2500 H       1  UNL1        0.0300
     32 H          -4.1680   10.2940   67.1840 H       1  UNL1        0.0300
     33 C          -7.7790    7.1170   66.4450 C.3     1  UNL1       -0.0330
     34 H          -8.5000    6.4080   66.8530 H       1  UNL1        0.0420
     35 C          -7.4160    6.6400   65.0040 C.3     1  UNL1       -0.0710
     36 H          -6.4490    6.1370   65.0210 H       1  UNL1        0.0280
     37 H          -8.1780    5.9480   64.6480 H       1  UNL1        0.0280
     38 H          -7.3660    7.5010   64.3390 H       1  UNL1        0.0280
     39 C          -6.5230    7.1170   67.3750 C.3     1  UNL1       -0.0710
     40 H          -6.4390    8.0830   67.8720 H       1  UNL1        0.0280
     41 H          -6.6250    6.3310   68.1240 H       1  UNL1        0.0280
     42 H          -5.6290    6.9360   66.7780 H       1  UNL1        0.0280
     43 C         -11.6300   10.6030   69.2680 C.2     1  UNL1        0.2400
     44 O         -12.1490   10.8660   68.2320 O.2     1  UNL1       -0.2710
     45 N         -11.7010   11.5700   70.4000 N.am    1  UNL1       -0.3550
     46 H         -11.2670   11.3550   71.2860 H       1  UNL1        0.1620
     47 C         -12.4120   12.8540   70.2230 C.3     1  UNL1        0.0130
     48 H         -13.2340   12.6890   69.5260 H       1  UNL1        0.0720
     49 C         -11.4560   13.8820   69.6610 C.3     1  UNL1       -0.0380
     50 H         -11.4550   14.7050   70.3760 H       1  UNL1        0.0360
     51 H         -10.5340   13.3410   69.4500 H       1  UNL1        0.0360
     52 C         -11.9330   14.4720   68.3160 C.3     1  UNL1        0.0180
     53 H         -11.7940   13.6800   67.5800 H       1  UNL1        0.0480
     54 H         -12.9300   14.8700   68.5060 H       1  UNL1        0.0480
     55 C         -11.0800   15.6720   67.8220 C.2     1  UNL1        0.2590
     56 O         -11.1970   16.7430   68.3230 O.2     1  UNL1       -0.2650
     57 O         -10.1630   15.4810   66.7510 O.3     1  UNL1       -0.3170
     58 C         -10.7690   15.5060   65.4550 C.3     1  UNL1        0.0520
     59 H         -11.7660   15.9210   65.6030 H       1  UNL1        0.0820
     60 H         -10.0570   16.0160   64.8060 H       1  UNL1        0.0820
     61 C         -10.9140   14.0400   64.9660 C.ar    1  UNL1       -0.0340
     62 C         -10.0710   13.0530   65.4650 C.ar    1  UNL1       -0.0750
     63 C         -10.2010   11.7360   65.0260 C.ar    1  UNL1       -0.0820
     64 H          -9.3080   13.3100   66.2000 H       1  UNL1        0.0840
     65 C         -11.1780   11.4090   64.0820 C.ar    1  UNL1       -0.0830
     66 H          -9.5400   10.9640   65.4200 H       1  UNL1        0.0830
     67 C         -12.0150   12.3980   63.5840 C.ar    1  UNL1       -0.0820
     68 H         -11.2870   10.3820   63.7330 H       1  UNL1        0.0830
     69 C         -11.8900   13.7150   64.0220 C.ar    1  UNL1       -0.0750
     70 H         -12.7750   12.1400   62.8460 H       1  UNL1        0.0830
     71 H         -12.5520   14.4860   63.6280 H       1  UNL1        0.0840
     72 C         -12.9480   13.3380   71.5690 C.3     1  UNL1       -0.0390
     73 H         -14.0150   13.1140   71.5540 H       1  UNL1        0.0360
     74 H         -12.3050   12.8770   72.3190 H       1  UNL1        0.0360
     75 C         -12.8000   14.9250   71.7300 C.3     1  UNL1       -0.0010
     76 C         -11.9210   15.2720   73.0760 C.3     1  UNL1       -0.0350
     77 C         -12.6040   16.1700   73.8240 C.3     1  UNL1        0.0850
     78 H         -11.8620   14.3950   73.7200 H       1  UNL1        0.0360
     79 H         -11.0120   15.8080   72.8010 H       1  UNL1        0.0360
     80 N         -14.0110   16.2200   73.2780 N.4     1  UNL1       -0.0490
     81 H         -12.6290   15.7520   74.8310 H       1  UNL1        0.0750
     82 H         -12.1190   17.1290   73.6430 H       1  UNL1        0.0750
     83 C         -13.9540   15.4930   71.8380 C.3     1  UNL1        0.1930
     84 H         -14.5790   15.6610   73.8980 H       1  UNL1        0.2800
     85 H         -14.2290   17.1960   73.1370 H       1  UNL1        0.2800
     86 H         -13.9720   16.0810   70.9200 H       1  UNL1        0.1290
     87 H         -12.4960   15.4070   70.8010 H       1  UNL1        0.0460
     88 O         -15.0290   14.5600   71.7140 O.3     1  UNL1       -0.3690
     89 H         -15.7660   14.8470   72.2560 H       1  UNL1        0.2120
     90 C         -10.4580    9.0770   70.8860 C.3     1  UNL1       -0.0350
     91 H          -9.4740    8.6090   70.8440 H       1  UNL1        0.0370
     92 H         -10.5730   10.0620   71.3390 H       1  UNL1        0.0370
     93 C         -11.3720    8.1070   71.7010 C.3     1  UNL1       -0.0590
     94 H         -12.2600    8.6630   72.0010 H       1  UNL1        0.0380
     95 C         -11.8420    6.8850   70.8480 C.3     1  UNL1       -0.0730
     96 H         -12.6850    6.4010   71.3410 H       1  UNL1        0.0280
     97 H         -12.1460    7.2270   69.8590 H       1  UNL1        0.0280
     98 H         -11.0210    6.1740   70.7500 H       1  UNL1        0.0280
     99 C         -10.6730    7.6410   72.9800 C.3     1  UNL1       -0.0730
    100 H          -9.5920    7.7020   72.8470 H       1  UNL1        0.0280
    101 H         -10.9730    8.2810   73.8110 H       1  UNL1        0.0280
    102 H         -10.9550    6.6110   73.1950 H       1  UNL1        0.0280
@<TRIPOS>BOND
     1    70    67    1
     2    67    69   ar
     3    67    65   ar
     4    71    69    1
     5    68    65    1
     6    69    61   ar
     7    65    63   ar
     8    38    35    1
     9    37    35    1
    10    60    58    1
    11    11    10    2
    12    61    58    1
    13    61    62   ar
    14    35    36    1
    15    35    33    1
    16    63    66    1
    17    63    62   ar
    18     8     7    1
    19    58    59    1
    20    58    57    1
    21    62    64    1
    22    14    13    1
    23    10    13    1
    24    10     9   am
    25     7    33    1
    26     7     9    1
    27     7     4    1
    28    33    34    1
    29    33    39    1
    30    13    15    1
    31    13    29    1
    32    22    20    1
    33    57    55    1
    34    42    39    1
    35     9    12    1
    36     5     4    2
    37    15    18    1
    38    15    16   am
    39    32    29    1
    40     4     3   am
    41    17    16    2
    42    27    25    1
    43    39    40    1
    44    39    41    1
    45    16    19    1
    46    20    19   ar
    47    20    21   ar
    48    53    52    1
    49    29    31    1
    50    29    30    1
    51    55    52    1
    52    55    56    2
    53    19    24   ar
    54    44    43    2
    55    52    54    1
    56    52    49    1
    57    25    21    1
    58    25    26    1
    59    25    28    1
    60    21    23   ar
    61     3     6    1
    62     3     1    1
    63     2     1    1
    64    24    23   ar
    65    43     1    1
    66    43    45   am
    67     1    90    1
    68    51    49    1
    69    48    47    1
    70    49    47    1
    71    49    50    1
    72    97    95    1
    73    47    45    1
    74    47    72    1
    75    45    46    1
    76    98    95    1
    77    87    75    1
    78    91    90    1
    79    95    96    1
    80    95    93    1
    81    90    92    1
    82    90    93    1
    83    86    83    1
    84    73    72    1
    85    72    75    1
    86    72    74    1
    87    93    94    1
    88    93    99    1
    89    88    83    1
    90    88    89    1
    91    75    83    1
    92    75    76    1
    93    83    80    1
    94    79    76    1
    95   100    99    1
    96    99   102    1
    97    99   101    1
    98    76    78    1
    99    76    77    1
   100    85    80    1
   101    80    77    1
   102    80    84    1
   103    82    77    1
   104    77    81    1
@<TRIPOS>MOLECULE
crystal_redock_e8_er3_1.pdbqt
 102 104 0 0 0
SMALL
GASTEIGER

@<TRIPOS>ATOM
      1 C         -10.7530    9.4510   69.0640 C.3     1  UNL1        0.0890
      2 H         -11.4690    8.6670   68.8170 H       1  UNL1        0.0870
      3 N          -9.4640    9.0550   68.5150 N.am    1  UNL1       -0.3460
      4 C          -9.2370    7.6390   68.0480 C.2     1  UNL1        0.2410
      5 O         -10.1070    6.8350   68.1260 O.2     1  UNL1       -0.2710
      6 H          -8.7370    9.7540   68.4600 H       1  UNL1        0.1630
      7 C          -7.8990    7.2490   67.4770 C.3     1  UNL1        0.0920
      8 H          -8.0160    6.3490   66.8730 H       1  UNL1        0.0880
      9 N          -7.4190    8.3100   66.5870 N.am    1  UNL1       -0.3460
     10 C          -7.6740    8.2310   65.1700 C.2     1  UNL1        0.2400
     11 O          -8.2640    7.3210   64.7290 O.2     1  UNL1       -0.2710
     12 H          -6.9080    9.1000   66.9530 H       1  UNL1        0.1630
     13 C          -7.1580    9.3620   64.2270 C.3     1  UNL1        0.0860
     14 H          -7.2200    9.0930   63.1720 H       1  UNL1        0.0860
     15 N          -7.9890   10.5410   64.4050 N.am    1  UNL1       -0.3430
     16 C          -9.2650   10.6380   63.6930 C.2     1  UNL1        0.2730
     17 O          -9.6130    9.7640   62.9770 O.2     1  UNL1       -0.2660
     18 H          -7.6830   11.2840   65.0160 H       1  UNL1        0.1630
     19 C         -10.1550   11.8780   63.8730 C.ar    1  UNL1        0.1540
     20 C          -9.9460   12.9680   64.7750 C.ar    1  UNL1       -0.0170
     21 C         -11.0360   13.8390   64.5520 C.ar    1  UNL1        0.0770
     22 H          -9.1290   13.1070   65.4840 H       1  UNL1        0.0910
     23 O         -11.7770   13.3030   63.6270 O.2     1  UNL1       -0.2180
     24 N         -11.2840   12.1580   63.2150 N.ar    1  UNL1       -0.1230
     25 C         -11.2940   15.1610   65.2630 C.3     1  UNL1       -0.0290
     26 H         -10.3890   15.7700   65.2390 H       1  UNL1        0.0360
     27 H         -12.1020   15.6920   64.7600 H       1  UNL1        0.0360
     28 H         -11.5740   14.9690   66.2990 H       1  UNL1        0.0360
     29 C          -5.7240    9.6850   64.5630 C.3     1  UNL1       -0.0490
     30 H          -5.6840   10.2070   65.5190 H       1  UNL1        0.0300
     31 H          -5.1490    8.7610   64.6290 H       1  UNL1        0.0300
     32 H          -5.3030   10.3210   63.7850 H       1  UNL1        0.0300
     33 C          -6.8800    7.0470   68.6370 C.3     1  UNL1       -0.0330
     34 H          -6.1910    6.2580   68.3360 H       1  UNL1        0.0420
     35 C          -6.0370    8.3370   68.8830 C.3     1  UNL1       -0.0710
     36 H          -6.6780    9.2140   68.7870 H       1  UNL1        0.0280
     37 H          -5.6120    8.3070   69.8860 H       1  UNL1        0.0280
     38 H          -5.2340    8.3920   68.1490 H       1  UNL1        0.0280
     39 C          -7.6030    6.5850   69.9430 C.3     1  UNL1       -0.0710
     40 H          -8.6750    6.5210   69.7620 H       1  UNL1        0.0280
     41 H          -7.2250    5.6070   70.2410 H       1  UNL1        0.0280
     42 H          -7.4110    7.3060   70.7380 H       1  UNL1        0.0280
     43 C         -11.1500   10.8250   68.4530 C.2     1  UNL1        0.2400
     44 O         -11.9270   10.8700   67.5550 O.2     1  UNL1       -0.2710
     45 N         -10.5690   12.0860   68.9940 N.am    1  UNL1       -0.3550
     46 H          -9.9120   12.0610   69.7600 H       1  UNL1        0.1620
     47 C         -10.9580   13.3850   68.4030 C.3     1  UNL1        0.0130
     48 H         -11.1390   13.2290   67.3400 H       1  UNL1        0.0720
     49 C          -9.8350   14.3790   68.5970 C.3     1  UNL1       -0.0380
     50 H          -9.9060   15.0710   67.7570 H       1  UNL1        0.0360
     51 H          -9.9410   14.7470   69.6170 H       1  UNL1        0.0360
     52 C          -8.4380   13.7280   68.5090 C.3     1  UNL1        0.0180
     53 H          -7.9630   13.9170   69.4720 H       1  UNL1        0.0480
     54 H          -8.6090   12.7030   68.1780 H       1  UNL1        0.0480
     55 C          -7.5120   14.3730   67.4410 C.2     1  UNL1        0.2590
     56 O          -6.3880   14.0090   67.3170 O.2     1  UNL1       -0.2650
     57 O          -8.0200   15.4170   66.6180 O.3     1  UNL1       -0.3170
     58 C          -7.3370   16.6640   66.7720 C.3     1  UNL1        0.0520
     59 H          -6.8260   16.6040   67.7330 H       1  UNL1        0.0820
     60 H          -6.7620   16.8010   65.8560 H       1  UNL1        0.0820
     61 C          -8.4050   17.7870   66.8520 C.ar    1  UNL1       -0.0340
     62 C          -8.1960   18.9960   66.1950 C.ar    1  UNL1       -0.0750
     63 C          -9.1550   20.0050   66.2680 C.ar    1  UNL1       -0.0820
     64 H          -7.2820   19.1520   65.6230 H       1  UNL1        0.0840
     65 C         -10.3260   19.8030   67.0040 C.ar    1  UNL1       -0.0830
     66 H          -8.9900   20.9500   65.7500 H       1  UNL1        0.0830
     67 C         -10.5290   18.5970   67.6600 C.ar    1  UNL1       -0.0820
     68 H         -11.0820   20.5870   67.0650 H       1  UNL1        0.0830
     69 C          -9.5740   17.5850   67.5890 C.ar    1  UNL1       -0.0750
     70 H         -11.4420   18.4440   68.2350 H       1  UNL1        0.0830
     71 H          -9.7410   16.6400   68.1070 H       1  UNL1        0.0840
     72 C         -12.2220   13.9050   69.0850 C.3     1  UNL1       -0.0390
     73 H         -12.5280   14.7750   68.5050 H       1  UNL1        0.0360
     74 H         -12.8850   13.0430   69.1640 H       1  UNL1        0.0360
     75 C         -11.9260   14.4110   70.5760 C.3     1  UNL1       -0.0010
     76 C         -12.8360   13.5590   71.6480 C.3     1  UNL1       -0.0350
     77 C         -13.4910   14.4290   72.4530 C.3     1  UNL1        0.0850
     78 H         -13.6390   13.0390   71.1270 H       1  UNL1        0.0360
     79 H         -12.1900   13.0130   72.3360 H       1  UNL1        0.0360
     80 N         -13.3680   15.7940   71.8190 N.4     1  UNL1       -0.0490
     81 H         -14.5370   14.1190   72.4280 H       1  UNL1        0.0750
     82 H         -12.9440   14.4240   73.3950 H       1  UNL1        0.0750
     83 C         -12.2040   15.6650   70.7080 C.3     1  UNL1        0.1930
     84 H         -14.2440   15.9710   71.3490 H       1  UNL1        0.2800
     85 H         -13.0500   16.4190   72.5460 H       1  UNL1        0.2800
     86 H         -11.2100   16.0700   70.8980 H       1  UNL1        0.1290
     87 H         -10.8580   14.4860   70.7820 H       1  UNL1        0.0460
     88 O         -12.6290   16.2550   69.4780 O.3     1  UNL1       -0.3690
     89 H         -12.1960   15.8130   68.7450 H       1  UNL1        0.2120
     90 C         -10.6310    9.5780   70.5740 C.3     1  UNL1       -0.0350
     91 H          -9.7020    9.0690   70.8330 H       1  UNL1        0.0370
     92 H         -10.7450   10.6420   70.7840 H       1  UNL1        0.0370
     93 C         -11.7680    8.8490   71.3590 C.3     1  UNL1       -0.0590
     94 H         -12.2250    8.1270   70.6830 H       1  UNL1        0.0380
     95 C         -11.2220    8.0660   72.5950 C.3     1  UNL1       -0.0730
     96 H         -11.3990    7.0000   72.4570 H       1  UNL1        0.0280
     97 H         -10.1510    8.2470   72.6960 H       1  UNL1        0.0280
     98 H         -11.7340    8.4070   73.4960 H       1  UNL1        0.0280
     99 C         -12.8620    9.8350   71.7770 C.3     1  UNL1       -0.0730
    100 H         -13.6790    9.2910   72.2510 H       1  UNL1        0.0280
    101 H         -12.4490   10.5570   72.4820 H       1  UNL1        0.0280
    102 H         -13.2350   10.3590   70.8980 H       1  UNL1        0.0280
@<TRIPOS>BOND
     1    17    16    2
     2    14    13    1
     3    24    23   ar
     4    24    19   ar
     5    23    21   ar
     6    16    19    1
     7    16    15   am
     8    32    29    1
     9    19    20   ar
    10    13    15    1
    11    13    29    1
    12    13    10    1
    13    15    18    1
    14    21    20   ar
    15    21    25    1
    16    29    31    1
    17    29    30    1
    18    11    10    2
    19    27    25    1
    20    20    22    1
    21    10     9   am
    22    26    25    1
    23    25    28    1
    24    64    62    1
    25    66    63    1
    26    60    58    1
    27    62    63   ar
    28    62    61   ar
    29    63    65   ar
    30     9    12    1
    31     9     7    1
    32    57    58    1
    33    57    55    1
    34    58    61    1
    35    58    59    1
    36    61    69   ar
    37     8     7    1
    38    65    68    1
    39    65    67   ar
    40    56    55    2
    41    48    47    1
    42    55    52    1
    43     7     4    1
    44     7    33    1
    45    44    43    2
    46    69    67   ar
    47    69    71    1
    48    67    70    1
    49    50    49    1
    50     4     5    2
    51     4     3   am
    52    38    35    1
    53    54    52    1
    54    34    33    1
    55    47    49    1
    56    47    45    1
    57    47    72    1
    58    43    45   am
    59    43     1    1
    60     6     3    1
    61    73    72    1
    62    52    49    1
    63    52    53    1
    64     3     1    1
    65    49    51    1
    66    33    35    1
    67    33    39    1
    68    89    88    1
    69    36    35    1
    70     2     1    1
    71    35    37    1
    72    45    46    1
    73     1    90    1
    74    72    74    1
    75    72    75    1
    76    88    83    1
    77    40    39    1
    78    39    41    1
    79    39    42    1
    80    90    92    1
    81    90    91    1
    82    90    93    1
    83    75    83    1
    84    75    87    1
    85    75    76    1
    86    94    93    1
    87    83    86    1
    88    83    80    1
    89   102    99    1
    90    78    76    1
    91    84    80    1
    92    93    99    1
    93    93    95    1
    94    76    79    1
    95    76    77    1
    96    99   100    1
    97    99   101    1
    98    80    77    1
    99    80    85    1
   100    81    77    1
   101    77    82    1
   102    96    95    1
   103    95    97    1
   104    95    98    1
@<TRIPOS>MOLECULE
crystal_redock_e8_er3_1.pdbqt
 102 104 0 0 0
SMALL
GASTEIGER

@<TRIPOS>ATOM
      1 C          -9.9370    8.4450   69.2710 C.3     1  UNL1        0.0890
      2 H         -10.9940    8.4220   69.0060 H       1  UNL1        0.0870
      3 N          -9.2540    7.4710   68.4310 N.am    1  UNL1       -0.3460
      4 C          -9.9220    6.9340   67.1910 C.2     1  UNL1        0.2410
      5 O         -11.0110    7.2980   66.8900 O.2     1  UNL1       -0.2710
      6 H          -8.3290    7.1730   68.7060 H       1  UNL1        0.1630
      7 C          -9.1980    5.9310   66.3310 C.3     1  UNL1        0.0920
      8 H          -9.8560    5.6120   65.5220 H       1  UNL1        0.0880
      9 N          -8.0310    6.5680   65.7130 N.am    1  UNL1       -0.3460
     10 C          -7.7340    6.3340   64.3220 C.2     1  UNL1        0.2400
     11 O          -8.4230    5.6340   63.6840 O.2     1  UNL1       -0.2710
     12 H          -7.4270    7.1730   66.2510 H       1  UNL1        0.1630
     13 C          -6.4890    7.0120   63.6710 C.3     1  UNL1        0.0860
     14 H          -6.7290    7.5370   62.7470 H       1  UNL1        0.0860
     15 N          -5.9610    8.0080   64.5890 N.am    1  UNL1       -0.3430
     16 C          -5.9850    9.4220   64.2110 C.2     1  UNL1        0.2730
     17 O          -6.4280    9.7490   63.1650 O.2     1  UNL1       -0.2660
     18 H          -5.5820    7.7200   65.4800 H       1  UNL1        0.1630
     19 C          -5.4320   10.4860   65.1720 C.ar    1  UNL1        0.1540
     20 C          -5.9070   10.7940   66.4860 C.ar    1  UNL1       -0.0170
     21 C          -5.0670   11.8350   66.9410 C.ar    1  UNL1        0.0770
     22 H          -6.7350   10.3340   67.0260 H       1  UNL1        0.0910
     23 O          -4.2120   12.0860   65.9930 O.2     1  UNL1       -0.2180
     24 N          -4.4060   11.3120   64.9500 N.ar    1  UNL1       -0.1230
     25 C          -5.1470   12.5330   68.2930 C.3     1  UNL1       -0.0290
     26 H          -6.1270   12.9970   68.4050 H       1  UNL1        0.0360
     27 H          -4.9990   11.8020   69.0880 H       1  UNL1        0.0360
     28 H          -4.3730   13.2980   68.3540 H       1  UNL1        0.0360
     29 C          -5.4390    5.9690   63.3810 C.3     1  UNL1       -0.0490
     30 H          -5.1210    6.0530   62.3420 H       1  UNL1        0.0300
     31 H          -4.5830    6.1230   64.0370 H       1  UNL1        0.0300
     32 H          -5.8560    4.9770   63.5530 H       1  UNL1        0.0300
     33 C          -8.7290    4.7360   67.2110 C.3     1  UNL1       -0.0330
     34 H          -9.0890    4.9130   68.2240 H       1  UNL1        0.0420
     35 C          -9.3490    3.3910   66.7210 C.3     1  UNL1       -0.0710
     36 H         -10.0440    3.5880   65.9040 H       1  UNL1        0.0280
     37 H          -8.5560    2.7310   66.3700 H       1  UNL1        0.0280
     38 H          -9.8810    2.9150   67.5440 H       1  UNL1        0.0280
     39 C          -7.1690    4.6560   67.2590 C.3     1  UNL1       -0.0710
     40 H          -6.7460    5.6100   66.9460 H       1  UNL1        0.0280
     41 H          -6.8480    4.4320   68.2770 H       1  UNL1        0.0280
     42 H          -6.8250    3.8680   66.5890 H       1  UNL1        0.0280
     43 C          -9.2990    9.8430   69.0270 C.2     1  UNL1        0.2400
     44 O          -8.2800   10.1300   69.5660 O.2     1  UNL1       -0.2710
     45 N          -9.9560   10.8210   68.1130 N.am    1  UNL1       -0.3550
     46 H         -10.8190   10.5860   67.6450 H       1  UNL1        0.1620
     47 C          -9.3370   12.1450   67.8900 C.3     1  UNL1        0.0130
     48 H          -8.4060   12.1800   68.4560 H       1  UNL1        0.0720
     49 C         -10.2770   13.2250   68.3770 C.3     1  UNL1       -0.0380
     50 H         -11.1690   13.1400   67.7560 H       1  UNL1        0.0360
     51 H         -10.3480   13.0880   69.4560 H       1  UNL1        0.0360
     52 C          -9.7230   14.6480   68.1520 C.3     1  UNL1        0.0180
     53 H          -9.3910   14.9940   69.1310 H       1  UNL1        0.0480
     54 H          -9.0070   14.5610   67.3340 H       1  UNL1        0.0480
     55 C         -10.7940   15.6690   67.6770 C.2     1  UNL1        0.2590
     56 O         -10.8860   15.9560   66.5280 O.2     1  UNL1       -0.2650
     57 O         -11.6570   16.2700   68.6350 O.3     1  UNL1       -0.3170
     58 C         -11.0490   16.4850   69.9120 C.3     1  UNL1        0.0520
     59 H         -10.0690   16.0110   69.8560 H       1  UNL1        0.0820
     60 H         -11.1270   17.5550   70.1000 H       1  UNL1        0.0820
     61 C         -11.8960   15.7370   70.9770 C.ar    1  UNL1       -0.0340
     62 C         -12.6430   14.6210   70.6150 C.ar    1  UNL1       -0.0750
     63 C         -13.4040   13.9500   71.5710 C.ar    1  UNL1       -0.0820
     64 H         -12.6320   14.2720   69.5820 H       1  UNL1        0.0840
     65 C         -13.4180   14.4010   72.8930 C.ar    1  UNL1       -0.0830
     66 H         -13.9860   13.0740   71.2840 H       1  UNL1        0.0830
     67 C         -12.6730   15.5170   73.2490 C.ar    1  UNL1       -0.0820
     68 H         -14.0090   13.8810   73.6470 H       1  UNL1        0.0830
     69 C         -11.9100   16.1900   72.2980 C.ar    1  UNL1       -0.0750
     70 H         -12.6880   15.8680   74.2820 H       1  UNL1        0.0830
     71 H         -11.3270   17.0650   72.5850 H       1  UNL1        0.0840
     72 C          -9.0600   12.3420   66.4010 C.3     1  UNL1       -0.0390
     73 H          -9.1120   13.4190   66.2370 H       1  UNL1        0.0360
     74 H          -8.1330   11.8050   66.2040 H       1  UNL1        0.0360
     75 C         -10.1970   11.6710   65.4930 C.3     1  UNL1       -0.0010
     76 C          -9.6020   10.3300   64.7510 C.3     1  UNL1       -0.0350
     77 C          -9.8630   10.4130   63.4250 C.3     1  UNL1        0.0850
     78 H          -8.5130   10.3300   64.7970 H       1  UNL1        0.0360
     79 H         -10.1610    9.4490   65.0660 H       1  UNL1        0.0360
     80 N         -10.2900   11.8340   63.1470 N.4     1  UNL1       -0.0490
     81 H          -8.9110   10.2250   62.9270 H       1  UNL1        0.0750
     82 H         -10.7090    9.7490   63.2520 H       1  UNL1        0.0750
     83 C         -10.6150   12.4900   64.5860 C.3     1  UNL1        0.1930
     84 H          -9.4860   12.3030   62.7540 H       1  UNL1        0.2800
     85 H         -11.1490   11.7770   62.6190 H       1  UNL1        0.2800
     86 H         -11.6460   12.6340   64.9090 H       1  UNL1        0.1290
     87 H         -11.1420   11.5650   66.0270 H       1  UNL1        0.0460
     88 O          -9.9980   13.7740   64.6940 O.3     1  UNL1       -0.3690
     89 H         -10.1860   14.1480   65.5570 H       1  UNL1        0.2120
     90 C          -9.7630    8.0510   70.7290 C.3     1  UNL1       -0.0350
     91 H          -9.2660    7.0810   70.7090 H       1  UNL1        0.0370
     92 H          -9.2740    8.9030   71.2010 H       1  UNL1        0.0370
     93 C         -11.1120    7.8410   71.4860 C.3     1  UNL1       -0.0590
     94 H         -11.6740    8.7730   71.4270 H       1  UNL1        0.0380
     95 C         -11.9840    6.7180   70.8370 C.3     1  UNL1       -0.0730
     96 H         -11.7400    6.6360   69.7780 H       1  UNL1        0.0280
     97 H         -11.7800    5.7680   71.3320 H       1  UNL1        0.0280
     98 H         -13.0390    6.9670   70.9490 H       1  UNL1        0.0280
     99 C         -10.8680    7.5510   72.9690 C.3     1  UNL1       -0.0730
    100 H         -10.2270    8.3270   73.3900 H       1  UNL1        0.0280
    101 H         -11.8210    7.5390   73.4990 H       1  UNL1        0.0280
    102 H         -10.3820    6.5820   73.0750 H       1  UNL1        0.0280
@<TRIPOS>BOND
     1    30    29    1
     2    85    80    1
     3    14    13    1
     4    84    80    1
     5    81    77    1
     6    80    77    1
     7    80    83    1
     8    17    16    2
     9    82    77    1
    10    29    32    1
    11    29    13    1
    12    29    31    1
    13    77    76    1
    14    13    10    1
    15    13    15    1
    16    11    10    2
    17    16    15   am
    18    16    19    1
    19    10     9   am
    20    83    88    1
    21    83    86    1
    22    83    75    1
    23    15    18    1
    24    88    89    1
    25    76    78    1
    26    76    79    1
    27    76    75    1
    28    24    19   ar
    29    24    23   ar
    30    19    20   ar
    31    75    87    1
    32    75    72    1
    33     8     7    1
    34     9    12    1
    35     9     7    1
    36    36    35    1
    37    23    21   ar
    38    74    72    1
    39    73    72    1
    40     7     4    1
    41     7    33    1
    42    37    35    1
    43    72    47    1
    44    20    21   ar
    45    20    22    1
    46    56    55    2
    47    42    39    1
    48    35    33    1
    49    35    38    1
    50     5     4    2
    51    21    25    1
    52    40    39    1
    53     4     3   am
    54    33    39    1
    55    33    34    1
    56    39    41    1
    57    54    52    1
    58    46    45    1
    59    55    52    1
    60    55    57    1
    61    50    49    1
    62    47    45    1
    63    47    49    1
    64    47    48    1
    65    45    43   am
    66    52    49    1
    67    52    53    1
    68    25    28    1
    69    25    26    1
    70    25    27    1
    71    49    51    1
    72     3     6    1
    73     3     1    1
    74    57    58    1
    75     2     1    1
    76    43     1    1
    77    43    44    2
    78     1    90    1
    79    64    62    1
    80    96    95    1
    81    59    58    1
    82    58    60    1
    83    58    61    1
    84    62    61   ar
    85    62    63   ar
    86    91    90    1
    87    90    92    1
    88    90    93    1
    89    95    98    1
    90    95    97    1
    91    95    93    1
    92    61    69   ar
    93    66    63    1
    94    94    93    1
    95    93    99    1
    96    63    65   ar
    97    69    71    1
    98    69    67   ar
    99    65    67   ar
   100    65    68    1
   101    99   102    1
   102    99   100    1
   103    99   101    1
   104    67    70    1
@<TRIPOS>MOLECULE
crystal_redock_e8_er3_1.pdbqt
 102 104 0 0 0
SMALL
GASTEIGER

@<TRIPOS>ATOM
      1 C          -6.8250   10.2530   62.9590 C.3     1  UNL1        0.0890
      2 H          -6.1820   10.9860   62.4720 H       1  UNL1        0.0870
      3 N          -6.4210   10.1740   64.3550 N.am    1  UNL1       -0.3460
      4 C          -5.1210   10.7900   64.8080 C.2     1  UNL1        0.2410
      5 O          -4.4150   11.3420   64.0290 O.2     1  UNL1       -0.2710
      6 H          -7.0350    9.6980   65.0010 H       1  UNL1        0.1630
      7 C          -4.7210   10.7040   66.2570 C.3     1  UNL1        0.0920
      8 H          -3.8180   11.2920   66.4150 H       1  UNL1        0.0880
      9 N          -5.7740   11.2930   67.0910 N.am    1  UNL1       -0.3460
     10 C          -5.6410   12.6470   67.5680 C.2     1  UNL1        0.2400
     11 O          -4.6940   13.2770   67.2920 O.2     1  UNL1       -0.2710
     12 H          -6.5960   10.7610   67.3380 H       1  UNL1        0.1630
     13 C          -6.7630   13.2680   68.4570 C.3     1  UNL1        0.0860
     14 H          -6.8270   12.8030   69.4410 H       1  UNL1        0.0860
     15 N          -6.4650   14.6730   68.6800 N.am    1  UNL1       -0.3430
     16 C          -6.0140   15.1130   70.0020 C.2     1  UNL1        0.2730
     17 O          -5.8980   14.3300   70.8800 O.2     1  UNL1       -0.2660
     18 H          -6.5700   15.3350   67.9250 H       1  UNL1        0.1630
     19 C          -5.6940   16.5950   70.2520 C.ar    1  UNL1        0.1540
     20 C          -6.1460   17.7180   69.4890 C.ar    1  UNL1       -0.0170
     21 C          -5.5770   18.8430   70.1260 C.ar    1  UNL1        0.0770
     22 H          -6.7880   17.7170   68.6080 H       1  UNL1        0.0910
     23 O          -4.8830   18.4070   71.1360 O.2     1  UNL1       -0.2180
     24 N          -4.9350   17.0980   71.2300 N.ar    1  UNL1       -0.1230
     25 C          -5.7460   20.2980   69.7080 C.3     1  UNL1       -0.0290
     26 H          -6.7640   20.6230   69.9250 H       1  UNL1        0.0360
     27 H          -5.0410   20.9190   70.2590 H       1  UNL1        0.0360
     28 H          -5.5550   20.3940   68.6380 H       1  UNL1        0.0360
     29 C          -8.0940   13.1260   67.7640 C.3     1  UNL1       -0.0490
     30 H          -8.3090   12.0700   67.6020 H       1  UNL1        0.0300
     31 H          -8.8750   13.5660   68.3830 H       1  UNL1        0.0300
     32 H          -8.0590   13.6400   66.8030 H       1  UNL1        0.0300
     33 C          -4.5250    9.2110   66.6530 C.3     1  UNL1       -0.0330
     34 H          -5.4480    8.6830   66.4140 H       1  UNL1        0.0420
     35 C          -3.3790    8.5490   65.8250 C.3     1  UNL1       -0.0710
     36 H          -2.4480    8.5980   66.3900 H       1  UNL1        0.0280
     37 H          -3.6290    7.5070   65.6280 H       1  UNL1        0.0280
     38 H          -3.2600    9.0810   64.8810 H       1  UNL1        0.0280
     39 C          -4.2700    9.0680   68.1880 C.3     1  UNL1       -0.0710
     40 H          -4.6600    8.1110   68.5340 H       1  UNL1        0.0280
     41 H          -3.1980    9.1150   68.3840 H       1  UNL1        0.0280
     42 H          -4.7720    9.8780   68.7160 H       1  UNL1        0.0280
     43 C          -8.3260   10.6570   62.9000 C.2     1  UNL1        0.2400
     44 O          -8.9330   10.5300   61.8860 O.2     1  UNL1       -0.2710
     45 N          -9.0100   11.1940   64.1110 N.am    1  UNL1       -0.3550
     46 H          -8.5060   11.3020   64.9790 H       1  UNL1        0.1620
     47 C         -10.4380   11.5720   64.0390 C.3     1  UNL1        0.0130
     48 H         -10.8360   11.2020   63.0940 H       1  UNL1        0.0720
     49 C         -10.5590   13.0790   64.0960 C.3     1  UNL1       -0.0380
     50 H          -9.6370   13.4310   64.5580 H       1  UNL1        0.0360
     51 H         -10.8160   13.3910   63.0830 H       1  UNL1        0.0360
     52 C         -11.7130   13.5530   65.0060 C.3     1  UNL1        0.0180
     53 H         -12.3960   14.0990   64.3550 H       1  UNL1        0.0480
     54 H         -12.0570   12.6640   65.5340 H       1  UNL1        0.0480
     55 C         -11.2710   14.5600   66.1040 C.2     1  UNL1        0.2590
     56 O         -11.3490   14.2710   67.2540 O.2     1  UNL1       -0.2650
     57 O         -10.7820   15.8390   65.7200 O.3     1  UNL1       -0.3170
     58 C          -9.4370   16.0970   66.1340 C.3     1  UNL1        0.0520
     59 H          -9.2700   15.4650   67.0060 H       1  UNL1        0.0820
     60 H          -8.8240   15.9670   65.2420 H       1  UNL1        0.0820
     61 C          -9.3480   17.5810   66.5780 C.ar    1  UNL1       -0.0340
     62 C          -8.1640   18.2900   66.4060 C.ar    1  UNL1       -0.0750
     63 C          -8.0840   19.6230   66.8060 C.ar    1  UNL1       -0.0820
     64 H          -7.2980   17.8020   65.9580 H       1  UNL1        0.0840
     65 C          -9.1940   20.2470   67.3820 C.ar    1  UNL1       -0.0830
     66 H          -7.1550   20.1770   66.6670 H       1  UNL1        0.0830
     67 C         -10.3730   19.5340   67.5540 C.ar    1  UNL1       -0.0820
     68 H          -9.1410   21.2890   67.6960 H       1  UNL1        0.0830
     69 C         -10.4580   18.2020   67.1540 C.ar    1  UNL1       -0.0750
     70 H         -11.2370   20.0230   68.0060 H       1  UNL1        0.0830
     71 H         -11.3880   17.6500   67.2920 H       1  UNL1        0.0840
     72 C         -11.1950   10.9550   65.2130 C.3     1  UNL1       -0.0390
     73 H         -11.7380   11.7810   65.6740 H       1  UNL1        0.0360
     74 H         -11.7430   10.1110   64.7930 H       1  UNL1        0.0360
     75 C         -10.1970   10.3690   66.3200 C.3     1  UNL1       -0.0010
     76 C          -9.9620    8.7610   66.0660 C.3     1  UNL1       -0.0350
     77 C         -10.1900    8.0980   67.2250 C.3     1  UNL1        0.0850
     78 H         -10.7290    8.3720   65.3960 H       1  UNL1        0.0360
     79 H          -8.9090    8.5640   65.8630 H       1  UNL1        0.0360
     80 N         -10.8740    9.0660   68.1600 N.4     1  UNL1       -0.0490
     81 H         -10.8850    7.2970   66.9720 H       1  UNL1        0.0750
     82 H          -9.2040    7.8590   67.6220 H       1  UNL1        0.0750
     83 C         -10.6720   10.5300   67.5100 C.3     1  UNL1        0.1930
     84 H         -11.8580    8.8380   68.1390 H       1  UNL1        0.2800
     85 H         -10.3660    9.0290   69.0330 H       1  UNL1        0.2800
     86 H          -9.9390   11.2230   67.9230 H       1  UNL1        0.1290
     87 H          -9.3070   10.9860   66.4430 H       1  UNL1        0.0460
     88 O         -11.9100   11.2420   67.5040 O.3     1  UNL1       -0.3690
     89 H         -11.7630   12.1380   67.1910 H       1  UNL1        0.2120
     90 C          -6.6360    8.8910   62.3100 C.3     1  UNL1       -0.0350
     91 H          -7.5120    8.7490   61.6770 H       1  UNL1        0.0370
     92 H          -5.6410    8.9180   61.8650 H       1  UNL1        0.0370
     93 C          -6.6320    7.7070   63.3290 C.3     1  UNL1       -0.0590
     94 H          -6.6010    8.1330   64.3310 H       1  UNL1        0.0380
     95 C          -7.9230    6.8330   63.2220 C.3     1  UNL1       -0.0730
     96 H          -7.9950    6.4120   62.2200 H       1  UNL1        0.0280
     97 H          -7.8770    6.0260   63.9530 H       1  UNL1        0.0280
     98 H          -8.7980    7.4530   63.4210 H       1  UNL1        0.0280
     99 C          -5.3770    6.8460   63.1610 C.3     1  UNL1       -0.0730
    100 H          -5.6660    5.8030   63.0320 H       1  UNL1        0.0280
    101 H          -4.8220    7.1800   62.2840 H       1  UNL1        0.0280
    102 H          -4.7490    6.9430   64.0460 H       1  UNL1        0.0280
@<TRIPOS>BOND
     1    91    90    1
     2    92    90    1
     3    44    43    2
     4    96    95    1
     5   101    99    1
     6    90     1    1
     7    90    93    1
     8     2     1    1
     9    43     1    1
    10    43    45   am
    11     1     3    1
    12   100    99    1
    13    51    49    1
    14    48    47    1
    15    99    93    1
    16    99   102    1
    17    95    93    1
    18    95    98    1
    19    95    97    1
    20    93    94    1
    21     5     4    2
    22    47    49    1
    23    47    45    1
    24    47    72    1
    25    49    50    1
    26    49    52    1
    27    45    46    1
    28     3     4   am
    29     3     6    1
    30    53    52    1
    31    74    72    1
    32     4     7    1
    33    38    35    1
    34    52    54    1
    35    52    55    1
    36    72    73    1
    37    72    75    1
    38    60    58    1
    39    78    76    1
    40    37    35    1
    41    57    55    1
    42    57    58    1
    43    35    36    1
    44    35    33    1
    45    79    76    1
    46    64    62    1
    47    76    75    1
    48    76    77    1
    49    55    56    2
    50    58    61    1
    51    58    59    1
    52     7     8    1
    53     7    33    1
    54     7     9    1
    55    75    87    1
    56    75    83    1
    57    62    61   ar
    58    62    63   ar
    59    34    33    1
    60    61    69   ar
    61    33    39    1
    62    66    63    1
    63    32    29    1
    64    63    65   ar
    65    81    77    1
    66     9    12    1
    67     9    10   am
    68    69    71    1
    69    69    67   ar
    70    89    88    1
    71    77    82    1
    72    77    80    1
    73    11    10    2
    74    65    67   ar
    75    65    68    1
    76    88    83    1
    77    83    86    1
    78    83    80    1
    79    67    70    1
    80    10    13    1
    81    30    29    1
    82    29    31    1
    83    29    13    1
    84    18    15    1
    85    84    80    1
    86    80    85    1
    87    39    41    1
    88    39    40    1
    89    39    42    1
    90    13    15    1
    91    13    14    1
    92    22    20    1
    93    28    25    1
    94    15    16   am
    95    20    21   ar
    96    20    19   ar
    97    25    26    1
    98    25    21    1
    99    25    27    1
   100    16    19    1
   101    16    17    2
   102    21    23   ar
   103    19    24   ar
   104    23    24   ar
@<TRIPOS>MOLECULE
crystal_redock_e8_er3_1.pdbqt
 102 104 0 0 0
SMALL
GASTEIGER

@<TRIPOS>ATOM
      1 C          -7.4210    9.6290   66.9190 C.3     1  UNL1        0.0890
      2 H          -7.2410    9.2260   65.9220 H       1  UNL1        0.0870
      3 N          -8.4780   10.6230   66.8050 N.am    1  UNL1       -0.3460
      4 C          -9.6870   10.3540   65.9450 C.2     1  UNL1        0.2410
      5 O          -9.7860    9.3310   65.3510 O.2     1  UNL1       -0.2710
      6 H          -8.3740   11.4870   67.3170 H       1  UNL1        0.1630
      7 C         -10.7750   11.3910   65.8440 C.3     1  UNL1        0.0920
      8 H         -11.7410   10.9140   66.0030 H       1  UNL1        0.0880
      9 N         -10.6020   12.3860   66.9060 N.am    1  UNL1       -0.3460
     10 C         -11.4270   12.3290   68.0880 C.2     1  UNL1        0.2400
     11 O         -12.2360   11.4900   68.1990 O.2     1  UNL1       -0.2710
     12 H          -9.9090   13.1170   66.8240 H       1  UNL1        0.1630
     13 C         -11.2410   13.3930   69.2140 C.3     1  UNL1        0.0860
     14 H         -10.2660   13.3290   69.6970 H       1  UNL1        0.0860
     15 N         -11.3290   14.7200   68.6280 N.am    1  UNL1       -0.3430
     16 C         -10.1120   15.3810   68.1530 C.2     1  UNL1        0.2730
     17 O          -9.0660   14.8370   68.2480 O.2     1  UNL1       -0.2660
     18 H         -12.2260   15.1780   68.5530 H       1  UNL1        0.1630
     19 C         -10.1900   16.7830   67.5300 C.ar    1  UNL1        0.1540
     20 C          -9.9370   18.0330   68.1790 C.ar    1  UNL1       -0.0170
     21 C         -10.1430   19.0100   67.1790 C.ar    1  UNL1        0.0770
     22 H          -9.6480   18.2050   69.2160 H       1  UNL1        0.0910
     23 O         -10.4740   18.3840   66.0880 O.2     1  UNL1       -0.2180
     24 N         -10.5090   17.0840   66.2680 N.ar    1  UNL1       -0.1230
     25 C         -10.0030   20.5170   67.3490 C.3     1  UNL1       -0.0290
     26 H         -10.9640   20.9420   67.6390 H       1  UNL1        0.0360
     27 H          -9.2640   20.7280   68.1220 H       1  UNL1        0.0360
     28 H          -9.6790   20.9610   66.4070 H       1  UNL1        0.0360
     29 C         -12.3140   13.2160   70.2580 C.3     1  UNL1       -0.0490
     30 H         -12.2970   14.0640   70.9440 H       1  UNL1        0.0300
     31 H         -13.2880   13.1610   69.7720 H       1  UNL1        0.0300
     32 H         -12.1320   12.2970   70.8140 H       1  UNL1        0.0300
     33 C         -10.6910   12.0960   64.4580 C.3     1  UNL1       -0.0330
     34 H          -9.8270   11.6890   63.9340 H       1  UNL1        0.0420
     35 C         -11.9520   11.7940   63.5900 C.3     1  UNL1       -0.0710
     36 H         -11.6410   11.3880   62.6270 H       1  UNL1        0.0280
     37 H         -12.5800   11.0660   64.1030 H       1  UNL1        0.0280
     38 H         -12.5140   12.7140   63.4320 H       1  UNL1        0.0280
     39 C         -10.4750   13.6340   64.6260 C.3     1  UNL1       -0.0710
     40 H          -9.4120   13.8620   64.5480 H       1  UNL1        0.0280
     41 H         -11.0180   14.1650   63.8430 H       1  UNL1        0.0280
     42 H         -10.8440   13.9490   65.6020 H       1  UNL1        0.0280
     43 C          -7.8780    8.5320   67.9220 C.2     1  UNL1        0.2400
     44 O          -7.6610    8.6650   69.0830 O.2     1  UNL1       -0.2710
     45 N          -8.5950    7.3180   67.4370 N.am    1  UNL1       -0.3550
     46 H          -8.7900    7.1960   66.4540 H       1  UNL1        0.1620
     47 C          -9.0240    6.2850   68.4040 C.3     1  UNL1        0.0130
     48 H          -8.4090    6.3860   69.2980 H       1  UNL1        0.0720
     49 C          -8.8280    4.9160   67.7930 C.3     1  UNL1       -0.0380
     50 H          -7.9370    4.9970   67.1690 H       1  UNL1        0.0360
     51 H          -8.8470    4.2160   68.6280 H       1  UNL1        0.0360
     52 C          -9.9830    4.5070   66.8540 C.3     1  UNL1        0.0180
     53 H         -10.1610    3.4490   67.0480 H       1  UNL1        0.0480
     54 H         -10.7770    5.2340   67.0290 H       1  UNL1        0.0480
     55 C          -9.6310    4.6130   65.3440 C.2     1  UNL1        0.2590
     56 O         -10.1870    3.9310   64.5460 O.2     1  UNL1       -0.2650
     57 O          -8.6240    5.5260   64.9260 O.3     1  UNL1       -0.3170
     58 C          -8.2590    5.4000   63.5490 C.3     1  UNL1        0.0520
     59 H          -7.6580    4.4940   63.4850 H       1  UNL1        0.0820
     60 H          -9.1910    5.4770   62.9890 H       1  UNL1        0.0820
     61 C          -7.3630    6.6120   63.1780 C.ar    1  UNL1       -0.0340
     62 C          -7.9430    7.8150   62.7890 C.ar    1  UNL1       -0.0750
     63 C          -7.1380    8.9030   62.4560 C.ar    1  UNL1       -0.0820
     64 H          -9.0280    7.9050   62.7460 H       1  UNL1        0.0840
     65 C          -5.7460    8.7840   62.5100 C.ar    1  UNL1       -0.0830
     66 H          -7.5960    9.8450   62.1540 H       1  UNL1        0.0830
     67 C          -5.1720    7.5810   62.8960 C.ar    1  UNL1       -0.0820
     68 H          -5.1100    9.6300   62.2520 H       1  UNL1        0.0830
     69 C          -5.9730    6.4910   63.2320 C.ar    1  UNL1       -0.0750
     70 H          -4.0860    7.4900   62.9350 H       1  UNL1        0.0830
     71 H          -5.5140    5.5500   63.5350 H       1  UNL1        0.0840
     72 C         -10.4990    6.4820   68.7500 C.3     1  UNL1       -0.0390
     73 H         -10.8930    7.1400   67.9750 H       1  UNL1        0.0360
     74 H         -10.9050    5.4780   68.8710 H       1  UNL1        0.0360
     75 C         -10.6830    7.2380   70.1500 C.3     1  UNL1       -0.0010
     76 C         -11.7570    6.4220   71.0910 C.3     1  UNL1       -0.0350
     77 C         -12.7000    7.2900   71.5310 C.3     1  UNL1        0.0850
     78 H         -12.3230    5.7160   70.4850 H       1  UNL1        0.0360
     79 H         -11.2710    6.0870   72.0080 H       1  UNL1        0.0360
     80 N         -12.5540    8.5510   70.7140 N.4     1  UNL1       -0.0490
     81 H         -13.6570    6.8230   71.2970 H       1  UNL1        0.0750
     82 H         -12.4370    7.5050   72.5660 H       1  UNL1        0.0750
     83 C         -11.1210    8.4410   69.9780 C.3     1  UNL1        0.1930
     84 H         -13.2800    8.5220   70.0110 H       1  UNL1        0.2800
     85 H         -12.5190    9.3160   71.3720 H       1  UNL1        0.2800
     86 H         -10.2690    9.0160   70.3380 H       1  UNL1        0.1290
     87 H          -9.7280    7.5050   70.6040 H       1  UNL1        0.0460
     88 O         -11.2510    8.7740   68.5950 O.3     1  UNL1       -0.3690
     89 H         -10.9140    9.6610   68.4470 H       1  UNL1        0.2120
     90 C          -6.1610   10.3030   67.4370 C.3     1  UNL1       -0.0350
     91 H          -5.8690    9.7310   68.3180 H       1  UNL1        0.0370
     92 H          -5.4900   10.3590   66.5790 H       1  UNL1        0.0370
     93 C          -6.3870   11.7710   67.9170 C.3     1  UNL1       -0.0590
     94 H          -7.3640   12.0910   67.5550 H       1  UNL1        0.0380
     95 C          -6.3960   11.8870   69.4760 C.3     1  UNL1       -0.0730
     96 H          -5.5030   12.4180   69.8050 H       1  UNL1        0.0280
     97 H          -7.2830   12.4340   69.7940 H       1  UNL1        0.0280
     98 H          -6.4080   10.8880   69.9130 H       1  UNL1        0.0280
     99 C          -5.3460   12.7130   67.3070 C.3     1  UNL1       -0.0730
    100 H          -5.7020   13.0710   66.3410 H       1  UNL1        0.0280
    101 H          -5.1890   13.5620   67.9740 H       1  UNL1        0.0280
    102 H          -4.4060   12.1780   67.1730 H       1  UNL1        0.0280
@<TRIPOS>BOND
     1    66    63    1
     2    68    65    1
     3    63    65   ar
     4    63    62   ar
     5    65    67   ar
     6    36    35    1
     7    64    62    1
     8    62    61   ar
     9    67    70    1
    10    67    69   ar
    11    60    58    1
    12    61    69   ar
    13    61    58    1
    14    69    71    1
    15    38    35    1
    16    59    58    1
    17    58    57    1
    18    35    37    1
    19    35    33    1
    20    41    39    1
    21    34    33    1
    22    33    39    1
    23    33     7    1
    24    56    55    2
    25    40    39    1
    26    39    42    1
    27    57    55    1
    28    55    52    1
    29     5     4    2
    30     7     4    1
    31     7     8    1
    32     7     9    1
    33     2     1    1
    34     4     3   am
    35    23    24   ar
    36    23    21   ar
    37    24    19   ar
    38   100    99    1
    39    28    25    1
    40    46    45    1
    41    92    90    1
    42     3     1    1
    43     3     6    1
    44    12     9    1
    45    52    54    1
    46    52    53    1
    47    52    49    1
    48     9    10   am
    49     1    90    1
    50     1    43    1
    51    50    49    1
    52   102    99    1
    53    21    25    1
    54    21    20   ar
    55    99    93    1
    56    99   101    1
    57    25    26    1
    58    25    27    1
    59    45    43   am
    60    45    47    1
    61    90    93    1
    62    90    91    1
    63    19    16    1
    64    19    20   ar
    65    94    93    1
    66    49    47    1
    67    49    51    1
    68    93    95    1
    69    43    44    2
    70    73    72    1
    71    10    11    2
    72    10    13    1
    73    16    17    2
    74    16    15   am
    75    20    22    1
    76    47    72    1
    77    47    48    1
    78    89    88    1
    79    18    15    1
    80    88    83    1
    81    15    13    1
    82    72    74    1
    83    72    75    1
    84    13    14    1
    85    13    29    1
    86    95    97    1
    87    95    96    1
    88    95    98    1
    89    31    29    1
    90    83    75    1
    91    83    86    1
    92    83    80    1
    93    84    80    1
    94    75    87    1
    95    75    76    1
    96    29    32    1
    97    29    30    1
    98    78    76    1
    99    80    85    1
   100    80    77    1
   101    76    77    1
   102    76    79    1
   103    81    77    1
   104    77    82    1
@<TRIPOS>MOLECULE
crystal_redock_e8_er3_1.pdbqt
 102 104 0 0 0
SMALL
GASTEIGER

@<TRIPOS>ATOM
      1 C          -7.5310   12.0740   67.9270 C.3     1  UNL1        0.0890
      2 H          -6.7930   11.7720   68.6710 H       1  UNL1        0.0870
      3 N          -6.9910   11.7480   66.6160 N.am    1  UNL1       -0.3460
      4 C          -6.1700   10.4980   66.4200 C.2     1  UNL1        0.2410
      5 O          -5.9540    9.7720   67.3340 O.2     1  UNL1       -0.2710
      6 H          -7.1830   12.3800   65.8520 H       1  UNL1        0.1630
      7 C          -5.6230   10.1720   65.0550 C.3     1  UNL1        0.0920
      8 H          -5.5540    9.0900   64.9450 H       1  UNL1        0.0880
      9 N          -6.5530   10.6540   64.0290 N.am    1  UNL1       -0.3460
     10 C          -7.6020    9.7910   63.5450 C.2     1  UNL1        0.2400
     11 O          -7.7120    8.7060   63.9700 O.2     1  UNL1       -0.2710
     12 H          -6.4690   11.5870   63.6510 H       1  UNL1        0.1630
     13 C          -8.5860   10.3080   62.4500 C.3     1  UNL1        0.0860
     14 H          -9.4440    9.6500   62.3100 H       1  UNL1        0.0860
     15 N          -9.1140   11.5980   62.8620 N.am    1  UNL1       -0.3430
     16 C         -10.1980   11.6530   63.8460 C.2     1  UNL1        0.2730
     17 O         -10.6410   10.6540   64.2970 O.2     1  UNL1       -0.2660
     18 H          -8.7320   12.4460   62.4700 H       1  UNL1        0.1630
     19 C         -10.7650   13.0100   64.2910 C.ar    1  UNL1        0.1540
     20 C         -10.1070   14.0040   65.0830 C.ar    1  UNL1       -0.0170
     21 C         -11.0470   15.0510   65.2080 C.ar    1  UNL1        0.0770
     22 H          -9.1010   13.9710   65.5020 H       1  UNL1        0.0910
     23 O         -12.1160   14.6910   64.5600 O.2     1  UNL1       -0.2180
     24 N         -11.9760   13.5030   64.0160 N.ar    1  UNL1       -0.1230
     25 C         -10.8460   16.3580   65.9620 C.3     1  UNL1       -0.0290
     26 H         -10.9410   16.1790   67.0330 H       1  UNL1        0.0360
     27 H          -9.8530   16.7530   65.7460 H       1  UNL1        0.0360
     28 H         -11.6000   17.0800   65.6460 H       1  UNL1        0.0360
     29 C          -7.8570   10.4430   61.1380 C.3     1  UNL1       -0.0490
     30 H          -7.5600    9.4560   60.7840 H       1  UNL1        0.0300
     31 H          -8.5130   10.9110   60.4040 H       1  UNL1        0.0300
     32 H          -6.9700   11.0600   61.2790 H       1  UNL1        0.0300
     33 C          -4.2430   10.8690   64.8690 C.3     1  UNL1       -0.0330
     34 H          -4.2750   11.8120   65.4140 H       1  UNL1        0.0420
     35 C          -3.0880   10.0140   65.4780 C.3     1  UNL1       -0.0710
     36 H          -3.4770    9.0400   65.7790 H       1  UNL1        0.0280
     37 H          -2.3050    9.8780   64.7330 H       1  UNL1        0.0280
     38 H          -2.6780   10.5260   66.3480 H       1  UNL1        0.0280
     39 C          -3.9770   11.1890   63.3630 C.3     1  UNL1       -0.0710
     40 H          -4.3460   12.1880   63.1330 H       1  UNL1        0.0280
     41 H          -2.9050   11.1440   63.1660 H       1  UNL1        0.0280
     42 H          -4.4920   10.4590   62.7400 H       1  UNL1        0.0280
     43 C          -8.8840   11.3280   68.1060 C.2     1  UNL1        0.2400
     44 O          -9.9010   11.8710   67.8170 O.2     1  UNL1       -0.2710
     45 N          -8.9110    9.9320   68.6290 N.am    1  UNL1       -0.3550
     46 H          -8.0530    9.4590   68.8730 H       1  UNL1        0.1620
     47 C         -10.2060    9.2360   68.7910 C.3     1  UNL1        0.0130
     48 H         -10.9860    9.9920   68.8720 H       1  UNL1        0.0720
     49 C         -10.1670    8.3970   70.0490 C.3     1  UNL1       -0.0380
     50 H         -10.8280    7.5510   69.8590 H       1  UNL1        0.0360
     51 H          -9.1110    8.2280   70.2570 H       1  UNL1        0.0360
     52 C         -10.7430    9.1340   71.2780 C.3     1  UNL1        0.0180
     53 H         -10.5620    8.4750   72.1280 H       1  UNL1        0.0480
     54 H         -10.3030   10.1310   71.2570 H       1  UNL1        0.0480
     55 C         -12.2810    9.3440   71.2180 C.2     1  UNL1        0.2590
     56 O         -13.0220    8.4690   71.5310 O.2     1  UNL1       -0.2650
     57 O         -12.7970   10.5920   70.7730 O.3     1  UNL1       -0.3170
     58 C         -13.1070   11.5050   71.8300 C.3     1  UNL1        0.0520
     59 H         -14.1760   11.3950   72.0110 H       1  UNL1        0.0820
     60 H         -12.3950   11.2880   72.6250 H       1  UNL1        0.0820
     61 C         -12.8420   12.9440   71.3130 C.ar    1  UNL1       -0.0340
     62 C         -13.4650   14.0290   71.9220 C.ar    1  UNL1       -0.0750
     63 C         -13.2270   15.3220   71.4580 C.ar    1  UNL1       -0.0820
     64 H         -14.1380   13.8660   72.7640 H       1  UNL1        0.0840
     65 C         -12.3650   15.5280   70.3770 C.ar    1  UNL1       -0.0830
     66 H         -13.7140   16.1700   71.9390 H       1  UNL1        0.0830
     67 C         -11.7490   14.4420   69.7700 C.ar    1  UNL1       -0.0820
     68 H         -12.1730   16.5350   70.0080 H       1  UNL1        0.0830
     69 C         -11.9820   13.1480   70.2320 C.ar    1  UNL1       -0.0750
     70 H         -11.0790   14.6060   68.9260 H       1  UNL1        0.0830
     71 H         -11.4930   12.3010   69.7510 H       1  UNL1        0.0840
     72 C         -10.4620    8.3350   67.5850 C.3     1  UNL1       -0.0390
     73 H         -11.5350    8.1370   67.5940 H       1  UNL1        0.0360
     74 H         -10.0100    8.8490   66.7370 H       1  UNL1        0.0360
     75 C          -9.7200    6.9230   67.7310 C.3     1  UNL1       -0.0010
     76 C          -8.2190    7.0080   67.0660 C.3     1  UNL1       -0.0350
     77 C          -8.0650    5.9750   66.2030 C.3     1  UNL1        0.0850
     78 H          -8.1420    7.8870   66.4280 H       1  UNL1        0.0360
     79 H          -7.4610    6.8180   67.8270 H       1  UNL1        0.0360
     80 N          -9.4350    5.3850   65.9720 N.4     1  UNL1       -0.0490
     81 H          -7.7100    6.4230   65.2740 H       1  UNL1        0.0750
     82 H          -7.4480    5.2470   66.7270 H       1  UNL1        0.0750
     83 C         -10.3790    5.9850   67.1370 C.3     1  UNL1        0.1930
     84 H          -9.7550    5.7420   65.0830 H       1  UNL1        0.2800
     85 H          -9.3450    4.3890   66.1130 H       1  UNL1        0.2800
     86 H         -10.6630    5.3700   67.9910 H       1  UNL1        0.1290
     87 H          -9.7930    6.5210   68.7420 H       1  UNL1        0.0460
     88 O         -11.6070    6.4570   66.5810 O.3     1  UNL1       -0.3690
     89 H         -12.1550    6.8220   67.2790 H       1  UNL1        0.2120
     90 C          -7.7600   13.5750   68.0090 C.3     1  UNL1       -0.0350
     91 H          -8.4760   13.8010   67.2190 H       1  UNL1        0.0370
     92 H          -8.0180   13.7710   69.0500 H       1  UNL1        0.0370
     93 C          -6.4840   14.4220   67.7040 C.3     1  UNL1       -0.0590
     94 H          -6.0240   14.0130   66.8040 H       1  UNL1        0.0380
     95 C          -6.8230   15.9210   67.4270 C.3     1  UNL1       -0.0730
     96 H          -7.4050   15.9980   66.5080 H       1  UNL1        0.0280
     97 H          -7.4030   16.3220   68.2590 H       1  UNL1        0.0280
     98 H          -5.8990   16.4890   67.3210 H       1  UNL1        0.0280
     99 C          -5.4600   14.2950   68.8350 C.3     1  UNL1       -0.0730
    100 H          -4.4780   14.0790   68.4140 H       1  UNL1        0.0280
    101 H          -5.4180   15.2310   69.3930 H       1  UNL1        0.0280
    102 H          -5.7550   13.4860   69.5030 H       1  UNL1        0.0280
@<TRIPOS>BOND
     1    31    29    1
     2    30    29    1
     3    29    32    1
     4    29    13    1
     5    14    13    1
     6    13    15    1
     7    13    10    1
     8    18    15    1
     9    42    39    1
    10    15    16   am
    11    40    39    1
    12    41    39    1
    13    39    33    1
    14    10    11    2
    15    10     9   am
    16    12     9    1
    17    16    19    1
    18    16    17    2
    19    24    19   ar
    20    24    23   ar
    21     9     7    1
    22    19    20   ar
    23    23    21   ar
    24    37    35    1
    25    33     7    1
    26    33    34    1
    27    33    35    1
    28     8     7    1
    29     7     4    1
    30    20    21   ar
    31    20    22    1
    32    84    80    1
    33    21    25    1
    34    81    77    1
    35    35    36    1
    36    35    38    1
    37    28    25    1
    38    27    25    1
    39     6     3    1
    40    25    26    1
    41    80    85    1
    42    80    77    1
    43    80    83    1
    44    77    82    1
    45    77    76    1
    46     4     3   am
    47     4     5    2
    48    78    76    1
    49    96    95    1
    50    88    83    1
    51    88    89    1
    52     3     1    1
    53    74    72    1
    54    94    93    1
    55    76    75    1
    56    76    79    1
    57    83    75    1
    58    83    86    1
    59    91    90    1
    60    98    95    1
    61    95    93    1
    62    95    97    1
    63    72    73    1
    64    72    75    1
    65    72    47    1
    66    93    90    1
    67    93    99    1
    68    75    87    1
    69    44    43    2
    70     1    90    1
    71     1    43    1
    72     1     2    1
    73    90    92    1
    74    43    45   am
    75   100    99    1
    76    45    47    1
    77    45    46    1
    78    47    48    1
    79    47    49    1
    80    99   101    1
    81    99   102    1
    82    70    67    1
    83    71    69    1
    84    67    69   ar
    85    67    65   ar
    86    50    49    1
    87    68    65    1
    88    49    51    1
    89    49    52    1
    90    69    61   ar
    91    65    63   ar
    92    57    55    1
    93    57    58    1
    94    55    52    1
    95    55    56    2
    96    54    52    1
    97    52    53    1
    98    61    58    1
    99    61    62   ar
   100    63    62   ar
   101    63    66    1
   102    58    59    1
   103    58    60    1
   104    62    64    1
@<TRIPOS>MOLECULE
crystal_redock_e8_er3_1.pdbqt
 102 104 0 0 0
SMALL
GASTEIGER

@<TRIPOS>ATOM
      1 C         -11.6270    7.8270   70.6150 C.3     1  UNL1        0.0890
      2 H         -12.5590    7.6050   70.0950 H       1  UNL1        0.0870
      3 N         -10.7910    6.6380   70.5410 N.am    1  UNL1       -0.3460
      4 C         -10.6560    5.8810   69.2440 C.2     1  UNL1        0.2410
      5 O         -11.2330    6.2450   68.2740 O.2     1  UNL1       -0.2710
      6 H         -10.3100    6.3430   71.3790 H       1  UNL1        0.1630
      7 C          -9.7820    4.6560   69.1850 C.3     1  UNL1        0.0920
      8 H         -10.3590    3.8220   68.7850 H       1  UNL1        0.0880
      9 N          -8.6680    4.8940   68.2620 N.am    1  UNL1       -0.3460
     10 C          -8.7370    4.4020   66.9080 C.2     1  UNL1        0.2400
     11 O          -9.6800    3.8110   66.5450 O.2     1  UNL1       -0.2710
     12 H          -7.8470    5.4010   68.5610 H       1  UNL1        0.1630
     13 C          -7.5470    4.6560   65.9310 C.3     1  UNL1        0.0860
     14 H          -7.5860    4.0220   65.0450 H       1  UNL1        0.0860
     15 N          -7.6070    6.0300   65.4620 N.am    1  UNL1       -0.3430
     16 C          -7.1620    6.3490   64.1040 C.2     1  UNL1        0.2730
     17 O          -6.7540    5.4940   63.3980 O.2     1  UNL1       -0.2660
     18 H          -7.9550    6.7560   66.0730 H       1  UNL1        0.1630
     19 C          -7.2220    7.7980   63.5940 C.ar    1  UNL1        0.1540
     20 C          -7.8560    8.2690   62.4020 C.ar    1  UNL1       -0.0170
     21 C          -7.6260    9.6630   62.3940 C.ar    1  UNL1        0.0770
     22 H          -8.4010    7.6890   61.6560 H       1  UNL1        0.0910
     23 O          -6.9390    9.9480   63.4610 O.2     1  UNL1       -0.2180
     24 N          -6.6910    8.8760   64.1780 N.ar    1  UNL1       -0.1230
     25 C          -8.0950   10.6490   61.3320 C.3     1  UNL1       -0.0290
     26 H          -8.1750   11.6440   61.7690 H       1  UNL1        0.0360
     27 H          -7.3760   10.6690   60.5120 H       1  UNL1        0.0360
     28 H          -9.0690   10.3390   60.9530 H       1  UNL1        0.0360
     29 C          -6.2430    4.4120   66.6480 C.3     1  UNL1       -0.0490
     30 H          -6.4340    3.8700   67.5750 H       1  UNL1        0.0300
     31 H          -5.5840    3.8220   66.0110 H       1  UNL1        0.0300
     32 H          -5.7710    5.3660   66.8770 H       1  UNL1        0.0300
     33 C          -9.2190    4.3500   70.6040 C.3     1  UNL1       -0.0330
     34 H          -9.5920    5.1220   71.2780 H       1  UNL1        0.0420
     35 C          -9.7320    2.9750   71.1350 C.3     1  UNL1       -0.0710
     36 H         -10.5970    2.6600   70.5520 H       1  UNL1        0.0280
     37 H          -8.9410    2.2320   71.0410 H       1  UNL1        0.0280
     38 H         -10.0160    3.0740   72.1820 H       1  UNL1        0.0280
     39 C          -7.6580    4.4150   70.6130 C.3     1  UNL1       -0.0710
     40 H          -7.3380    5.4540   70.6830 H       1  UNL1        0.0280
     41 H          -7.2760    3.8580   71.4690 H       1  UNL1        0.0280
     42 H          -7.2720    3.9760   69.6930 H       1  UNL1        0.0280
     43 C         -10.8600    9.0130   69.9650 C.2     1  UNL1        0.2400
     44 O          -9.9670    9.5340   70.5530 O.2     1  UNL1       -0.2710
     45 N         -11.2310    9.4960   68.6040 N.am    1  UNL1       -0.3550
     46 H         -11.9840    9.0590   68.0930 H       1  UNL1        0.1620
     47 C         -10.4910   10.6240   67.9990 C.3     1  UNL1        0.0130
     48 H         -10.0990   11.2400   68.8080 H       1  UNL1        0.0720
     49 C         -11.4340   11.4370   67.1410 C.3     1  UNL1       -0.0380
     50 H         -10.9730   11.4770   66.1530 H       1  UNL1        0.0360
     51 H         -12.4150   10.9800   67.2670 H       1  UNL1        0.0360
     52 C         -11.5690   12.8990   67.6190 C.3     1  UNL1        0.0180
     53 H         -12.6370   13.1180   67.6020 H       1  UNL1        0.0480
     54 H         -11.0160   12.9560   68.5570 H       1  UNL1        0.0480
     55 C         -10.9050   13.9330   66.6680 C.2     1  UNL1        0.2590
     56 O         -10.2340   13.5710   65.7560 O.2     1  UNL1       -0.2650
     57 O         -11.0970   15.3220   66.9060 O.3     1  UNL1       -0.3170
     58 C         -10.1770   15.8850   67.8460 C.3     1  UNL1        0.0520
     59 H         -10.6040   15.6900   68.8290 H       1  UNL1        0.0820
     60 H          -9.2010   15.4750   67.5850 H       1  UNL1        0.0820
     61 C         -10.1410   17.4200   67.6210 C.ar    1  UNL1       -0.0340
     62 C         -10.4820   17.9510   66.3810 C.ar    1  UNL1       -0.0750
     63 C         -10.4490   19.3300   66.1790 C.ar    1  UNL1       -0.0820
     64 H         -10.7750   17.2860   65.5680 H       1  UNL1        0.0840
     65 C         -10.0710   20.1790   67.2220 C.ar    1  UNL1       -0.0830
     66 H         -10.7200   19.7430   65.2070 H       1  UNL1        0.0830
     67 C          -9.7280   19.6450   68.4560 C.ar    1  UNL1       -0.0820
     68 H         -10.0430   21.2580   67.0720 H       1  UNL1        0.0830
     69 C          -9.7610   18.2670   68.6630 C.ar    1  UNL1       -0.0750
     70 H          -9.4310   20.3100   69.2680 H       1  UNL1        0.0830
     71 H          -9.4910   17.8550   69.6360 H       1  UNL1        0.0840
     72 C          -9.3490   10.0900   67.1370 C.3     1  UNL1       -0.0390
     73 H          -9.2530    9.0370   67.4030 H       1  UNL1        0.0360
     74 H          -9.6010   10.3720   66.1150 H       1  UNL1        0.0360
     75 C          -7.9560   10.7960   67.4940 C.3     1  UNL1       -0.0010
     76 C          -8.1550   11.8120   68.7720 C.3     1  UNL1       -0.0350
     77 C          -7.6500   13.0260   68.4470 C.3     1  UNL1        0.0850
     78 H          -9.2150   12.0100   68.9300 H       1  UNL1        0.0360
     79 H          -7.5300   11.4910   69.6060 H       1  UNL1        0.0360
     80 N          -7.4230   13.0250   66.9550 N.4     1  UNL1       -0.0490
     81 H          -8.4370   13.7420   68.6860 H       1  UNL1        0.0750
     82 H          -6.6870   13.0860   68.9530 H       1  UNL1        0.0750
     83 C          -7.5090   11.4800   66.4940 C.3     1  UNL1        0.1930
     84 H          -8.1990   13.5260   66.5470 H       1  UNL1        0.2800
     85 H          -6.4780   13.3510   66.8090 H       1  UNL1        0.2800
     86 H          -6.6040   10.9200   66.2600 H       1  UNL1        0.1290
     87 H          -7.1340   10.0830   67.5500 H       1  UNL1        0.0460
     88 O          -8.3430   11.3560   65.3400 O.3     1  UNL1       -0.3690
     89 H          -7.9490   10.7330   64.7260 H       1  UNL1        0.2120
     90 C         -11.9140    8.1420   72.0740 C.3     1  UNL1       -0.0350
     91 H         -11.9720    7.1740   72.5730 H       1  UNL1        0.0370
     92 H         -11.1500    8.8610   72.3700 H       1  UNL1        0.0370
     93 C         -13.2910    8.8410   72.3050 C.3     1  UNL1       -0.0590
     94 H         -13.4900    8.8350   73.3770 H       1  UNL1        0.0380
     95 C         -13.2840   10.3290   71.8300 C.3     1  UNL1       -0.0730
     96 H         -13.9140   10.4310   70.9470 H       1  UNL1        0.0280
     97 H         -13.6680   10.9670   72.6270 H       1  UNL1        0.0280
     98 H         -12.2640   10.6280   71.5860 H       1  UNL1        0.0280
     99 C         -14.4210    8.0590   71.6300 C.3     1  UNL1       -0.0730
    100 H         -15.3780    8.5260   71.8650 H       1  UNL1        0.0280
    101 H         -14.2710    8.0640   70.5500 H       1  UNL1        0.0280
    102 H         -14.4190    7.0320   71.9920 H       1  UNL1        0.0280
@<TRIPOS>BOND
     1    27    25    1
     2    28    25    1
     3    25    26    1
     4    25    21    1
     5    22    20    1
     6    21    20   ar
     7    21    23   ar
     8    20    19   ar
     9    17    16    2
    10    23    24   ar
    11    19    16    1
    12    19    24   ar
    13    16    15   am
    14    89    88    1
    15    14    13    1
    16    66    63    1
    17    88    83    1
    18    15    13    1
    19    15    18    1
    20    64    62    1
    21    56    55    2
    22    13    29    1
    23    13    10    1
    24    31    29    1
    25    74    72    1
    26    50    49    1
    27    63    62   ar
    28    63    65   ar
    29    86    83    1
    30    62    61   ar
    31    83    80    1
    32    83    75    1
    33    11    10    2
    34    84    80    1
    35    29    32    1
    36    29    30    1
    37    55    57    1
    38    55    52    1
    39    85    80    1
    40    57    58    1
    41    10     9   am
    42    80    77    1
    43    68    65    1
    44    72    73    1
    45    72    75    1
    46    72    47    1
    47    49    51    1
    48    49    52    1
    49    49    47    1
    50    65    67   ar
    51    75    87    1
    52    75    76    1
    53    60    58    1
    54    53    52    1
    55    52    54    1
    56    61    58    1
    57    61    69   ar
    58    58    59    1
    59    47    45    1
    60    47    48    1
    61    46    45    1
    62     9    12    1
    63     9     7    1
    64     5     4    2
    65    77    81    1
    66    77    76    1
    67    77    82    1
    68    67    69   ar
    69    67    70    1
    70    45    43   am
    71    69    71    1
    72    76    78    1
    73    76    79    1
    74     8     7    1
    75     7     4    1
    76     7    33    1
    77     4     3   am
    78    42    39    1
    79    43    44    2
    80    43     1    1
    81     2     1    1
    82     3     1    1
    83     3     6    1
    84   101    99    1
    85    36    35    1
    86    33    39    1
    87    33    35    1
    88    33    34    1
    89    39    40    1
    90    39    41    1
    91     1    90    1
    92    96    95    1
    93    37    35    1
    94    35    38    1
    95    98    95    1
    96    99   100    1
    97    99   102    1
    98    99    93    1
    99    95    93    1
   100    95    97    1
   101    90    93    1
   102    90    92    1
   103    90    91    1
   104    93    94    1
@<TRIPOS>MOLECULE
crystal_redock_e8_er3_1.pdbqt
 102 104 0 0 0
SMALL
GASTEIGER

@<TRIPOS>ATOM
      1 C          -9.5000    9.7190   69.3450 C.3     1  UNL1        0.0890
      2 H          -8.9640    8.8170   69.6420 H       1  UNL1        0.0870
      3 N          -8.5690   10.8340   69.4400 N.am    1  UNL1       -0.3460
      4 C          -7.0920   10.6110   69.2370 C.2     1  UNL1        0.2410
      5 O          -6.6750    9.5250   69.0010 O.2     1  UNL1       -0.2710
      6 H          -8.9440   11.7500   69.6440 H       1  UNL1        0.1630
      7 C          -6.1430   11.7770   69.3340 C.3     1  UNL1        0.0920
      8 H          -5.5550   11.8380   68.4170 H       1  UNL1        0.0880
      9 N          -6.9080   13.0230   69.4410 N.am    1  UNL1       -0.3460
     10 C          -6.9450   13.9440   68.3310 C.2     1  UNL1        0.2400
     11 O          -6.3630   13.6990   67.3460 O.2     1  UNL1       -0.2710
     12 H          -7.4140   13.2490   70.2850 H       1  UNL1        0.1630
     13 C          -7.7590   15.2700   68.4520 C.3     1  UNL1        0.0860
     14 H          -8.2080   15.5760   67.5080 H       1  UNL1        0.0860
     15 N          -8.8530   15.0670   69.3880 N.am    1  UNL1       -0.3430
     16 C         -10.2190   15.4110   68.9850 C.2     1  UNL1        0.2730
     17 O         -10.4260   15.8520   67.9080 O.2     1  UNL1       -0.2660
     18 H          -8.6660   14.6920   70.3070 H       1  UNL1        0.1630
     19 C         -11.3850   15.2000   69.9630 C.ar    1  UNL1        0.1540
     20 C         -11.6630   15.9480   71.1510 C.ar    1  UNL1       -0.0170
     21 C         -12.8330   15.3630   71.6840 C.ar    1  UNL1        0.0770
     22 H         -11.1010   16.7870   71.5640 H       1  UNL1        0.0910
     23 O         -13.1800   14.3950   70.8870 O.2     1  UNL1       -0.2180
     24 N         -12.3500   14.2800   69.8760 N.ar    1  UNL1       -0.1230
     25 C         -13.5560   15.7890   72.9550 C.3     1  UNL1       -0.0290
     26 H         -14.0110   14.9160   73.4240 H       1  UNL1        0.0360
     27 H         -12.8430   16.2410   73.6440 H       1  UNL1        0.0360
     28 H         -14.3320   16.5140   72.7070 H       1  UNL1        0.0360
     29 C          -6.8570   16.3730   68.9440 C.3     1  UNL1       -0.0490
     30 H          -6.2660   16.7570   68.1120 H       1  UNL1        0.0300
     31 H          -7.4620   17.1780   69.3620 H       1  UNL1        0.0300
     32 H          -6.1900   15.9820   69.7120 H       1  UNL1        0.0300
     33 C          -5.2460   11.6130   70.5950 C.3     1  UNL1       -0.0330
     34 H          -5.6780   10.8200   71.2050 H       1  UNL1        0.0420
     35 C          -3.7990   11.1730   70.2100 C.3     1  UNL1       -0.0710
     36 H          -3.5400   11.5890   69.2360 H       1  UNL1        0.0280
     37 H          -3.0970   11.5400   70.9580 H       1  UNL1        0.0280
     38 H          -3.7490   10.0860   70.1660 H       1  UNL1        0.0280
     39 C          -5.2320   12.9230   71.4460 C.3     1  UNL1       -0.0710
     40 H          -4.4600   12.8510   72.2120 H       1  UNL1        0.0280
     41 H          -5.0230   13.7750   70.7980 H       1  UNL1        0.0280
     42 H          -6.2030   13.0580   71.9210 H       1  UNL1        0.0280
     43 C         -10.0260    9.6360   67.8840 C.2     1  UNL1        0.2400
     44 O         -11.1910    9.5150   67.6810 O.2     1  UNL1       -0.2710
     45 N          -9.0780    9.7170   66.7360 N.am    1  UNL1       -0.3550
     46 H          -8.0870    9.8250   66.8960 H       1  UNL1        0.1620
     47 C          -9.5940    9.6380   65.3520 C.3     1  UNL1        0.0130
     48 H         -10.5910    9.2000   65.3910 H       1  UNL1        0.0720
     49 C          -8.6780    8.7640   64.5260 C.3     1  UNL1       -0.0380
     50 H          -9.3120    7.9790   64.1140 H       1  UNL1        0.0360
     51 H          -8.1470    9.4430   63.8590 H       1  UNL1        0.0360
     52 C          -7.6000    8.0550   65.3750 C.3     1  UNL1        0.0180
     53 H          -6.6470    8.2940   64.9030 H       1  UNL1        0.0480
     54 H          -7.7890    8.3580   66.4050 H       1  UNL1        0.0480
     55 C          -7.7100    6.5050   65.3590 C.2     1  UNL1        0.2590
     56 O          -6.7420    5.8300   65.5000 O.2     1  UNL1       -0.2650
     57 O          -8.9810    5.8980   65.1590 O.3     1  UNL1       -0.3170
     58 C          -9.1370    4.6410   65.8240 C.3     1  UNL1        0.0520
     59 H          -9.8950    4.1000   65.2570 H       1  UNL1        0.0820
     60 H          -8.1320    4.2310   65.9190 H       1  UNL1        0.0820
     61 C          -9.6920    4.9180   67.2470 C.ar    1  UNL1       -0.0340
     62 C          -9.2330    4.1750   68.3300 C.ar    1  UNL1       -0.0750
     63 C          -9.7310    4.4240   69.6080 C.ar    1  UNL1       -0.0820
     64 H          -8.4830    3.3990   68.1770 H       1  UNL1        0.0840
     65 C         -10.6940    5.4180   69.8010 C.ar    1  UNL1       -0.0830
     66 H          -9.3680    3.8420   70.4550 H       1  UNL1        0.0830
     67 C         -11.1520    6.1540   68.7160 C.ar    1  UNL1       -0.0820
     68 H         -11.0890    5.6180   70.7970 H       1  UNL1        0.0830
     69 C         -10.6550    5.9110   67.4370 C.ar    1  UNL1       -0.0750
     70 H         -11.9050    6.9270   68.8690 H       1  UNL1        0.0830
     71 H         -11.0190    6.4940   66.5910 H       1  UNL1        0.0840
     72 C          -9.6520   11.0370   64.7420 C.3     1  UNL1       -0.0390
     73 H          -8.7580   11.5470   65.1010 H       1  UNL1        0.0360
     74 H          -9.7980   10.8810   63.6730 H       1  UNL1        0.0360
     75 C         -10.9150   11.8650   65.2760 C.3     1  UNL1       -0.0010
     76 C         -11.7830   12.4440   64.0050 C.3     1  UNL1       -0.0350
     77 C         -11.9820   13.7720   64.1820 C.3     1  UNL1        0.0850
     78 H         -11.1890   12.3940   63.0930 H       1  UNL1        0.0360
     79 H         -12.7920   12.0300   64.0220 H       1  UNL1        0.0360
     80 N         -11.0530   14.2150   65.2860 N.4     1  UNL1       -0.0490
     81 H         -11.6710   14.2400   63.2470 H       1  UNL1        0.0750
     82 H         -13.0120   13.8690   64.5230 H       1  UNL1        0.0750
     83 C         -10.5450   12.8630   66.0070 C.3     1  UNL1        0.1930
     84 H         -10.2640   14.6560   64.8370 H       1  UNL1        0.2800
     85 H         -11.6170   14.7360   65.9420 H       1  UNL1        0.2800
     86 H         -10.9520   12.5630   66.9730 H       1  UNL1        0.1290
     87 H         -11.4650   11.3260   66.0480 H       1  UNL1        0.0460
     88 O          -9.1280   12.9030   66.1860 O.3     1  UNL1       -0.3690
     89 H          -8.9180   12.7550   67.1110 H       1  UNL1        0.2120
     90 C         -10.6630    9.9620   70.2940 C.3     1  UNL1       -0.0350
     91 H         -10.3270   10.7510   70.9670 H       1  UNL1        0.0370
     92 H         -11.5290   10.1250   69.6530 H       1  UNL1        0.0370
     93 C         -11.0050    8.7320   71.1940 C.3     1  UNL1       -0.0590
     94 H         -11.1290    7.8680   70.5400 H       1  UNL1        0.0380
     95 C          -9.8590    8.4030   72.2040 C.3     1  UNL1       -0.0730
     96 H         -10.2620    7.8230   73.0330 H       1  UNL1        0.0280
     97 H          -9.0840    7.8260   71.6980 H       1  UNL1        0.0280
     98 H          -9.4320    9.3320   72.5830 H       1  UNL1        0.0280
     99 C         -12.3330    8.9420   71.9260 C.3     1  UNL1       -0.0730
    100 H         -12.9300    8.0320   71.8650 H       1  UNL1        0.0280
    101 H         -12.1360    9.1800   72.9720 H       1  UNL1        0.0280
    102 H         -12.8760    9.7660   71.4630 H       1  UNL1        0.0280
@<TRIPOS>BOND
     1    78    76    1
     2    81    77    1
     3    74    72    1
     4    51    49    1
     5    76    79    1
     6    76    77    1
     7    76    75    1
     8    50    49    1
     9    77    82    1
    10    77    80    1
    11    49    47    1
    12    49    52    1
    13    72    73    1
    14    72    75    1
    15    72    47    1
    16    84    80    1
    17    53    52    1
    18    57    55    1
    19    57    58    1
    20    59    58    1
    21    75    83    1
    22    75    87    1
    23    80    85    1
    24    80    83    1
    25    47    48    1
    26    47    45    1
    27    55    52    1
    28    55    56    2
    29    52    54    1
    30    58    60    1
    31    58    61    1
    32    83    88    1
    33    83    86    1
    34    88    89    1
    35    71    69    1
    36    45    46    1
    37    45    43   am
    38    61    69   ar
    39    61    62   ar
    40    11    10    2
    41    69    67   ar
    42    14    13    1
    43    44    43    2
    44    43     1    1
    45    17    16    2
    46    30    29    1
    47    64    62    1
    48    62    63   ar
    49    10    13    1
    50    10     9   am
    51     8     7    1
    52    13    29    1
    53    13    15    1
    54    67    70    1
    55    67    65   ar
    56    29    31    1
    57    29    32    1
    58    16    15   am
    59    16    19    1
    60     5     4    2
    61    36    35    1
    62     4     7    1
    63     4     3   am
    64     7     9    1
    65     7    33    1
    66     1     3    1
    67     1     2    1
    68     1    90    1
    69    15    18    1
    70     3     6    1
    71     9    12    1
    72    63    65   ar
    73    63    66    1
    74    92    90    1
    75    65    68    1
    76    24    19   ar
    77    24    23   ar
    78    19    20   ar
    79    38    35    1
    80    35    33    1
    81    35    37    1
    82    90    91    1
    83    90    93    1
    84    94    93    1
    85    33    34    1
    86    33    39    1
    87    41    39    1
    88    23    21   ar
    89    20    22    1
    90    20    21   ar
    91    93    99    1
    92    93    95    1
    93    39    42    1
    94    39    40    1
    95   102    99    1
    96    21    25    1
    97    97    95    1
    98   100    99    1
    99    99   101    1
   100    95    98    1
   101    95    96    1
   102    28    25    1
   103    25    26    1
   104    25    27    1
@<TRIPOS>MOLECULE
crystal_redock_e8_er3_1.pdbqt
 102 104 0 0 0
SMALL
GASTEIGER

@<TRIPOS>ATOM
      1 C          -6.7530   12.6830   68.0820 C.3     1  UNL1        0.0890
      2 H          -6.0270   13.3270   67.5850 H       1  UNL1        0.0870
      3 N          -7.9880   13.4400   68.2210 N.am    1  UNL1       -0.3460
      4 C          -8.1860   14.7220   67.4510 C.2     1  UNL1        0.2410
      5 O          -7.3360   15.1250   66.7280 O.2     1  UNL1       -0.2710
      6 H          -8.6980   13.0810   68.8430 H       1  UNL1        0.1630
      7 C          -9.4730   15.4890   67.6020 C.3     1  UNL1        0.0920
      8 H         -10.1340   15.2490   66.7690 H       1  UNL1        0.0880
      9 N         -10.1530   15.0670   68.8300 N.am    1  UNL1       -0.3460
     10 C         -11.4890   14.5270   68.7650 C.2     1  UNL1        0.2400
     11 O         -12.0320   14.4260   67.7330 O.2     1  UNL1       -0.2710
     12 H          -9.6990   15.1490   69.7280 H       1  UNL1        0.1630
     13 C         -12.2090   14.0810   70.0760 C.3     1  UNL1        0.0860
     14 H         -13.2820   14.2740   70.0540 H       1  UNL1        0.0860
     15 N         -12.0480   12.6460   70.2380 N.am    1  UNL1       -0.3430
     16 C         -12.7720   11.9550   71.3070 C.2     1  UNL1        0.2730
     17 O         -13.4790   12.5630   72.0330 O.2     1  UNL1       -0.2660
     18 H         -11.4390   12.1350   69.6150 H       1  UNL1        0.1630
     19 C         -12.6110   10.4380   71.4890 C.ar    1  UNL1        0.1540
     20 C         -11.5000    9.6310   71.0870 C.ar    1  UNL1       -0.0170
     21 C         -11.8430    8.3180   71.4790 C.ar    1  UNL1        0.0770
     22 H         -10.5860    9.9490   70.5860 H       1  UNL1        0.0910
     23 O         -13.0150    8.3750   72.0420 O.2     1  UNL1       -0.2180
     24 N         -13.4840    9.6020   72.0590 N.ar    1  UNL1       -0.1230
     25 C         -10.9970    7.0680   71.2820 C.3     1  UNL1       -0.0290
     26 H         -10.5470    7.0860   70.2880 H       1  UNL1        0.0360
     27 H         -10.2100    7.0390   72.0360 H       1  UNL1        0.0360
     28 H         -11.6260    6.1830   71.3800 H       1  UNL1        0.0360
     29 C         -11.6080   14.8050   71.2530 C.3     1  UNL1       -0.0490
     30 H         -11.2390   15.7800   70.9320 H       1  UNL1        0.0300
     31 H         -12.3670   14.9400   72.0240 H       1  UNL1        0.0300
     32 H         -10.7810   14.2200   71.6550 H       1  UNL1        0.0300
     33 C          -9.1620   17.0130   67.6830 C.3     1  UNL1       -0.0330
     34 H          -8.6410   17.2910   66.7670 H       1  UNL1        0.0420
     35 C         -10.4720   17.8580   67.7530 C.3     1  UNL1       -0.0710
     36 H         -10.2910   18.8450   67.3270 H       1  UNL1        0.0280
     37 H         -11.2580   17.3570   67.1870 H       1  UNL1        0.0280
     38 H         -10.7820   17.9620   68.7920 H       1  UNL1        0.0280
     39 C          -8.2200   17.3280   68.8890 C.3     1  UNL1       -0.0710
     40 H          -8.5860   16.8180   69.7790 H       1  UNL1        0.0280
     41 H          -7.2110   16.9830   68.6620 H       1  UNL1        0.0280
     42 H          -8.2050   18.4030   69.0660 H       1  UNL1        0.0280
     43 C          -7.0510   11.3940   67.2640 C.2     1  UNL1        0.2400
     44 O          -6.6300   10.3470   67.6360 O.2     1  UNL1       -0.2710
     45 N          -7.8700   11.4640   66.0200 N.am    1  UNL1       -0.3550
     46 H          -8.2380   12.3470   65.6960 H       1  UNL1        0.1620
     47 C          -8.1460   10.2290   65.2540 C.3     1  UNL1        0.0130
     48 H          -7.9720    9.3790   65.9140 H       1  UNL1        0.0720
     49 C          -7.2150   10.1600   64.0650 C.3     1  UNL1       -0.0380
     50 H          -7.7870   10.5430   63.2200 H       1  UNL1        0.0360
     51 H          -6.3000   10.6630   64.3780 H       1  UNL1        0.0360
     52 C          -6.8140    8.7130   63.7010 C.3     1  UNL1        0.0180
     53 H          -5.8400    8.7890   63.2180 H       1  UNL1        0.0480
     54 H          -6.9230    8.1370   64.6200 H       1  UNL1        0.0480
     55 C          -7.7570    8.0450   62.6620 C.2     1  UNL1        0.2590
     56 O          -8.2260    8.6820   61.7760 O.2     1  UNL1       -0.2650
     57 O          -8.0650    6.6620   62.7890 O.3     1  UNL1       -0.3170
     58 C          -7.4350    6.0250   63.9040 C.3     1  UNL1        0.0520
     59 H          -7.0870    5.0600   63.5350 H       1  UNL1        0.0820
     60 H          -6.7190    6.7500   64.2920 H       1  UNL1        0.0820
     61 C          -8.5170    5.7760   64.9880 C.ar    1  UNL1       -0.0340
     62 C          -9.3360    4.6550   64.9090 C.ar    1  UNL1       -0.0750
     63 C         -10.3090    4.4310   65.8830 C.ar    1  UNL1       -0.0820
     64 H          -9.2160    3.9510   64.0860 H       1  UNL1        0.0840
     65 C         -10.4620    5.3350   66.9370 C.ar    1  UNL1       -0.0830
     66 H         -10.9480    3.5500   65.8200 H       1  UNL1        0.0830
     67 C          -9.6450    6.4550   67.0090 C.ar    1  UNL1       -0.0820
     68 H         -11.2200    5.1680   67.7020 H       1  UNL1        0.0830
     69 C          -8.6700    6.6810   66.0400 C.ar    1  UNL1       -0.0750
     70 H          -9.7680    7.1600   67.8320 H       1  UNL1        0.0830
     71 H          -8.0310    7.5620   66.1040 H       1  UNL1        0.0840
     72 C          -9.5940   10.2350   64.7690 C.3     1  UNL1       -0.0390
     73 H          -9.5840    9.6980   63.8200 H       1  UNL1        0.0360
     74 H         -10.1820    9.8540   65.6040 H       1  UNL1        0.0360
     75 C         -10.1110   11.7210   64.4650 C.3     1  UNL1       -0.0010
     76 C         -11.4000   12.0720   65.4240 C.3     1  UNL1       -0.0350
     77 C         -12.4080   12.5350   64.6470 C.3     1  UNL1        0.0850
     78 H         -11.8080   11.1560   65.8510 H       1  UNL1        0.0360
     79 H         -11.1670   12.9180   66.0700 H       1  UNL1        0.0360
     80 N         -12.0410   12.2250   63.2160 N.4     1  UNL1       -0.0490
     81 H         -13.2840   11.9470   64.9240 H       1  UNL1        0.0750
     82 H         -12.4110   13.6150   64.7870 H       1  UNL1        0.0750
     83 C         -10.4720   11.8480   63.2320 C.3     1  UNL1        0.1930
     84 H         -12.5670   11.4020   62.9570 H       1  UNL1        0.2800
     85 H         -12.1600   13.0840   62.6970 H       1  UNL1        0.2800
     86 H          -9.7270   12.5620   62.8800 H       1  UNL1        0.1290
     87 H          -9.2970   12.4450   64.4450 H       1  UNL1        0.0460
     88 O         -10.2440   10.6550   62.4780 O.3     1  UNL1       -0.3690
     89 H         -11.0220   10.0960   62.5210 H       1  UNL1        0.2120
     90 C          -6.2450   12.3050   69.4640 C.3     1  UNL1       -0.0350
     91 H          -7.0690   12.5220   70.1440 H       1  UNL1        0.0370
     92 H          -5.8730   11.2850   69.3660 H       1  UNL1        0.0370
     93 C          -5.0370   13.1710   69.9460 C.3     1  UNL1       -0.0590
     94 H          -4.5150   12.6080   70.7190 H       1  UNL1        0.0380
     95 C          -4.0190   13.4550   68.7940 C.3     1  UNL1       -0.0730
     96 H          -3.6850   12.5110   68.3640 H       1  UNL1        0.0280
     97 H          -4.5020   14.0560   68.0230 H       1  UNL1        0.0280
     98 H          -3.1620   13.9970   69.1940 H       1  UNL1        0.0280
     99 C          -5.5200   14.4770   70.5810 C.3     1  UNL1       -0.0730
    100 H          -6.0170   15.0870   69.8260 H       1  UNL1        0.0280
    101 H          -6.2200   14.2520   71.3860 H       1  UNL1        0.0280
    102 H          -4.6660   15.0220   70.9840 H       1  UNL1        0.0280
@<TRIPOS>BOND
     1    56    55    2
     2    88    89    1
     3    88    83    1
     4    55    57    1
     5    55    52    1
     6    85    80    1
     7    57    58    1
     8    86    83    1
     9    84    80    1
    10    80    83    1
    11    80    77    1
    12    53    52    1
    13    50    49    1
    14    83    75    1
    15    59    58    1
    16    52    49    1
    17    52    54    1
    18    73    72    1
    19    58    60    1
    20    58    61    1
    21    49    51    1
    22    49    47    1
    23    64    62    1
    24    87    75    1
    25    75    72    1
    26    75    76    1
    27    77    82    1
    28    77    81    1
    29    77    76    1
    30    72    47    1
    31    72    74    1
    32    62    61   ar
    33    62    63   ar
    34    61    69   ar
    35    47    48    1
    36    47    45    1
    37    76    78    1
    38    76    79    1
    39    46    45    1
    40    66    63    1
    41    63    65   ar
    42    45    43   am
    43    69    71    1
    44    69    67   ar
    45     5     4    2
    46    34    33    1
    47     8     7    1
    48    65    67   ar
    49    65    68    1
    50    67    70    1
    51    37    35    1
    52    43    44    2
    53    43     1    1
    54    36    35    1
    55     4     7    1
    56     4     3   am
    57     2     1    1
    58     7    33    1
    59     7     9    1
    60    33    35    1
    61    33    39    1
    62    11    10    2
    63    35    38    1
    64    97    95    1
    65     1     3    1
    66     1    90    1
    67     3     6    1
    68    96    95    1
    69    41    39    1
    70    10     9   am
    71    10    13    1
    72    95    98    1
    73    95    93    1
    74     9    12    1
    75    39    42    1
    76    39    40    1
    77    92    90    1
    78    90    93    1
    79    90    91    1
    80    18    15    1
    81   100    99    1
    82    93    99    1
    83    93    94    1
    84    14    13    1
    85    13    15    1
    86    13    29    1
    87    15    16   am
    88    26    25    1
    89    99   102    1
    90    99   101    1
    91    22    20    1
    92    30    29    1
    93    20    21   ar
    94    20    19   ar
    95    29    32    1
    96    29    31    1
    97    25    28    1
    98    25    21    1
    99    25    27    1
   100    16    19    1
   101    16    17    2
   102    21    23   ar
   103    19    24   ar
   104    23    24   ar
@<TRIPOS>MOLECULE
crystal_redock_e8_er3_1.pdbqt
 102 104 0 0 0
SMALL
GASTEIGER

@<TRIPOS>ATOM
      1 C         -10.5200    8.3230   68.6410 C.3     1  UNL1        0.0890
      2 H         -11.5140    8.1730   68.2180 H       1  UNL1        0.0870
      3 N          -9.5810    7.5550   67.8370 N.am    1  UNL1       -0.3460
      4 C         -10.0740    6.4440   66.9440 C.2     1  UNL1        0.2410
      5 O         -11.2310    6.1850   66.8920 O.2     1  UNL1       -0.2710
      6 H          -8.6010    7.7890   67.8980 H       1  UNL1        0.1630
      7 C          -9.0890    5.6630   66.1140 C.3     1  UNL1        0.0920
      8 H          -9.6070    5.2280   65.2590 H       1  UNL1        0.0880
      9 N          -8.0660    6.5710   65.5860 N.am    1  UNL1       -0.3460
     10 C          -7.6940    6.5040   64.1950 C.2     1  UNL1        0.2400
     11 O          -8.2060    5.7260   63.4860 O.2     1  UNL1       -0.2710
     12 H          -7.6150    7.2460   66.1860 H       1  UNL1        0.1630
     13 C          -6.6020    7.4710   63.6390 C.3     1  UNL1        0.0860
     14 H          -6.9540    8.0630   62.7940 H       1  UNL1        0.0860
     15 N          -6.2330    8.4140   64.6820 N.am    1  UNL1       -0.3430
     16 C          -6.4640    9.8450   64.4750 C.2     1  UNL1        0.2730
     17 O          -6.9450   10.2280   63.4650 O.2     1  UNL1       -0.2660
     18 H          -5.8200    8.0780   65.5400 H       1  UNL1        0.1630
     19 C          -6.0800   10.8530   65.5690 C.ar    1  UNL1        0.1540
     20 C          -6.9300   11.3900   66.5870 C.ar    1  UNL1       -0.0170
     21 C          -6.1020   12.2610   67.3300 C.ar    1  UNL1        0.0770
     22 H          -7.9850   11.1800   66.7610 H       1  UNL1        0.0910
     23 O          -4.9180   12.2210   66.7940 O.2     1  UNL1       -0.2180
     24 N          -4.8800   11.4070   65.7650 N.ar    1  UNL1       -0.1230
     25 C          -6.5200   13.0930   68.5360 C.3     1  UNL1       -0.0290
     26 H          -6.1450   12.6260   69.4470 H       1  UNL1        0.0360
     27 H          -6.1070   14.0970   68.4450 H       1  UNL1        0.0360
     28 H          -7.6080   13.1500   68.5790 H       1  UNL1        0.0360
     29 C          -5.3950    6.6770   63.2100 C.3     1  UNL1       -0.0490
     30 H          -4.5500    6.9240   63.8520 H       1  UNL1        0.0300
     31 H          -5.6140    5.6120   63.2900 H       1  UNL1        0.0300
     32 H          -5.1490    6.9210   62.1760 H       1  UNL1        0.0300
     33 C          -8.4090    4.5790   67.0010 C.3     1  UNL1       -0.0330
     34 H          -8.4220    4.9400   68.0290 H       1  UNL1        0.0420
     35 C          -9.2030    3.2360   66.9650 C.3     1  UNL1       -0.0710
     36 H          -9.7340    3.1020   67.9080 H       1  UNL1        0.0280
     37 H          -9.9200    3.2590   66.1450 H       1  UNL1        0.0280
     38 H          -8.5090    2.4080   66.8190 H       1  UNL1        0.0280
     39 C          -6.9190    4.3680   66.5820 C.3     1  UNL1       -0.0710
     40 H          -6.2850    5.0640   67.1300 H       1  UNL1        0.0280
     41 H          -6.6180    3.3450   66.8120 H       1  UNL1        0.0280
     42 H          -6.8140    4.5460   65.5120 H       1  UNL1        0.0280
     43 C         -10.0890    9.8180   68.6130 C.2     1  UNL1        0.2400
     44 O          -9.0380   10.1380   69.0670 O.2     1  UNL1       -0.2710
     45 N         -10.9820   10.8480   68.0110 N.am    1  UNL1       -0.3550
     46 H         -11.8750   10.5870   67.6180 H       1  UNL1        0.1620
     47 C         -10.5570   12.2650   67.9910 C.3     1  UNL1        0.0130
     48 H          -9.6250   12.3430   68.5500 H       1  UNL1        0.0720
     49 C         -11.6240   13.1160   68.6420 C.3     1  UNL1       -0.0380
     50 H         -12.1300   13.6310   67.8250 H       1  UNL1        0.0360
     51 H         -12.1830   12.4410   69.2910 H       1  UNL1        0.0360
     52 C         -11.0390   14.2150   69.5560 C.3     1  UNL1        0.0180
     53 H         -10.9300   13.7550   70.5380 H       1  UNL1        0.0480
     54 H         -10.1620   14.5970   69.0330 H       1  UNL1        0.0480
     55 C         -11.9830   15.4320   69.7540 C.2     1  UNL1        0.2590
     56 O         -12.7350   15.4690   70.6740 O.2     1  UNL1       -0.2650
     57 O         -11.9490   16.5010   68.8160 O.3     1  UNL1       -0.3170
     58 C         -10.8810   16.4100   67.8690 C.3     1  UNL1        0.0520
     59 H         -10.1110   15.8070   68.3490 H       1  UNL1        0.0820
     60 H         -11.3390   16.0710   66.9400 H       1  UNL1        0.0820
     61 C         -10.3170   17.8390   67.6450 C.ar    1  UNL1       -0.0340
     62 C         -10.4840   18.4690   66.4160 C.ar    1  UNL1       -0.0750
     63 C          -9.9770   19.7520   66.2140 C.ar    1  UNL1       -0.0820
     64 H         -11.0120   17.9580   65.6110 H       1  UNL1        0.0840
     65 C          -9.2990   20.4040   67.2470 C.ar    1  UNL1       -0.0830
     66 H         -10.1120   20.2440   65.2510 H       1  UNL1        0.0830
     67 C          -9.1330   19.7700   68.4710 C.ar    1  UNL1       -0.0820
     68 H          -8.9010   21.4080   67.0980 H       1  UNL1        0.0830
     69 C          -9.6390   18.4890   68.6770 C.ar    1  UNL1       -0.0750
     70 H          -8.6010   20.2810   69.2740 H       1  UNL1        0.0830
     71 H          -9.5050   17.9980   69.6420 H       1  UNL1        0.0840
     72 C         -10.3510   12.7210   66.5480 C.3     1  UNL1       -0.0390
     73 H         -10.7570   13.7320   66.5030 H       1  UNL1        0.0360
     74 H          -9.2960   12.5490   66.3370 H       1  UNL1        0.0360
     75 C         -11.1910   11.8280   65.5180 C.3     1  UNL1       -0.0010
     76 C         -10.1720   11.0730   64.4700 C.3     1  UNL1       -0.0350
     77 C         -10.5930   11.3110   63.2050 C.3     1  UNL1        0.0850
     78 H          -9.1890   11.5410   64.5040 H       1  UNL1        0.0360
     79 H         -10.2650    9.9920   64.5710 H       1  UNL1        0.0360
     80 N         -11.6100   12.4240   63.2800 N.4     1  UNL1       -0.0490
     81 H          -9.7140   11.6690   62.6680 H       1  UNL1        0.0750
     82 H         -11.0910   10.3960   62.8870 H       1  UNL1        0.0750
     83 C         -12.0160   12.5510   64.8370 C.3     1  UNL1        0.1930
     84 H         -11.1310   13.2690   63.0020 H       1  UNL1        0.2800
     85 H         -12.4180   12.1080   62.7620 H       1  UNL1        0.2800
     86 H         -12.9670   12.1570   65.1950 H       1  UNL1        0.1290
     87 H         -11.9350   11.2080   66.0190 H       1  UNL1        0.0460
     88 O         -11.9940   13.9210   65.2420 O.3     1  UNL1       -0.3690
     89 H         -12.5510   14.4370   64.6550 H       1  UNL1        0.2120
     90 C         -10.4860    7.8080   70.0710 C.3     1  UNL1       -0.0350
     91 H          -9.4510    7.5120   70.2470 H       1  UNL1        0.0370
     92 H         -10.9360    8.5970   70.6730 H       1  UNL1        0.0370
     93 C         -11.3540    6.5300   70.2980 C.3     1  UNL1       -0.0590
     94 H         -11.9540    6.3750   69.4010 H       1  UNL1        0.0380
     95 C         -10.4800    5.2530   70.5120 C.3     1  UNL1       -0.0730
     96 H          -9.7350    5.1860   69.7200 H       1  UNL1        0.0280
     97 H          -9.9780    5.3150   71.4790 H       1  UNL1        0.0280
     98 H         -11.1160    4.3690   70.4890 H       1  UNL1        0.0280
     99 C         -12.3250    6.7280   71.4650 C.3     1  UNL1       -0.0730
    100 H         -13.3500    6.6460   71.1040 H       1  UNL1        0.0280
    101 H         -12.1430    5.9640   72.2220 H       1  UNL1        0.0280
    102 H         -12.1710    7.7150   71.9020 H       1  UNL1        0.0280
@<TRIPOS>BOND
     1    32    29    1
     2    81    77    1
     3    85    80    1
     4    14    13    1
     5    82    77    1
     6    84    80    1
     7    77    80    1
     8    77    76    1
     9    29    31    1
    10    29    13    1
    11    29    30    1
    12    80    83    1
    13    17    16    2
    14    11    10    2
    15    13    10    1
    16    13    15    1
    17    10     9   am
    18    76    78    1
    19    76    79    1
    20    76    75    1
    21    16    15   am
    22    16    19    1
    23    89    88    1
    24    15    18    1
    25    83    86    1
    26    83    88    1
    27    83    75    1
    28    66    63    1
    29     8     7    1
    30    42    39    1
    31    75    87    1
    32    75    72    1
    33    19    24   ar
    34    19    20   ar
    35     9     7    1
    36     9    12    1
    37    64    62    1
    38    24    23   ar
    39     7     4    1
    40     7    33    1
    41    37    35    1
    42    63    62   ar
    43    63    65   ar
    44    74    72    1
    45    62    61   ar
    46    73    72    1
    47    72    47    1
    48    39    41    1
    49    39    33    1
    50    39    40    1
    51    20    22    1
    52    20    21   ar
    53    23    21   ar
    54    38    35    1
    55     5     4    2
    56    60    58    1
    57     4     3   am
    58    35    33    1
    59    35    36    1
    60    33    34    1
    61    68    65    1
    62    65    67   ar
    63    21    25    1
    64    46    45    1
    65    61    58    1
    66    61    69   ar
    67    50    49    1
    68     3     6    1
    69     3     1    1
    70    58    59    1
    71    58    57    1
    72    47    45    1
    73    47    48    1
    74    47    49    1
    75    45    43   am
    76     2     1    1
    77    27    25    1
    78    67    69   ar
    79    67    70    1
    80    25    28    1
    81    25    26    1
    82    43     1    1
    83    43    44    2
    84     1    90    1
    85    49    51    1
    86    49    52    1
    87    69    71    1
    88    57    55    1
    89    54    52    1
    90    94    93    1
    91    52    55    1
    92    52    53    1
    93    96    95    1
    94    55    56    2
    95    90    91    1
    96    90    93    1
    97    90    92    1
    98    93    95    1
    99    93    99    1
   100    98    95    1
   101    95    97    1
   102   100    99    1
   103    99   102    1
   104    99   101    1
@<TRIPOS>MOLECULE
crystal_redock_e8_er3_1.pdbqt
 102 104 0 0 0
SMALL
GASTEIGER

@<TRIPOS>ATOM
      1 C         -11.7630   10.6470   70.2050 C.3     1  UNL1        0.0890
      2 H         -10.9610   10.2510   70.8280 H       1  UNL1        0.0870
      3 N         -11.7490   12.0960   70.3400 N.am    1  UNL1       -0.3460
      4 C         -12.6020   12.7720   71.3830 C.2     1  UNL1        0.2410
      5 O         -13.2940   12.1290   72.1020 O.2     1  UNL1       -0.2710
      6 H         -11.1550   12.6250   69.7170 H       1  UNL1        0.1630
      7 C         -12.5710   14.2720   71.5130 C.3     1  UNL1        0.0920
      8 H         -11.6210   14.5740   71.9550 H       1  UNL1        0.0880
      9 N         -12.6420   14.8800   70.1810 N.am    1  UNL1       -0.3460
     10 C         -11.4290   15.2460   69.4900 C.2     1  UNL1        0.2400
     11 O         -10.3890   15.0600   69.9930 O.2     1  UNL1       -0.2710
     12 H         -13.5320   15.0480   69.7350 H       1  UNL1        0.1630
     13 C         -11.5110   15.8950   68.0740 C.3     1  UNL1        0.0860
     14 H         -12.1940   16.7430   68.0380 H       1  UNL1        0.0860
     15 N         -10.1980   16.4020   67.7110 N.am    1  UNL1       -0.3430
     16 C          -9.9750   17.8480   67.6500 C.2     1  UNL1        0.2730
     17 O         -10.8590   18.5950   67.8920 O.2     1  UNL1       -0.2660
     18 H          -9.4500   15.7570   67.5030 H       1  UNL1        0.1630
     19 C          -8.5920   18.3980   67.2690 C.ar    1  UNL1        0.1540
     20 C          -7.7610   17.9730   66.1850 C.ar    1  UNL1       -0.0170
     21 C          -6.6090   18.7860   66.2690 C.ar    1  UNL1        0.0770
     22 H          -7.9620   17.1930   65.4500 H       1  UNL1        0.0910
     23 O          -6.7700   19.5830   67.2850 O.2     1  UNL1       -0.2180
     24 N          -7.9200   19.3750   67.8850 N.ar    1  UNL1       -0.1230
     25 C          -5.4020   18.7390   65.3410 C.3     1  UNL1       -0.0290
     26 H          -5.7390   18.6070   64.3130 H       1  UNL1        0.0360
     27 H          -4.8440   19.6720   65.4240 H       1  UNL1        0.0360
     28 H          -4.7590   17.9050   65.6220 H       1  UNL1        0.0360
     29 C         -11.9620   14.8640   67.0710 C.3     1  UNL1       -0.0490
     30 H         -11.2310   14.0560   67.0260 H       1  UNL1        0.0300
     31 H         -12.9300   14.4620   67.3720 H       1  UNL1        0.0300
     32 H         -12.0500   15.3270   66.0880 H       1  UNL1        0.0300
     33 C         -13.7870   14.7450   72.3610 C.3     1  UNL1       -0.0330
     34 H         -14.1080   13.9030   72.9750 H       1  UNL1        0.0420
     35 C         -13.3910   15.9050   73.3270 C.3     1  UNL1       -0.0710
     36 H         -13.7440   16.8530   72.9200 H       1  UNL1        0.0280
     37 H         -13.8460   15.7370   74.3020 H       1  UNL1        0.0280
     38 H         -12.3070   15.9360   73.4310 H       1  UNL1        0.0280
     39 C         -14.9830   15.1560   71.4430 C.3     1  UNL1       -0.0710
     40 H         -14.7050   15.0140   70.3990 H       1  UNL1        0.0280
     41 H         -15.8500   14.5370   71.6760 H       1  UNL1        0.0280
     42 H         -15.2290   16.2040   71.6150 H       1  UNL1        0.0280
     43 C         -11.5730   10.2870   68.7030 C.2     1  UNL1        0.2400
     44 O         -11.9810   11.0220   67.8630 O.2     1  UNL1       -0.2710
     45 N         -10.8730    9.0300   68.3130 N.am    1  UNL1       -0.3550
     46 H         -10.5170    8.4010   69.0170 H       1  UNL1        0.1620
     47 C         -10.6980    8.7030   66.8810 C.3     1  UNL1        0.0130
     48 H         -11.6790    8.7420   66.4060 H       1  UNL1        0.0720
     49 C         -10.1170    7.3140   66.7530 C.3     1  UNL1       -0.0380
     50 H         -10.2200    7.0460   65.7010 H       1  UNL1        0.0360
     51 H          -9.1270    7.3660   67.2080 H       1  UNL1        0.0360
     52 C         -10.9090    6.2560   67.5530 C.3     1  UNL1        0.0180
     53 H         -11.3330    6.7870   68.4050 H       1  UNL1        0.0480
     54 H         -11.5660    5.7710   66.8300 H       1  UNL1        0.0480
     55 C         -10.0220    5.1280   68.1490 C.2     1  UNL1        0.2590
     56 O          -9.7370    4.1760   67.4970 O.2     1  UNL1       -0.2650
     57 O          -9.5630    5.2390   69.4910 O.3     1  UNL1       -0.3170
     58 C          -8.1580    5.4870   69.6070 C.3     1  UNL1        0.0520
     59 H          -7.8630    5.0650   70.5680 H       1  UNL1        0.0820
     60 H          -7.7150    5.1090   68.6860 H       1  UNL1        0.0820
     61 C          -7.9460    7.0230   69.6590 C.ar    1  UNL1       -0.0340
     62 C          -8.5240    7.7720   70.6790 C.ar    1  UNL1       -0.0750
     63 C          -8.3330    9.1520   70.7260 C.ar    1  UNL1       -0.0820
     64 H          -9.1270    7.2780   71.4410 H       1  UNL1        0.0840
     65 C          -7.5620    9.7840   69.7470 C.ar    1  UNL1       -0.0830
     66 H          -8.7860    9.7360   71.5270 H       1  UNL1        0.0830
     67 C          -6.9890    9.0330   68.7290 C.ar    1  UNL1       -0.0820
     68 H          -7.4070   10.8620   69.7760 H       1  UNL1        0.0830
     69 C          -7.1760    7.6530   68.6800 C.ar    1  UNL1       -0.0750
     70 H          -6.3900    9.5290   67.9660 H       1  UNL1        0.0830
     71 H          -6.7210    7.0690   67.8780 H       1  UNL1        0.0840
     72 C          -9.7540    9.7130   66.2320 C.3     1  UNL1       -0.0390
     73 H          -9.9430   10.6570   66.7440 H       1  UNL1        0.0360
     74 H          -8.7660    9.2570   66.2780 H       1  UNL1        0.0360
     75 C         -10.1000    9.9380   64.6840 C.3     1  UNL1       -0.0010
     76 C          -8.7920    9.5680   63.7590 C.3     1  UNL1       -0.0350
     77 C          -8.5450   10.6030   62.9200 C.3     1  UNL1        0.0850
     78 H          -7.8970    9.5230   64.3780 H       1  UNL1        0.0360
     79 H          -9.0310    8.7450   63.0850 H       1  UNL1        0.0360
     80 N          -9.3590   11.7740   63.4120 N.4     1  UNL1       -0.0490
     81 H          -7.4850   10.8300   63.0420 H       1  UNL1        0.0750
     82 H          -8.9260   10.2880   61.9490 H       1  UNL1        0.0750
     83 C         -10.4320   11.1640   64.4520 C.3     1  UNL1        0.1930
     84 H          -8.7230   12.3730   63.9190 H       1  UNL1        0.2800
     85 H          -9.8580   12.1330   62.6100 H       1  UNL1        0.2800
     86 H         -11.4750   11.0350   64.1610 H       1  UNL1        0.1290
     87 H         -11.0500    9.4830   64.4030 H       1  UNL1        0.0460
     88 O         -10.4630   11.9490   65.6450 O.3     1  UNL1       -0.3690
     89 H         -11.3750   12.1130   65.8960 H       1  UNL1        0.2120
     90 C         -13.1020   10.1160   70.6920 C.3     1  UNL1       -0.0350
     91 H         -13.4200   10.8070   71.4730 H       1  UNL1        0.0370
     92 H         -13.7080    9.9940   69.7930 H       1  UNL1        0.0370
     93 C         -13.0130    8.7070   71.3590 C.3     1  UNL1       -0.0590
     94 H         -12.9810    7.9650   70.5620 H       1  UNL1        0.0380
     95 C         -11.7170    8.5420   72.2150 C.3     1  UNL1       -0.0730
     96 H         -11.9750    8.5670   73.2740 H       1  UNL1        0.0280
     97 H         -11.2440    7.5880   71.9790 H       1  UNL1        0.0280
     98 H         -11.0260    9.3550   71.9900 H       1  UNL1        0.0280
     99 C         -14.2610    8.4200   72.1980 C.3     1  UNL1       -0.0730
    100 H         -13.9670    8.2200   73.2290 H       1  UNL1        0.0280
    101 H         -14.9240    9.2840   72.1700 H       1  UNL1        0.0280
    102 H         -14.7790    7.5510   71.7930 H       1  UNL1        0.0280
@<TRIPOS>BOND
     1    82    77    1
     2    85    80    1
     3    77    81    1
     4    77    80    1
     5    77    76    1
     6    79    76    1
     7    80    84    1
     8    80    83    1
     9    76    78    1
    10    76    75    1
    11    86    83    1
    12    26    25    1
    13    87    75    1
    14    83    75    1
    15    83    88    1
    16    75    72    1
    17    25    27    1
    18    25    28    1
    19    25    21    1
    20    22    20    1
    21    88    89    1
    22    50    49    1
    23    32    29    1
    24    20    21   ar
    25    20    19   ar
    26    72    74    1
    27    72    73    1
    28    72    47    1
    29    21    23   ar
    30    48    47    1
    31    49    47    1
    32    49    51    1
    33    49    52    1
    34    54    52    1
    35    47    45    1
    36    30    29    1
    37    29    31    1
    38    29    13    1
    39    19    16    1
    40    19    24   ar
    41    23    24   ar
    42    56    55    2
    43    18    15    1
    44    52    55    1
    45    52    53    1
    46    16    15   am
    47    16    17    2
    48    15    13    1
    49    44    43    2
    50    71    69    1
    51    70    67    1
    52    14    13    1
    53    13    10    1
    54    55    57    1
    55    45    43   am
    56    45    46    1
    57    69    67   ar
    58    69    61   ar
    59    60    58    1
    60    43     1    1
    61    67    65   ar
    62    10    11    2
    63    10     9   am
    64    57    58    1
    65    58    61    1
    66    58    59    1
    67    61    62   ar
    68     6     3    1
    69    12     9    1
    70    65    68    1
    71    65    63   ar
    72    92    90    1
    73     9     7    1
    74     1     3    1
    75     1    90    1
    76     1     2    1
    77     3     4   am
    78    40    39    1
    79    94    93    1
    80    62    63   ar
    81    62    64    1
    82    90    93    1
    83    90    91    1
    84    63    66    1
    85    93    99    1
    86    93    95    1
    87     4     7    1
    88     4     5    2
    89    39    42    1
    90    39    41    1
    91    39    33    1
    92     7     8    1
    93     7    33    1
    94   102    99    1
    95    97    95    1
    96    98    95    1
    97   101    99    1
    98    99   100    1
    99    95    96    1
   100    33    34    1
   101    33    35    1
   102    36    35    1
   103    35    38    1
   104    35    37    1
@<TRIPOS>MOLECULE
crystal_redock_e8_er3_1.pdbqt
 102 104 0 0 0
SMALL
GASTEIGER

@<TRIPOS>ATOM
      1 C         -11.5530    7.7990   70.5360 C.3     1  UNL1        0.0890
      2 H         -12.4720    7.5860   69.9880 H       1  UNL1        0.0870
      3 N         -10.7170    6.6100   70.4670 N.am    1  UNL1       -0.3460
      4 C         -10.6230    5.8170   69.1880 C.2     1  UNL1        0.2410
      5 O         -11.2320    6.1540   68.2270 O.2     1  UNL1       -0.2710
      6 H         -10.2080    6.3390   71.2970 H       1  UNL1        0.1630
      7 C          -9.7480    4.5930   69.1340 C.3     1  UNL1        0.0920
      8 H         -10.3150    3.7660   68.7070 H       1  UNL1        0.0880
      9 N          -8.6100    4.8440   68.2440 N.am    1  UNL1       -0.3460
     10 C          -8.6530    4.3900   66.8750 C.2     1  UNL1        0.2400
     11 O          -9.5940    3.8200   66.4740 O.2     1  UNL1       -0.2710
     12 H          -7.7910    5.3320   68.5760 H       1  UNL1        0.1630
     13 C          -7.4380    4.6570   65.9330 C.3     1  UNL1        0.0860
     14 H          -7.4590    4.0430   65.0330 H       1  UNL1        0.0860
     15 N          -7.4780    6.0420   65.4930 N.am    1  UNL1       -0.3430
     16 C          -7.0550    6.3790   64.1320 C.2     1  UNL1        0.2730
     17 O          -6.6820    5.5290   63.4000 O.2     1  UNL1       -0.2660
     18 H          -7.7960    6.7620   66.1270 H       1  UNL1        0.1630
     19 C          -7.0940    7.8390   63.6530 C.ar    1  UNL1        0.1540
     20 C          -7.9680    8.4030   62.6710 C.ar    1  UNL1       -0.0170
     21 C          -7.6010    9.7660   62.5980 C.ar    1  UNL1        0.0770
     22 H          -8.7490    7.9020   62.0980 H       1  UNL1        0.0910
     23 O          -6.6310    9.9510   63.4450 O.2     1  UNL1       -0.2180
     24 N          -6.3170    8.8410   64.0720 N.ar    1  UNL1       -0.1230
     25 C          -8.2280   10.8210   61.6970 C.3     1  UNL1       -0.0290
     26 H          -7.4410   11.3850   61.1950 H       1  UNL1        0.0360
     27 H          -8.8580   10.3350   60.9520 H       1  UNL1        0.0360
     28 H          -8.8340   11.5000   62.2970 H       1  UNL1        0.0360
     29 C          -6.1540    4.3880   66.6760 C.3     1  UNL1       -0.0490
     30 H          -5.9400    5.2220   67.3450 H       1  UNL1        0.0300
     31 H          -6.2550    3.4720   67.2570 H       1  UNL1        0.0300
     32 H          -5.3380    4.2780   65.9620 H       1  UNL1        0.0300
     33 C          -9.2230    4.2670   70.5630 C.3     1  UNL1       -0.0330
     34 H          -9.6870    4.9710   71.2520 H       1  UNL1        0.0420
     35 C          -9.6400    2.8300   71.0080 C.3     1  UNL1       -0.0710
     36 H          -9.8690    2.8330   72.0730 H       1  UNL1        0.0280
     37 H         -10.5210    2.5190   70.4480 H       1  UNL1        0.0280
     38 H          -8.8210    2.1380   70.8130 H       1  UNL1        0.0280
     39 C          -7.6740    4.4580   70.6470 C.3     1  UNL1       -0.0710
     40 H          -7.2730    4.6180   69.6460 H       1  UNL1        0.0280
     41 H          -7.4480    5.3240   71.2710 H       1  UNL1        0.0280
     42 H          -7.2210    3.5680   71.0820 H       1  UNL1        0.0280
     43 C         -10.7680    8.9930   69.9220 C.2     1  UNL1        0.2400
     44 O         -10.2730    9.8050   70.6360 O.2     1  UNL1       -0.2710
     45 N         -10.6260    9.1210   68.4430 N.am    1  UNL1       -0.3550
     46 H         -11.0380    8.4360   67.8270 H       1  UNL1        0.1620
     47 C          -9.8750   10.2620   67.8750 C.3     1  UNL1        0.0130
     48 H          -9.4400   10.8230   68.7030 H       1  UNL1        0.0720
     49 C         -10.8220   11.1440   67.0940 C.3     1  UNL1       -0.0380
     50 H         -10.1890   11.7670   66.4610 H       1  UNL1        0.0360
     51 H         -11.5480   10.4680   66.6420 H       1  UNL1        0.0360
     52 C         -11.6230   12.1080   67.9950 C.3     1  UNL1        0.0180
     53 H         -12.6520   11.7480   67.9700 H       1  UNL1        0.0480
     54 H         -11.0820   12.1480   68.9400 H       1  UNL1        0.0480
     55 C         -11.6680   13.5690   67.4650 C.2     1  UNL1        0.2590
     56 O         -11.4330   13.8040   66.3250 O.2     1  UNL1       -0.2650
     57 O         -11.9810   14.6260   68.3640 O.3     1  UNL1       -0.3170
     58 C         -11.0360   14.7870   69.4250 C.3     1  UNL1        0.0520
     59 H         -10.4280   13.8820   69.4190 H       1  UNL1        0.0820
     60 H         -10.5700   15.7580   69.2600 H       1  UNL1        0.0820
     61 C         -11.8220   14.8410   70.7620 C.ar    1  UNL1       -0.0340
     62 C         -12.7330   13.8370   71.0760 C.ar    1  UNL1       -0.0750
     63 C         -13.4390   13.8850   72.2770 C.ar    1  UNL1       -0.0820
     64 H         -12.8920   13.0120   70.3820 H       1  UNL1        0.0840
     65 C         -13.2350   14.9450   73.1650 C.ar    1  UNL1       -0.0830
     66 H         -14.1500   13.0960   72.5210 H       1  UNL1        0.0830
     67 C         -12.3280   15.9460   72.8460 C.ar    1  UNL1       -0.0820
     68 H         -13.7820   14.9900   74.1060 H       1  UNL1        0.0830
     69 C         -11.6180   15.9010   71.6480 C.ar    1  UNL1       -0.0750
     70 H         -12.1720   16.7730   73.5400 H       1  UNL1        0.0830
     71 H         -10.9060   16.6910   71.4050 H       1  UNL1        0.0840
     72 C          -8.7750    9.7460   66.9490 C.3     1  UNL1       -0.0390
     73 H          -8.8630    8.6600   66.9710 H       1  UNL1        0.0360
     74 H          -8.9110   10.2850   66.0110 H       1  UNL1        0.0360
     75 C          -7.3160   10.1140   67.4980 C.3     1  UNL1       -0.0010
     76 C          -7.4230   10.6690   69.0430 C.3     1  UNL1       -0.0350
     77 C          -6.7620   11.8480   69.1290 C.3     1  UNL1        0.0850
     78 H          -8.4540   10.9370   69.2730 H       1  UNL1        0.0360
     79 H          -6.8660   10.0150   69.7140 H       1  UNL1        0.0360
     80 N          -6.4940   12.3090   67.7160 N.4     1  UNL1       -0.0490
     81 H          -7.4600   12.5400   69.6020 H       1  UNL1        0.0750
     82 H          -5.8130   11.6150   69.6120 H       1  UNL1        0.0750
     83 C          -6.7600   11.0260   66.7730 C.3     1  UNL1        0.1930
     84 H          -7.1900   13.0110   67.5080 H       1  UNL1        0.2800
     85 H          -5.5120   12.5420   67.6730 H       1  UNL1        0.2800
     86 H          -5.9240   10.4640   66.3550 H       1  UNL1        0.1290
     87 H          -6.5910    9.3230   67.3040 H       1  UNL1        0.0460
     88 O          -7.5700   11.3950   65.6560 O.3     1  UNL1       -0.3690
     89 H          -7.2410   12.2140   65.2790 H       1  UNL1        0.2120
     90 C         -11.8780    8.0950   71.9910 C.3     1  UNL1       -0.0350
     91 H         -11.8150    7.1330   72.5020 H       1  UNL1        0.0370
     92 H         -11.2100    8.9080   72.2760 H       1  UNL1        0.0370
     93 C         -13.3320    8.6190   72.2150 C.3     1  UNL1       -0.0590
     94 H         -13.5580    8.5230   73.2770 H       1  UNL1        0.0380
     95 C         -13.4810   10.1260   71.8300 C.3     1  UNL1       -0.0730
     96 H         -13.4540   10.7350   72.7330 H       1  UNL1        0.0280
     97 H         -12.6620   10.4150   71.1720 H       1  UNL1        0.0280
     98 H         -14.4310   10.2770   71.3170 H       1  UNL1        0.0280
     99 C         -14.3460    7.7600   71.4550 C.3     1  UNL1       -0.0730
    100 H         -15.3520    7.9870   71.8090 H       1  UNL1        0.0280
    101 H         -14.2780    7.9760   70.3890 H       1  UNL1        0.0280
    102 H         -14.1290    6.7060   71.6260 H       1  UNL1        0.0280
@<TRIPOS>BOND
     1    27    25    1
     2    26    25    1
     3    25    28    1
     4    25    21    1
     5    22    20    1
     6    21    20   ar
     7    21    23   ar
     8    20    19   ar
     9    17    16    2
    10    23    24   ar
    11    19    24   ar
    12    19    16    1
    13    16    15   am
    14    14    13    1
    15    89    88    1
    16    15    13    1
    17    15    18    1
    18    88    83    1
    19    13    29    1
    20    13    10    1
    21    32    29    1
    22    74    72    1
    23    56    55    2
    24    86    83    1
    25    50    49    1
    26    11    10    2
    27    51    49    1
    28    29    31    1
    29    29    30    1
    30    83    75    1
    31    83    80    1
    32    10     9   am
    33    72    73    1
    34    72    75    1
    35    72    47    1
    36    49    47    1
    37    49    52    1
    38    87    75    1
    39    55    52    1
    40    55    57    1
    41    75    76    1
    42    84    80    1
    43    85    80    1
    44    80    77    1
    45    46    45    1
    46    47    45    1
    47    47    48    1
    48    53    52    1
    49    52    54    1
    50     5     4    2
    51     9    12    1
    52     9     7    1
    53    57    58    1
    54    45    43   am
    55     8     7    1
    56    76    77    1
    57    76    78    1
    58    76    79    1
    59    77    81    1
    60    77    82    1
    61     7     4    1
    62     7    33    1
    63     4     3   am
    64    60    58    1
    65    59    58    1
    66    58    61    1
    67    40    39    1
    68    43     1    1
    69    43    44    2
    70     2     1    1
    71    64    62    1
    72   101    99    1
    73    37    35    1
    74     3     1    1
    75     3     6    1
    76     1    90    1
    77    33    39    1
    78    33    35    1
    79    33    34    1
    80    39    42    1
    81    39    41    1
    82    61    62   ar
    83    61    69   ar
    84    38    35    1
    85    35    36    1
    86    62    63   ar
    87    97    95    1
    88    98    95    1
    89    71    69    1
    90    99   102    1
    91    99   100    1
    92    99    93    1
    93    69    67   ar
    94    95    93    1
    95    95    96    1
    96    90    93    1
    97    90    92    1
    98    90    91    1
    99    93    94    1
   100    63    66    1
   101    63    65   ar
   102    67    65   ar
   103    67    70    1
   104    65    68    1
@<TRIPOS>MOLECULE
crystal_redock_e8_er3_1.pdbqt
 102 104 0 0 0
SMALL
GASTEIGER

@<TRIPOS>ATOM
      1 C          -8.5390    5.9680   68.3000 C.3     1  UNL1        0.0890
      2 H          -9.2970    5.6130   67.6020 H       1  UNL1        0.0870
      3 N          -7.3050    6.1530   67.5500 N.am    1  UNL1       -0.3460
      4 C          -7.1080    5.4610   66.2250 C.2     1  UNL1        0.2410
      5 O          -7.9560    4.7580   65.7830 O.2     1  UNL1       -0.2710
      6 H          -6.5950    6.7540   67.9450 H       1  UNL1        0.1630
      7 C          -5.8280    5.6690   65.4600 C.3     1  UNL1        0.0920
      8 H          -5.7520    4.9150   64.6760 H       1  UNL1        0.0880
      9 N          -5.8580    6.9780   64.8000 N.am    1  UNL1       -0.3460
     10 C          -5.5150    7.0890   63.4040 C.2     1  UNL1        0.2400
     11 O          -5.2110    6.1360   62.7960 O.2     1  UNL1       -0.2710
     12 H          -6.1170    7.8090   65.3120 H       1  UNL1        0.1630
     13 C          -5.5460    8.4860   62.7080 C.3     1  UNL1        0.0860
     14 H          -5.8040    8.4250   61.6510 H       1  UNL1        0.0860
     15 N          -6.5690    9.3030   63.3390 N.am    1  UNL1       -0.3430
     16 C          -7.9520    9.2240   62.8620 C.2     1  UNL1        0.2730
     17 O          -8.2300    8.5020   61.9690 O.2     1  UNL1       -0.2660
     18 H          -6.3220    9.9200   64.1000 H       1  UNL1        0.1630
     19 C          -9.0440   10.0820   63.5210 C.ar    1  UNL1        0.1540
     20 C          -9.6150   11.2920   63.0140 C.ar    1  UNL1       -0.0170
     21 C         -10.5650   11.6800   63.9860 C.ar    1  UNL1        0.0770
     22 H          -9.3780   11.8090   62.0850 H       1  UNL1        0.0910
     23 O         -10.5350   10.7900   64.9340 O.2     1  UNL1       -0.2180
     24 N          -9.6550    9.8470   64.6850 N.ar    1  UNL1       -0.1230
     25 C         -11.4580   12.9120   63.9320 C.3     1  UNL1       -0.0290
     26 H         -11.6690   13.1630   62.8920 H       1  UNL1        0.0360
     27 H         -12.3930   12.7060   64.4530 H       1  UNL1        0.0360
     28 H         -10.9520   13.7500   64.4120 H       1  UNL1        0.0360
     29 C          -4.1990    9.1480   62.8440 C.3     1  UNL1       -0.0490
     30 H          -4.3310   10.2260   62.9340 H       1  UNL1        0.0300
     31 H          -3.6950    8.7690   63.7330 H       1  UNL1        0.0300
     32 H          -3.5960    8.9290   61.9630 H       1  UNL1        0.0300
     33 C          -4.6220    5.6140   66.4430 C.3     1  UNL1       -0.0330
     34 H          -4.9720    5.1560   67.3680 H       1  UNL1        0.0420
     35 C          -3.4720    4.7200   65.8830 C.3     1  UNL1       -0.0710
     36 H          -3.7910    4.2640   64.9450 H       1  UNL1        0.0280
     37 H          -2.5880    5.3330   65.7060 H       1  UNL1        0.0280
     38 H          -3.2350    3.9390   66.6050 H       1  UNL1        0.0280
     39 C          -4.1090    7.0510   66.7790 C.3     1  UNL1       -0.0710
     40 H          -4.9580    7.7020   66.9830 H       1  UNL1        0.0280
     41 H          -3.4630    7.0110   67.6560 H       1  UNL1        0.0280
     42 H          -3.5460    7.4430   65.9310 H       1  UNL1        0.0280
     43 C          -8.9300    7.3250   68.9520 C.2     1  UNL1        0.2400
     44 O          -8.9660    7.4230   70.1360 O.2     1  UNL1       -0.2710
     45 N          -9.2520    8.5050   68.1010 N.am    1  UNL1       -0.3550
     46 H          -9.2200    8.4360   67.0940 H       1  UNL1        0.1620
     47 C          -9.6210    9.7890   68.7360 C.3     1  UNL1        0.0130
     48 H          -9.5240    9.6690   69.8150 H       1  UNL1        0.0720
     49 C         -11.0500   10.1300   68.3810 C.3     1  UNL1       -0.0380
     50 H         -11.0230   10.4730   67.3460 H       1  UNL1        0.0360
     51 H         -11.6370    9.2510   68.6490 H       1  UNL1        0.0360
     52 C         -11.6120   11.3010   69.2150 C.3     1  UNL1        0.0180
     53 H         -12.6620   11.0630   69.3890 H       1  UNL1        0.0480
     54 H         -10.9320   11.4150   70.0590 H       1  UNL1        0.0480
     55 C         -11.6000   12.6640   68.4680 C.2     1  UNL1        0.2590
     56 O         -11.9890   12.7410   67.3480 O.2     1  UNL1       -0.2650
     57 O         -11.1070   13.8200   69.1350 O.3     1  UNL1       -0.3170
     58 C         -12.0060   14.9320   69.1140 C.3     1  UNL1        0.0520
     59 H         -11.4240   15.7750   68.7410 H       1  UNL1        0.0820
     60 H         -12.8840   14.5920   68.5660 H       1  UNL1        0.0820
     61 C         -12.4280   15.2350   70.5770 C.ar    1  UNL1       -0.0340
     62 C         -13.6280   14.7360   71.0730 C.ar    1  UNL1       -0.0750
     63 C         -14.0070   15.0080   72.3870 C.ar    1  UNL1       -0.0820
     64 H         -14.2710   14.1320   70.4330 H       1  UNL1        0.0840
     65 C         -13.1820   15.7850   73.2040 C.ar    1  UNL1       -0.0830
     66 H         -14.9470   14.6130   72.7730 H       1  UNL1        0.0830
     67 C         -11.9870   16.2830   72.7040 C.ar    1  UNL1       -0.0820
     68 H         -13.4700   16.0010   74.2330 H       1  UNL1        0.0830
     69 C         -11.6030   16.0120   71.3920 C.ar    1  UNL1       -0.0750
     70 H         -11.3460   16.8910   73.3440 H       1  UNL1        0.0830
     71 H         -10.6620   16.4060   71.0060 H       1  UNL1        0.0840
     72 C          -8.6940   10.8960   68.2390 C.3     1  UNL1       -0.0390
     73 H          -9.2220   11.3670   67.4100 H       1  UNL1        0.0360
     74 H          -8.4400   11.4800   69.1240 H       1  UNL1        0.0360
     75 C          -7.3250   10.3050   67.6540 C.3     1  UNL1       -0.0010
     76 C          -6.1330   10.4340   68.7790 C.3     1  UNL1       -0.0350
     77 C          -5.0600   11.0360   68.2110 C.3     1  UNL1        0.0850
     78 H          -6.4310   11.1310   69.5610 H       1  UNL1        0.0360
     79 H          -5.7590    9.4440   69.0430 H       1  UNL1        0.0360
     80 N          -5.5260   11.6230   66.9000 N.4     1  UNL1       -0.0490
     81 H          -4.7890   11.8470   68.8880 H       1  UNL1        0.0750
     82 H          -4.3500   10.2340   68.0090 H       1  UNL1        0.0750
     83 C          -6.9570   10.9430   66.5920 C.3     1  UNL1        0.1930
     84 H          -5.6670   12.6100   67.0630 H       1  UNL1        0.2800
     85 H          -4.8660   11.3160   66.1990 H       1  UNL1        0.2800
     86 H          -7.0450   10.1530   65.8460 H       1  UNL1        0.1290
     87 H          -7.4630    9.3300   67.1860 H       1  UNL1        0.0460
     88 O          -7.9040   11.9400   66.2070 O.3     1  UNL1       -0.3690
     89 H          -7.4420   12.7520   65.9870 H       1  UNL1        0.2120
     90 C          -8.3090    4.9270   69.3840 C.3     1  UNL1       -0.0350
     91 H          -7.3850    4.4190   69.1050 H       1  UNL1        0.0370
     92 H          -8.3670    5.4740   70.3260 H       1  UNL1        0.0370
     93 C          -9.4170    3.8280   69.4430 C.3     1  UNL1       -0.0590
     94 H         -10.3830    4.3300   69.3970 H       1  UNL1        0.0380
     95 C          -9.3350    2.8430   68.2330 C.3     1  UNL1       -0.0730
     96 H          -8.3440    2.3890   68.2020 H       1  UNL1        0.0280
     97 H         -10.0890    2.0640   68.3470 H       1  UNL1        0.0280
     98 H          -9.5140    3.3890   67.3070 H       1  UNL1        0.0280
     99 C          -9.3630    3.0670   70.7700 C.3     1  UNL1       -0.0730
    100 H          -8.3930    2.5790   70.8690 H       1  UNL1        0.0280
    101 H          -9.5050    3.7660   71.5950 H       1  UNL1        0.0280
    102 H         -10.1520    2.3160   70.7900 H       1  UNL1        0.0280
@<TRIPOS>BOND
     1    14    13    1
     2    32    29    1
     3    17    16    2
     4    22    20    1
     5    13    29    1
     6    13    15    1
     7    13    10    1
     8    11    10    2
     9    29    30    1
    10    29    31    1
    11    16    15   am
    12    16    19    1
    13    26    25    1
    14    20    19   ar
    15    20    21   ar
    16    15    18    1
    17    10     9   am
    18    19    24   ar
    19    25    21    1
    20    25    28    1
    21    25    27    1
    22    21    23   ar
    23     8     7    1
    24    24    23   ar
    25     9    12    1
    26     9     7    1
    27    36    35    1
    28     7     4    1
    29     7    33    1
    30    37    35    1
    31     5     4    2
    32    86    83    1
    33    35    33    1
    34    35    38    1
    35    42    39    1
    36    89    88    1
    37    85    80    1
    38    88    83    1
    39     4     3   am
    40    33    39    1
    41    33    34    1
    42    83    80    1
    43    83    75    1
    44    39    40    1
    45    39    41    1
    46    80    84    1
    47    80    77    1
    48    46    45    1
    49    87    75    1
    50    98    95    1
    51    50    49    1
    52    56    55    2
    53    73    72    1
    54     3     6    1
    55     3     1    1
    56     2     1    1
    57    75    72    1
    58    75    76    1
    59    82    77    1
    60    45    47    1
    61    45    43   am
    62    96    95    1
    63    77    76    1
    64    77    81    1
    65    95    97    1
    66    95    93    1
    67    72    47    1
    68    72    74    1
    69     1    43    1
    70     1    90    1
    71    49    51    1
    72    49    47    1
    73    49    52    1
    74    55    57    1
    75    55    52    1
    76    60    58    1
    77    47    48    1
    78    59    58    1
    79    76    79    1
    80    76    78    1
    81    43    44    2
    82    91    90    1
    83    58    57    1
    84    58    61    1
    85    52    53    1
    86    52    54    1
    87    90    93    1
    88    90    92    1
    89    94    93    1
    90    93    99    1
    91    64    62    1
    92    61    62   ar
    93    61    69   ar
    94    99   102    1
    95    99   100    1
    96    99   101    1
    97    71    69    1
    98    62    63   ar
    99    69    67   ar
   100    63    66    1
   101    63    65   ar
   102    67    65   ar
   103    67    70    1
   104    65    68    1
@<TRIPOS>MOLECULE
crystal_redock_e8_er3_1.pdbqt
 102 104 0 0 0
SMALL
GASTEIGER

@<TRIPOS>ATOM
      1 C          -9.6620    6.4570   69.1000 C.3     1  UNL1        0.0890
      2 H         -10.5920    6.0060   68.7530 H       1  UNL1        0.0870
      3 N          -8.7340    6.4660   67.9790 N.am    1  UNL1       -0.3460
      4 C          -8.8260    5.4110   66.9060 C.2     1  UNL1        0.2410
      5 O          -9.6540    4.5630   66.9670 O.2     1  UNL1       -0.2710
      6 H          -8.0360    7.1950   67.9470 H       1  UNL1        0.1630
      7 C          -7.8610    5.4400   65.7500 C.3     1  UNL1        0.0920
      8 H          -8.1790    4.7160   64.9990 H       1  UNL1        0.0880
      9 N          -7.8930    6.7620   65.1180 N.am    1  UNL1       -0.3460
     10 C          -8.0950    6.8750   63.6940 C.2     1  UNL1        0.2400
     11 O          -8.2310    5.9130   63.0420 O.2     1  UNL1       -0.2710
     12 H          -7.7750    7.6010   65.6670 H       1  UNL1        0.1630
     13 C          -8.1250    8.2850   63.0270 C.3     1  UNL1        0.0860
     14 H          -8.5310    8.2650   62.0160 H       1  UNL1        0.0860
     15 N          -8.9910    9.1560   63.8040 N.am    1  UNL1       -0.3430
     16 C          -9.5060   10.3870   63.2000 C.2     1  UNL1        0.2730
     17 O          -9.2160   10.6690   62.0900 O.2     1  UNL1       -0.2660
     18 H          -9.2310    8.9100   64.7540 H       1  UNL1        0.1630
     19 C         -10.4230   11.3160   64.0100 C.ar    1  UNL1        0.1540
     20 C         -10.9890   12.5600   63.5830 C.ar    1  UNL1       -0.0170
     21 C         -11.7470   13.0120   64.6870 C.ar    1  UNL1        0.0770
     22 H         -10.8690   13.0570   62.6210 H       1  UNL1        0.0910
     23 O         -11.6250   12.1250   65.6300 O.2     1  UNL1       -0.2180
     24 N         -10.8570   11.1260   65.2600 N.ar    1  UNL1       -0.1230
     25 C         -12.5570   14.3000   64.7570 C.3     1  UNL1       -0.0290
     26 H         -13.0560   14.3640   65.7240 H       1  UNL1        0.0360
     27 H         -11.8920   15.1550   64.6340 H       1  UNL1        0.0360
     28 H         -13.3040   14.3040   63.9620 H       1  UNL1        0.0360
     29 C          -6.7290    8.8520   62.9800 C.3     1  UNL1       -0.0490
     30 H          -6.1300    8.2870   62.2660 H       1  UNL1        0.0300
     31 H          -6.7710    9.8970   62.6720 H       1  UNL1        0.0300
     32 H          -6.2760    8.7820   63.9690 H       1  UNL1        0.0300
     33 C          -6.4220    5.1510   66.2690 C.3     1  UNL1       -0.0330
     34 H          -6.1880    5.9010   67.0240 H       1  UNL1        0.0420
     35 C          -6.3350    3.7520   66.9550 C.3     1  UNL1       -0.0710
     36 H          -5.5880    3.1430   66.4460 H       1  UNL1        0.0280
     37 H          -6.0500    3.8770   68.0000 H       1  UNL1        0.0280
     38 H          -7.3060    3.2600   66.9000 H       1  UNL1        0.0280
     39 C          -5.3750    5.2820   65.1160 C.3     1  UNL1       -0.0710
     40 H          -4.5640    5.9360   65.4350 H       1  UNL1        0.0280
     41 H          -4.9740    4.2970   64.8760 H       1  UNL1        0.0280
     42 H          -5.8570    5.7030   64.2340 H       1  UNL1        0.0280
     43 C          -9.8660    7.9210   69.5870 C.2     1  UNL1        0.2400
     44 O         -10.0440    8.1400   70.7410 O.2     1  UNL1       -0.2710
     45 N          -9.8300    9.0500   68.6140 N.am    1  UNL1       -0.3550
     46 H          -9.6750    8.8760   67.6320 H       1  UNL1        0.1620
     47 C         -10.0240   10.4360   69.0930 C.3     1  UNL1        0.0130
     48 H          -9.7020   10.4790   70.1330 H       1  UNL1        0.0720
     49 C         -11.4880   10.8000   68.9900 C.3     1  UNL1       -0.0380
     50 H         -11.5710   11.4380   68.1100 H       1  UNL1        0.0360
     51 H         -12.0300    9.8550   69.0310 H       1  UNL1        0.0360
     52 C         -11.9820   11.6400   70.1880 C.3     1  UNL1        0.0180
     53 H         -13.0260   11.3590   70.3340 H       1  UNL1        0.0480
     54 H         -11.2570   11.4740   70.9840 H       1  UNL1        0.0480
     55 C         -11.9830   13.1700   69.9210 C.2     1  UNL1        0.2590
     56 O         -12.0890   13.9390   70.8210 O.2     1  UNL1       -0.2650
     57 O         -11.8690   13.6450   68.5850 O.3     1  UNL1       -0.3170
     58 C         -11.6070   15.0480   68.4860 C.3     1  UNL1        0.0520
     59 H         -12.2900   15.4220   67.7230 H       1  UNL1        0.0820
     60 H         -11.6660   15.4320   69.5050 H       1  UNL1        0.0820
     61 C         -10.1530   15.2290   67.9760 C.ar    1  UNL1       -0.0340
     62 C          -9.9200   15.6790   66.6800 C.ar    1  UNL1       -0.0750
     63 C          -8.6130   15.8410   66.2220 C.ar    1  UNL1       -0.0820
     64 H         -10.7610   15.9040   66.0240 H       1  UNL1        0.0840
     65 C          -7.5370   15.5490   67.0640 C.ar    1  UNL1       -0.0830
     66 H          -8.4340   16.1960   65.2070 H       1  UNL1        0.0830
     67 C          -7.7740   15.0980   68.3550 C.ar    1  UNL1       -0.0820
     68 H          -6.5120   15.6740   66.7140 H       1  UNL1        0.0830
     69 C          -9.0780   14.9360   68.8180 C.ar    1  UNL1       -0.0750
     70 H          -6.9320   14.8690   69.0090 H       1  UNL1        0.0830
     71 H          -9.2570   14.5820   69.8340 H       1  UNL1        0.0840
     72 C          -9.1980   11.3970   68.2410 C.3     1  UNL1       -0.0390
     73 H          -9.6940   11.4220   67.2700 H       1  UNL1        0.0360
     74 H          -9.1120   12.3080   68.8320 H       1  UNL1        0.0360
     75 C          -7.7130   10.8480   67.9990 C.3     1  UNL1       -0.0010
     76 C          -6.7460   11.2760   69.2580 C.3     1  UNL1       -0.0350
     77 C          -5.6320   11.8720   68.7700 C.3     1  UNL1        0.0850
     78 H          -7.2200   12.0630   69.8430 H       1  UNL1        0.0360
     79 H          -6.3610   10.3840   69.7540 H       1  UNL1        0.0360
     80 N          -5.8990   12.1840   67.3170 N.4     1  UNL1       -0.0490
     81 H          -5.5350   12.8070   69.3220 H       1  UNL1        0.0750
     82 H          -4.8470   11.1190   68.8330 H       1  UNL1        0.0750
     83 C          -7.2070   11.3290   66.9130 C.3     1  UNL1        0.1930
     84 H          -6.1290   13.1660   67.2730 H       1  UNL1        0.2800
     85 H          -5.1090   11.8270   66.7980 H       1  UNL1        0.2800
     86 H          -7.1130   10.4210   66.3180 H       1  UNL1        0.1290
     87 H          -7.7030    9.7990   67.7010 H       1  UNL1        0.0460
     88 O          -8.1350   12.1540   66.2060 O.3     1  UNL1       -0.3690
     89 H          -7.7630   12.3990   65.3560 H       1  UNL1        0.2120
     90 C          -9.0730    5.6220   70.2260 C.3     1  UNL1       -0.0350
     91 H          -8.1830    5.1550   69.8030 H       1  UNL1        0.0370
     92 H          -8.9820    6.3020   71.0730 H       1  UNL1        0.0370
     93 C         -10.0020    4.4560   70.6930 C.3     1  UNL1       -0.0590
     94 H         -10.9150    4.5030   70.1010 H       1  UNL1        0.0380
     95 C          -9.3530    3.0550   70.4570 C.3     1  UNL1       -0.0730
     96 H          -9.4370    2.4580   71.3650 H       1  UNL1        0.0280
     97 H          -9.8680    2.5490   69.6400 H       1  UNL1        0.0280
     98 H          -8.3010    3.1800   70.2010 H       1  UNL1        0.0280
     99 C         -10.4020    4.6310   72.1600 C.3     1  UNL1       -0.0730
    100 H          -9.6020    5.1420   72.6970 H       1  UNL1        0.0280
    101 H         -11.3150    5.2230   72.2190 H       1  UNL1        0.0280
    102 H         -10.5740    3.6530   72.6090 H       1  UNL1        0.0280
@<TRIPOS>BOND
     1    14    13    1
     2    17    16    2
     3    30    29    1
     4    22    20    1
     5    31    29    1
     6    29    13    1
     7    29    32    1
     8    13    10    1
     9    13    15    1
    10    11    10    2
    11    16    15   am
    12    16    19    1
    13    20    19   ar
    14    20    21   ar
    15    10     9   am
    16    15    18    1
    17    28    25    1
    18    19    24   ar
    19    42    39    1
    20    27    25    1
    21    21    25    1
    22    21    23   ar
    23    25    26    1
    24    41    39    1
    25     8     7    1
    26    39    40    1
    27    39    33    1
    28     9    12    1
    29     9     7    1
    30    66    63    1
    31    24    23   ar
    32    89    88    1
    33     7    33    1
    34     7     4    1
    35    64    62    1
    36    88    83    1
    37    63    62   ar
    38    63    65   ar
    39    33    35    1
    40    33    34    1
    41    86    83    1
    42    36    35    1
    43    62    61   ar
    44    68    65    1
    45    85    80    1
    46    38    35    1
    47     4     5    2
    48     4     3   am
    49    83    80    1
    50    83    75    1
    51    35    37    1
    52    65    67   ar
    53    73    72    1
    54    84    80    1
    55    80    77    1
    56    46    45    1
    57    87    75    1
    58    59    58    1
    59     6     3    1
    60    61    58    1
    61    61    69   ar
    62     3     1    1
    63    75    72    1
    64    75    76    1
    65    50    49    1
    66    72    74    1
    67    72    47    1
    68    67    69   ar
    69    67    70    1
    70    58    57    1
    71    58    60    1
    72    57    55    1
    73    45    47    1
    74    45    43   am
    75     2     1    1
    76    77    82    1
    77    77    76    1
    78    77    81    1
    79    69    71    1
    80    49    51    1
    81    49    47    1
    82    49    52    1
    83    47    48    1
    84     1    43    1
    85     1    90    1
    86    76    79    1
    87    76    78    1
    88    43    44    2
    89    97    95    1
    90    91    90    1
    91    55    52    1
    92    55    56    2
    93    94    93    1
    94    52    53    1
    95    52    54    1
    96    98    95    1
    97    90    93    1
    98    90    92    1
    99    95    93    1
   100    95    96    1
   101    93    99    1
   102    99   101    1
   103    99   102    1
   104    99   100    1
@<TRIPOS>MOLECULE
crystal_redock_e8_er3_1.pdbqt
 102 104 0 0 0
SMALL
GASTEIGER

@<TRIPOS>ATOM
      1 C          -8.9870    5.2690   66.4870 C.3     1  UNL1        0.0890
      2 H          -9.4860    4.4910   65.9080 H       1  UNL1        0.0870
      3 N          -8.2010    6.0690   65.5590 N.am    1  UNL1       -0.3460
      4 C          -7.3650    7.2180   66.0630 C.2     1  UNL1        0.2410
      5 O          -7.3420    7.4810   67.2200 O.2     1  UNL1       -0.2710
      6 H          -8.2360    5.8290   64.5780 H       1  UNL1        0.1630
      7 C          -6.5530    8.0310   65.0890 C.3     1  UNL1        0.0920
      8 H          -6.3150    7.4170   64.2200 H       1  UNL1        0.0880
      9 N          -7.3510    9.1650   64.6140 N.am    1  UNL1       -0.3460
     10 C          -8.1890    9.0180   63.4490 C.2     1  UNL1        0.2400
     11 O          -8.2310    7.9950   62.8810 O.2     1  UNL1       -0.2710
     12 H          -7.3240   10.0540   65.0920 H       1  UNL1        0.1630
     13 C          -9.0340   10.2290   62.9460 C.3     1  UNL1        0.0860
     14 H          -9.9710    9.9240   62.4780 H       1  UNL1        0.0860
     15 N          -9.3890   11.0610   64.0840 N.am    1  UNL1       -0.3430
     16 C         -10.6890   11.7340   64.1070 C.2     1  UNL1        0.2730
     17 O         -11.4420   11.6020   63.2050 O.2     1  UNL1       -0.2660
     18 H          -8.7390   11.1710   64.8490 H       1  UNL1        0.1630
     19 C         -11.0780   12.6160   65.3040 C.ar    1  UNL1        0.1540
     20 C         -10.6380   13.9510   65.5740 C.ar    1  UNL1       -0.0170
     21 C         -11.2790   14.3070   66.7820 C.ar    1  UNL1        0.0770
     22 H          -9.9590   14.5660   64.9840 H       1  UNL1        0.0910
     23 O         -12.0000   13.2900   67.1530 O.2     1  UNL1       -0.2180
     24 N         -11.8990   12.2910   66.3070 N.ar    1  UNL1       -0.1230
     25 C         -11.1490   15.6370   67.5130 C.3     1  UNL1       -0.0290
     26 H         -10.3550   16.2280   67.0540 H       1  UNL1        0.0360
     27 H         -12.0910   16.1810   67.4470 H       1  UNL1        0.0360
     28 H         -10.9070   15.4550   68.5600 H       1  UNL1        0.0360
     29 C          -8.2310   11.0280   61.9520 C.3     1  UNL1       -0.0490
     30 H          -8.5140   10.7400   60.9400 H       1  UNL1        0.0300
     31 H          -8.4270   12.0900   62.0960 H       1  UNL1        0.0300
     32 H          -7.1690   10.8310   62.1010 H       1  UNL1        0.0300
     33 C          -5.2730    8.5630   65.7980 C.3     1  UNL1       -0.0330
     34 H          -5.2890    8.1950   66.8240 H       1  UNL1        0.0420
     35 C          -3.9780    8.0120   65.1230 C.3     1  UNL1       -0.0710
     36 H          -3.8260    8.5140   64.1670 H       1  UNL1        0.0280
     37 H          -3.1230    8.1990   65.7710 H       1  UNL1        0.0280
     38 H          -4.0830    6.9400   64.9580 H       1  UNL1        0.0280
     39 C          -5.2670   10.1240   65.8450 C.3     1  UNL1       -0.0710
     40 H          -4.2410   10.4820   65.9220 H       1  UNL1        0.0280
     41 H          -5.7210   10.5170   64.9350 H       1  UNL1        0.0280
     42 H          -5.8360   10.4640   66.7100 H       1  UNL1        0.0280
     43 C          -9.9990    6.2030   67.2110 C.2     1  UNL1        0.2400
     44 O         -10.8790    6.7120   66.5950 O.2     1  UNL1       -0.2710
     45 N          -9.8760    6.4550   68.6750 N.am    1  UNL1       -0.3550
     46 H          -9.1360    6.0250   69.2100 H       1  UNL1        0.1620
     47 C         -10.8470    7.3440   69.3490 C.3     1  UNL1        0.0130
     48 H         -11.7170    7.4450   68.7000 H       1  UNL1        0.0720
     49 C         -10.2120    8.6980   69.5750 C.3     1  UNL1       -0.0380
     50 H         -10.1400    8.8130   70.6570 H       1  UNL1        0.0360
     51 H          -9.3090    8.7040   68.9640 H       1  UNL1        0.0360
     52 C         -11.0900    9.8630   69.0690 C.3     1  UNL1        0.0180
     53 H         -10.3950   10.6530   68.7810 H       1  UNL1        0.0480
     54 H         -11.7590    9.4280   68.3270 H       1  UNL1        0.0480
     55 C         -12.0060   10.4780   70.1630 C.2     1  UNL1        0.2590
     56 O         -12.6550    9.7770   70.8700 O.2     1  UNL1       -0.2650
     57 O         -12.0710   11.8920   70.3040 O.3     1  UNL1       -0.3170
     58 C         -13.0830   12.3410   71.2100 C.3     1  UNL1        0.0520
     59 H         -13.9970   12.4110   70.6200 H       1  UNL1        0.0820
     60 H         -13.0360   11.6660   72.0630 H       1  UNL1        0.0820
     61 C         -12.6980   13.7660   71.6890 C.ar    1  UNL1       -0.0340
     62 C         -11.9390   14.5960   70.8700 C.ar    1  UNL1       -0.0750
     63 C         -11.5930   15.8760   71.3010 C.ar    1  UNL1       -0.0820
     64 H         -11.6160   14.2430   69.8900 H       1  UNL1        0.0840
     65 C         -12.0070   16.3250   72.5580 C.ar    1  UNL1       -0.0830
     66 H         -11.0010   16.5240   70.6550 H       1  UNL1        0.0830
     67 C         -12.7620   15.4920   73.3730 C.ar    1  UNL1       -0.0820
     68 H         -11.7420   17.3240   72.9020 H       1  UNL1        0.0830
     69 C         -13.1120   14.2130   72.9460 C.ar    1  UNL1       -0.0750
     70 H         -13.0820   15.8440   74.3540 H       1  UNL1        0.0830
     71 H         -13.7050   13.5650   73.5910 H       1  UNL1        0.0840
     72 C         -11.2530    6.7410   70.6920 C.3     1  UNL1       -0.0390
     73 H         -12.2080    7.2050   70.9420 H       1  UNL1        0.0360
     74 H         -11.1920    5.6620   70.5560 H       1  UNL1        0.0360
     75 C         -10.2210    7.1310   71.8540 C.3     1  UNL1       -0.0010
     76 C          -9.3370    5.8130   72.2830 C.3     1  UNL1       -0.0350
     77 C          -9.3950    5.6670   73.6280 C.3     1  UNL1        0.0850
     78 H          -9.8110    4.9060   71.9070 H       1  UNL1        0.0360
     79 H          -8.2790    5.9930   72.0920 H       1  UNL1        0.0360
     80 N         -10.5010    6.5680   74.1220 N.4     1  UNL1       -0.0490
     81 H          -9.6820    4.6280   73.7970 H       1  UNL1        0.0750
     82 H          -8.4420    6.0370   74.0030 H       1  UNL1        0.0750
     83 C         -10.8380    7.5680   72.9000 C.3     1  UNL1        0.1930
     84 H         -11.3030    5.9760   74.2830 H       1  UNL1        0.2800
     85 H         -10.1120    7.1090   74.8820 H       1  UNL1        0.2800
     86 H         -10.4900    8.6010   72.9180 H       1  UNL1        0.1290
     87 H          -9.6710    8.0450   71.6280 H       1  UNL1        0.0460
     88 O         -12.2510    7.6440   72.7010 O.3     1  UNL1       -0.3690
     89 H         -12.7000    7.4850   73.5340 H       1  UNL1        0.2120
     90 C          -8.0560    4.6350   67.5070 C.3     1  UNL1       -0.0350
     91 H          -7.0580    4.9860   67.2450 H       1  UNL1        0.0370
     92 H          -8.4820    4.8820   68.4800 H       1  UNL1        0.0370
     93 C          -8.0100    3.0760   67.4290 C.3     1  UNL1       -0.0590
     94 H          -7.7910    2.8030   66.3970 H       1  UNL1        0.0380
     95 C          -6.8830    2.4740   68.3290 C.3     1  UNL1       -0.0730
     96 H          -7.2030    1.5050   68.7110 H       1  UNL1        0.0280
     97 H          -5.9740    2.3510   67.7400 H       1  UNL1        0.0280
     98 H          -6.6870    3.1470   69.1640 H       1  UNL1        0.0280
     99 C          -9.3710    2.4700   67.7820 C.3     1  UNL1       -0.0730
    100 H          -9.6100    2.6940   68.8220 H       1  UNL1        0.0280
    101 H         -10.1370    2.8960   67.1330 H       1  UNL1        0.0280
    102 H          -9.3350    1.3900   67.6410 H       1  UNL1        0.0280
@<TRIPOS>BOND
     1    30    29    1
     2    29    31    1
     3    29    32    1
     4    29    13    1
     5    14    13    1
     6    11    10    2
     7    13    10    1
     8    13    15    1
     9    17    16    2
    10    10     9   am
    11    15    16   am
    12    15    18    1
    13    16    19    1
    14    36    35    1
    15     8     7    1
    16     6     3    1
    17     9     7    1
    18     9    12    1
    19    41    39    1
    20    38    35    1
    21    22    20    1
    22     7    33    1
    23     7     4    1
    24    35    37    1
    25    35    33    1
    26    19    20   ar
    27    19    24   ar
    28     3     4   am
    29     3     1    1
    30    20    21   ar
    31    33    39    1
    32    33    34    1
    33    39    40    1
    34    39    42    1
    35     2     1    1
    36     4     5    2
    37    24    23   ar
    38    94    93    1
    39     1    43    1
    40     1    90    1
    41    44    43    2
    42    21    23   ar
    43    21    25    1
    44    26    25    1
    45   101    99    1
    46    43    45   am
    47    91    90    1
    48    93    90    1
    49    93    99    1
    50    93    95    1
    51    27    25    1
    52    90    92    1
    53    25    28    1
    54   102    99    1
    55    97    95    1
    56    99   100    1
    57    54    52    1
    58    95    96    1
    59    95    98    1
    60    45    46    1
    61    45    47    1
    62    48    47    1
    63    53    52    1
    64    51    49    1
    65    52    49    1
    66    52    55    1
    67    47    49    1
    68    47    72    1
    69    49    50    1
    70    64    62    1
    71    55    57    1
    72    55    56    2
    73    57    58    1
    74    74    72    1
    75    59    58    1
    76    66    63    1
    77    72    73    1
    78    72    75    1
    79    62    63   ar
    80    62    61   ar
    81    58    61    1
    82    58    60    1
    83    63    65   ar
    84    87    75    1
    85    61    69   ar
    86    75    76    1
    87    75    83    1
    88    78    76    1
    89    79    76    1
    90    76    77    1
    91    65    68    1
    92    65    67   ar
    93    88    83    1
    94    88    89    1
    95    83    86    1
    96    83    80    1
    97    69    67   ar
    98    69    71    1
    99    67    70    1
   100    77    81    1
   101    77    82    1
   102    77    80    1
   103    80    84    1
   104    80    85    1
@<TRIPOS>MOLECULE
crystal_redock_e8_er3_1.pdbqt
 102 104 0 0 0
SMALL
GASTEIGER

@<TRIPOS>ATOM
      1 C          -6.8130    9.7180   64.5230 C.3     1  UNL1        0.0890
      2 H          -6.3340   10.0830   63.6140 H       1  UNL1        0.0870
      3 N          -6.0010   10.1520   65.6510 N.am    1  UNL1       -0.3460
      4 C          -4.7900   11.0220   65.4280 C.2     1  UNL1        0.2410
      5 O          -4.4870   11.3580   64.3310 O.2     1  UNL1       -0.2710
      6 H          -6.2750    9.8520   66.5760 H       1  UNL1        0.1630
      7 C          -3.9650   11.4660   66.6070 C.3     1  UNL1        0.0920
      8 H          -3.2460   12.2170   66.2790 H       1  UNL1        0.0880
      9 N          -4.8340   12.1040   67.6000 N.am    1  UNL1       -0.3460
     10 C          -4.7570   13.5280   67.8160 C.2     1  UNL1        0.2400
     11 O          -4.0000   14.1750   67.2010 O.2     1  UNL1       -0.2710
     12 H          -5.4910   11.5590   68.1390 H       1  UNL1        0.1630
     13 C          -5.6830   14.2010   68.8770 C.3     1  UNL1        0.0860
     14 H          -5.1440   14.8820   69.5350 H       1  UNL1        0.0860
     15 N          -6.6880   14.9950   68.1890 N.am    1  UNL1       -0.3430
     16 C          -6.5430   16.4510   68.1360 C.2     1  UNL1        0.2730
     17 O          -5.6170   16.9750   68.6510 O.2     1  UNL1       -0.2660
     18 H          -7.4770   14.5400   67.7540 H       1  UNL1        0.1630
     19 C          -7.5970   17.3030   67.4110 C.ar    1  UNL1        0.1540
     20 C          -8.6020   18.1290   68.0090 C.ar    1  UNL1       -0.0170
     21 C          -9.3040   18.6920   66.9200 C.ar    1  UNL1        0.0770
     22 H          -8.7910   18.2940   69.0690 H       1  UNL1        0.0910
     23 O          -8.7590   18.2380   65.8300 O.2     1  UNL1       -0.2180
     24 N          -7.7600   17.4250   66.0910 N.ar    1  UNL1       -0.1230
     25 C         -10.4820   19.6530   67.0080 C.3     1  UNL1       -0.0290
     26 H         -11.3960   19.1370   66.7120 H       1  UNL1        0.0360
     27 H         -10.5830   20.0120   68.0320 H       1  UNL1        0.0360
     28 H         -10.3110   20.5000   66.3420 H       1  UNL1        0.0360
     29 C          -6.3480   13.1380   69.7130 C.3     1  UNL1       -0.0490
     30 H          -7.3360   13.4830   70.0210 H       1  UNL1        0.0300
     31 H          -6.4490   12.2240   69.1280 H       1  UNL1        0.0300
     32 H          -5.7420   12.9390   70.5970 H       1  UNL1        0.0300
     33 C          -3.2700   10.2300   67.2480 C.3     1  UNL1       -0.0330
     34 H          -2.3180   10.5650   67.6610 H       1  UNL1        0.0420
     35 C          -4.1140    9.6500   68.4260 C.3     1  UNL1       -0.0710
     36 H          -4.8210   10.4050   68.7710 H       1  UNL1        0.0280
     37 H          -4.6590    8.7710   68.0840 H       1  UNL1        0.0280
     38 H          -3.4510    9.3710   69.2450 H       1  UNL1        0.0280
     39 C          -2.9710    9.1360   66.1730 C.3     1  UNL1       -0.0710
     40 H          -2.0700    9.4030   65.6230 H       1  UNL1        0.0280
     41 H          -2.8240    8.1740   66.6650 H       1  UNL1        0.0280
     42 H          -3.8120    9.0660   65.4830 H       1  UNL1        0.0280
     43 C          -8.2500   10.2870   64.6990 C.2     1  UNL1        0.2400
     44 O          -9.0840   10.0470   63.8880 O.2     1  UNL1       -0.2710
     45 N          -8.5880   11.1250   65.8850 N.am    1  UNL1       -0.3550
     46 H          -7.8890   11.3320   66.5830 H       1  UNL1        0.1620
     47 C          -9.9590   11.6580   66.0380 C.3     1  UNL1        0.0130
     48 H         -10.3480   11.8750   65.0430 H       1  UNL1        0.0720
     49 C          -9.9140   12.9240   66.8630 C.3     1  UNL1       -0.0380
     50 H          -9.6260   12.6120   67.8670 H       1  UNL1        0.0360
     51 H          -9.2820   13.6160   66.3050 H       1  UNL1        0.0360
     52 C         -11.2940   13.6030   66.9950 C.3     1  UNL1        0.0180
     53 H         -11.8290   13.3670   66.0750 H       1  UNL1        0.0480
     54 H         -11.6930   13.2770   67.9560 H       1  UNL1        0.0480
     55 C         -11.2250   15.1540   67.0650 C.2     1  UNL1        0.2590
     56 O         -10.8840   15.7860   66.1180 O.2     1  UNL1       -0.2650
     57 O         -11.5630   15.8130   68.2790 O.3     1  UNL1       -0.3170
     58 C         -10.7740   15.4060   69.4010 C.3     1  UNL1        0.0520
     59 H         -10.2220   14.5270   69.0700 H       1  UNL1        0.0820
     60 H         -10.2370   16.2980   69.7230 H       1  UNL1        0.0820
     61 C         -11.7420   14.9800   70.5370 C.ar    1  UNL1       -0.0340
     62 C         -12.2380   13.6810   70.5790 C.ar    1  UNL1       -0.0750
     63 C         -13.1070   13.2970   71.5990 C.ar    1  UNL1       -0.0820
     64 H         -11.9450   12.9630   69.8130 H       1  UNL1        0.0840
     65 C         -13.4820   14.2200   72.5800 C.ar    1  UNL1       -0.0830
     66 H         -13.4920   12.2780   71.6310 H       1  UNL1        0.0830
     67 C         -12.9870   15.5160   72.5320 C.ar    1  UNL1       -0.0820
     68 H         -14.1610   13.9290   73.3810 H       1  UNL1        0.0830
     69 C         -12.1170   15.9030   71.5150 C.ar    1  UNL1       -0.0750
     70 H         -13.2840   16.2340   73.2970 H       1  UNL1        0.0830
     71 H         -11.7320   16.9230   71.4860 H       1  UNL1        0.0840
     72 C         -10.8390   10.6250   66.7380 C.3     1  UNL1       -0.0390
     73 H         -11.7710   11.1430   66.9640 H       1  UNL1        0.0360
     74 H         -10.8450    9.7560   66.0800 H       1  UNL1        0.0360
     75 C         -10.2080   10.1560   68.1340 C.3     1  UNL1       -0.0010
     76 C          -9.6110    8.6300   67.9950 C.3     1  UNL1       -0.0350
     77 C         -10.1090    7.8740   69.0020 C.3     1  UNL1        0.0850
     78 H         -10.0070    8.1550   67.0980 H       1  UNL1        0.0360
     79 H          -8.5370    8.6300   68.1830 H       1  UNL1        0.0360
     80 N         -11.2430    8.6540   69.6210 N.4     1  UNL1       -0.0490
     81 H         -10.5130    6.9800   68.5230 H       1  UNL1        0.0750
     82 H          -9.3010    7.7860   69.7270 H       1  UNL1        0.0750
     83 C         -11.0930   10.1650   69.0740 C.3     1  UNL1        0.1930
     84 H         -12.0970    8.2610   69.2510 H       1  UNL1        0.2800
     85 H         -11.0790    8.6560   70.6180 H       1  UNL1        0.2800
     86 H         -10.6920   10.9500   69.7160 H       1  UNL1        0.1290
     87 H          -9.5470   10.9100   68.5620 H       1  UNL1        0.0460
     88 O         -12.3570   10.6530   68.6190 O.3     1  UNL1       -0.3690
     89 H         -12.2970   10.8770   67.6880 H       1  UNL1        0.2120
     90 C          -6.8640    8.1990   64.5040 C.3     1  UNL1       -0.0350
     91 H          -6.2210    7.8780   65.3240 H       1  UNL1        0.0370
     92 H          -7.9240    7.9450   64.5120 H       1  UNL1        0.0370
     93 C          -6.2690    7.5680   63.2050 C.3     1  UNL1       -0.0590
     94 H          -7.0840    7.4520   62.4900 H       1  UNL1        0.0380
     95 C          -5.1860    8.4830   62.5480 C.3     1  UNL1       -0.0730
     96 H          -5.1910    8.3330   61.4680 H       1  UNL1        0.0280
     97 H          -5.4100    9.5270   62.7700 H       1  UNL1        0.0280
     98 H          -4.2050    8.2290   62.9470 H       1  UNL1        0.0280
     99 C          -5.7060    6.1720   63.4830 C.3     1  UNL1       -0.0730
    100 H          -5.8890    5.9070   64.5240 H       1  UNL1        0.0280
    101 H          -6.1940    5.4470   62.8310 H       1  UNL1        0.0280
    102 H          -4.6330    6.1680   63.2900 H       1  UNL1        0.0280
@<TRIPOS>BOND
     1    96    95    1
     2    94    93    1
     3    95    97    1
     4    95    98    1
     5    95    93    1
     6   101    99    1
     7    93    99    1
     8    93    90    1
     9   102    99    1
    10    99   100    1
    11     2     1    1
    12    44    43    2
    13     5     4    2
    14    90    92    1
    15    90     1    1
    16    90    91    1
    17     1    43    1
    18     1     3    1
    19    43    45   am
    20    48    47    1
    21     4     3   am
    22     4     7    1
    23    42    39    1
    24    40    39    1
    25     3     6    1
    26    23    24   ar
    27    23    21   ar
    28    45    47    1
    29    45    46    1
    30    47    72    1
    31    47    49    1
    32    53    52    1
    33    74    72    1
    34    24    19   ar
    35    56    55    2
    36    39    41    1
    37    39    33    1
    38     8     7    1
    39    51    49    1
    40    28    25    1
    41     7    33    1
    42     7     9    1
    43    26    25    1
    44    72    73    1
    45    72    75    1
    46    49    52    1
    47    49    50    1
    48    21    25    1
    49    21    20   ar
    50    52    55    1
    51    52    54    1
    52    25    27    1
    53    55    57    1
    54    78    76    1
    55    11    10    2
    56    33    34    1
    57    33    35    1
    58    19    20   ar
    59    19    16    1
    60     9    10   am
    61     9    12    1
    62    89    88    1
    63    18    15    1
    64    10    13    1
    65    76    75    1
    66    76    79    1
    67    76    77    1
    68    20    22    1
    69    37    35    1
    70    75    87    1
    71    75    83    1
    72    16    15   am
    73    16    17    2
    74    15    13    1
    75    57    58    1
    76    35    36    1
    77    35    38    1
    78    81    77    1
    79    88    83    1
    80    13    14    1
    81    13    29    1
    82    77    80    1
    83    77    82    1
    84    59    58    1
    85    83    80    1
    86    83    86    1
    87    31    29    1
    88    84    80    1
    89    58    60    1
    90    58    61    1
    91    80    85    1
    92    29    30    1
    93    29    32    1
    94    64    62    1
    95    61    62   ar
    96    61    69   ar
    97    62    63   ar
    98    71    69    1
    99    69    67   ar
   100    63    66    1
   101    63    65   ar
   102    67    65   ar
   103    67    70    1
   104    65    68    1
