@<TRIPOS>MOLECULE
crystal_redock_e32_er3_1.pdbqt
 102 104 0 0 0
SMALL
GASTEIGER

@<TRIPOS>ATOM
      1 C         -11.9260   13.9940   69.6550 C.3     1  UNL1        0.0890
      2 H         -12.9080   13.5680   69.4490 H       1  UNL1        0.0870
      3 N         -10.9370   12.9560   69.4070 N.am    1  UNL1       -0.3460
      4 C         -11.3740   11.5540   69.0660 C.2     1  UNL1        0.2410
      5 O         -12.5280   11.2840   69.0010 O.2     1  UNL1       -0.2710
      6 H          -9.9600   13.2060   69.4690 H       1  UNL1        0.1630
      7 C         -10.3360   10.4930   68.8060 C.3     1  UNL1        0.0920
      8 H         -10.2550   10.3270   67.7320 H       1  UNL1        0.0880
      9 N          -9.0280   10.9630   69.2730 N.am    1  UNL1       -0.3460
     10 C          -7.8920   10.9270   68.3850 C.2     1  UNL1        0.2400
     11 O          -8.0120   10.5220   67.2940 O.2     1  UNL1       -0.2710
     12 H          -8.9090   11.3140   70.2120 H       1  UNL1        0.1630
     13 C          -6.5020   11.4270   68.8880 C.3     1  UNL1        0.0860
     14 H          -5.6870   11.1500   68.2190 H       1  UNL1        0.0860
     15 N          -6.5150   12.8790   68.9480 N.am    1  UNL1       -0.3430
     16 C          -5.6640   13.6460   68.0360 C.2     1  UNL1        0.2730
     17 O          -4.9700   13.0860   67.2600 O.2     1  UNL1       -0.2660
     18 H          -7.1100   13.3490   69.6150 H       1  UNL1        0.1630
     19 C          -5.6700   15.1820   68.0860 C.ar    1  UNL1        0.1540
     20 C          -5.8830   16.0080   69.2350 C.ar    1  UNL1       -0.0170
     21 C          -5.7890   17.3330   68.7520 C.ar    1  UNL1        0.0770
     22 H          -6.0760   15.6950   70.2610 H       1  UNL1        0.0910
     23 O          -5.5480   17.2640   67.4760 O.2     1  UNL1       -0.2180
     24 N          -5.4750   16.0190   67.0640 N.ar    1  UNL1       -0.1230
     25 C          -5.9400   18.6050   69.5750 C.3     1  UNL1       -0.0290
     26 H          -5.1320   18.6640   70.3050 H       1  UNL1        0.0360
     27 H          -5.8970   19.4720   68.9150 H       1  UNL1        0.0360
     28 H          -6.8990   18.5910   70.0940 H       1  UNL1        0.0360
     29 C          -6.2250   10.8560   70.2560 C.3     1  UNL1       -0.0490
     30 H          -7.1660   10.5870   70.7350 H       1  UNL1        0.0300
     31 H          -5.5990    9.9690   70.1600 H       1  UNL1        0.0300
     32 H          -5.7100   11.6010   70.8620 H       1  UNL1        0.0300
     33 C         -10.7200    9.1930   69.5730 C.3     1  UNL1       -0.0330
     34 H         -11.8020    9.1970   69.7050 H       1  UNL1        0.0420
     35 C         -10.3530    7.9190   68.7500 C.3     1  UNL1       -0.0710
     36 H          -9.3150    7.6470   68.9460 H       1  UNL1        0.0280
     37 H         -11.0050    7.0970   69.0440 H       1  UNL1        0.0280
     38 H         -10.4810    8.1230   67.6880 H       1  UNL1        0.0280
     39 C         -10.0610    9.1630   70.9890 C.3     1  UNL1       -0.0710
     40 H          -9.3490    9.9840   71.0760 H       1  UNL1        0.0280
     41 H         -10.8330    9.2690   71.7520 H       1  UNL1        0.0280
     42 H          -9.5410    8.2150   71.1270 H       1  UNL1        0.0280
     43 C         -11.6090   15.2100   68.7390 C.2     1  UNL1        0.2400
     44 O         -12.0660   16.2770   68.9930 O.2     1  UNL1       -0.2710
     45 N         -10.7260   15.0470   67.5480 N.am    1  UNL1       -0.3550
     46 H         -10.3280   14.1460   67.3250 H       1  UNL1        0.1620
     47 C         -10.4330   16.2130   66.6870 C.3     1  UNL1        0.0130
     48 H         -11.1820   16.9780   66.8930 H       1  UNL1        0.0720
     49 C         -10.5070   15.7940   65.2360 C.3     1  UNL1       -0.0380
     50 H         -11.0430   16.5940   64.7260 H       1  UNL1        0.0360
     51 H          -9.4830   15.5530   64.9480 H       1  UNL1        0.0360
     52 C         -11.3350   14.5080   65.0250 C.3     1  UNL1        0.0180
     53 H         -11.9480   14.4010   65.9200 H       1  UNL1        0.0480
     54 H         -11.8090   14.6190   64.0500 H       1  UNL1        0.0480
     55 C         -10.4750   13.2170   64.9380 C.2     1  UNL1        0.2590
     56 O          -9.9060   12.8050   65.8970 O.2     1  UNL1       -0.2650
     57 O         -10.3630   12.5360   63.6940 O.3     1  UNL1       -0.3170
     58 C         -10.5470   11.1210   63.7860 C.3     1  UNL1        0.0520
     59 H         -10.5620   10.8940   64.8520 H       1  UNL1        0.0820
     60 H         -11.4160   10.8950   63.1690 H       1  UNL1        0.0820
     61 C          -9.3060   10.4350   63.1550 C.ar    1  UNL1       -0.0340
     62 C          -8.6770   11.0080   62.0550 C.ar    1  UNL1       -0.0750
     63 C          -7.5620   10.3920   61.4880 C.ar    1  UNL1       -0.0820
     64 H          -9.0570   11.9410   61.6370 H       1  UNL1        0.0840
     65 C          -7.0780    9.1960   62.0250 C.ar    1  UNL1       -0.0830
     66 H          -7.0700   10.8450   60.6280 H       1  UNL1        0.0830
     67 C          -7.7110    8.6260   63.1210 C.ar    1  UNL1       -0.0820
     68 H          -6.2060    8.7080   61.5880 H       1  UNL1        0.0830
     69 C          -8.8240    9.2390   63.6920 C.ar    1  UNL1       -0.0750
     70 H          -7.3320    7.6910   63.5360 H       1  UNL1        0.0830
     71 H          -9.3150    8.7860   64.5530 H       1  UNL1        0.0840
     72 C          -9.0340   16.7430   66.9950 C.3     1  UNL1       -0.0390
     73 H          -8.7020   16.1920   67.8750 H       1  UNL1        0.0360
     74 H          -8.4810   16.6610   66.0600 H       1  UNL1        0.0360
     75 C          -9.0630   18.2950   67.3920 C.3     1  UNL1       -0.0010
     76 C         -10.5980   18.8740   67.2780 C.3     1  UNL1       -0.0350
     77 C         -10.5850   19.9990   66.5230 C.3     1  UNL1        0.0850
     78 H         -11.2150   18.1860   66.7000 H       1  UNL1        0.0360
     79 H         -10.9390   19.2250   68.2520 H       1  UNL1        0.0360
     80 N          -9.2390   20.0580   65.8420 N.4     1  UNL1       -0.0490
     81 H         -11.3590   19.8530   65.7680 H       1  UNL1        0.0750
     82 H         -10.6620   20.8240   67.2300 H       1  UNL1        0.0750
     83 C          -8.3040   18.9910   66.6130 C.3     1  UNL1        0.1930
     84 H          -9.3820   19.7360   64.8960 H       1  UNL1        0.2800
     85 H          -8.8740   20.9850   66.0100 H       1  UNL1        0.2800
     86 H          -7.5480   19.3280   67.3220 H       1  UNL1        0.1290
     87 H          -8.5260   18.4940   68.3190 H       1  UNL1        0.0460
     88 O          -7.6070   18.1750   65.6700 O.3     1  UNL1       -0.3690
     89 H          -8.2350   17.6230   65.1990 H       1  UNL1        0.2120
     90 C         -11.8440   14.4180   71.1130 C.3     1  UNL1       -0.0350
     91 H         -11.2870   13.6260   71.6130 H       1  UNL1        0.0370
     92 H         -11.4510   15.4340   71.0970 H       1  UNL1        0.0370
     93 C         -13.2340   14.4950   71.8220 C.3     1  UNL1       -0.0590
     94 H         -13.9540   14.8750   71.0980 H       1  UNL1        0.0380
     95 C         -13.7320   13.0920   72.2970 C.3     1  UNL1       -0.0730
     96 H         -13.3070   12.3200   71.6550 H       1  UNL1        0.0280
     97 H         -13.4150   12.9230   73.3260 H       1  UNL1        0.0280
     98 H         -14.8200   13.0540   72.2410 H       1  UNL1        0.0280
     99 C         -13.1980   15.4840   72.9900 C.3     1  UNL1       -0.0730
    100 H         -14.0720   16.1340   72.9420 H       1  UNL1        0.0280
    101 H         -13.2050   14.9340   73.9310 H       1  UNL1        0.0280
    102 H         -12.2930   16.0860   72.9280 H       1  UNL1        0.0280
@<TRIPOS>BOND
     1    66    63    1
     2    63    65   ar
     3    63    62   ar
     4    68    65    1
     5    64    62    1
     6    65    67   ar
     7    62    61   ar
     8    67    70    1
     9    67    69   ar
    10    61    69   ar
    11    61    58    1
    12    60    58    1
    13    69    71    1
    14    57    58    1
    15    57    55    1
    16    58    59    1
    17    54    52    1
    18    50    49    1
    19    84    80    1
    20    55    52    1
    21    55    56    2
    22    51    49    1
    23    52    49    1
    24    52    53    1
    25    89    88    1
    26    49    47    1
    27    88    83    1
    28    81    77    1
    29    80    85    1
    30    80    77    1
    31    80    83    1
    32    74    72    1
    33    77    82    1
    34    77    76    1
    35    83    86    1
    36    83    75    1
    37    47    48    1
    38    47    72    1
    39    47    45    1
    40    78    76    1
    41    72    75    1
    42    72    73    1
    43    24    23   ar
    44    24    19   ar
    45    17    16    2
    46    76    75    1
    47    76    79    1
    48    11    10    2
    49    46    45    1
    50    75    87    1
    51    23    21   ar
    52    45    43   am
    53    38    35    1
    54     8     7    1
    55    16    19    1
    56    16    15   am
    57    19    20   ar
    58    14    13    1
    59    10    13    1
    60    10     9   am
    61    43    44    2
    62    43     1    1
    63    35    36    1
    64    35    37    1
    65    35    33    1
    66    21    20   ar
    67    21    25    1
    68     7     4    1
    69     7     9    1
    70     7    33    1
    71    13    15    1
    72    13    29    1
    73    27    25    1
    74    15    18    1
    75     5     4    2
    76     4     3   am
    77    20    22    1
    78     9    12    1
    79     3     6    1
    80     3     1    1
    81     2     1    1
    82    33    34    1
    83    33    39    1
    84    25    28    1
    85    25    26    1
    86     1    90    1
    87    31    29    1
    88    29    30    1
    89    29    32    1
    90    39    40    1
    91    39    42    1
    92    39    41    1
    93    92    90    1
    94    94    93    1
    95    90    91    1
    96    90    93    1
    97    96    95    1
    98    93    95    1
    99    93    99    1
   100    98    95    1
   101    95    97    1
   102   102    99    1
   103   100    99    1
   104    99   101    1
@<TRIPOS>MOLECULE
crystal_redock_e32_er3_1.pdbqt
 102 104 0 0 0
SMALL
GASTEIGER

@<TRIPOS>ATOM
      1 C          -9.1130    6.9160   66.5530 C.3     1  UNL1        0.0890
      2 H          -9.5050    6.4160   65.6670 H       1  UNL1        0.0870
      3 N          -8.7040    8.2550   66.1550 N.am    1  UNL1       -0.3460
      4 C          -8.2500    8.5250   64.7420 C.2     1  UNL1        0.2410
      5 O          -8.2200    7.6470   63.9440 O.2     1  UNL1       -0.2710
      6 H          -8.7340    8.9870   66.8500 H       1  UNL1        0.1630
      7 C          -7.8360    9.9180   64.3460 C.3     1  UNL1        0.0920
      8 H          -7.7880    9.9820   63.2590 H       1  UNL1        0.0880
      9 N          -8.8510   10.8760   64.7940 N.am    1  UNL1       -0.3460
     10 C          -9.7810   11.4360   63.8440 C.2     1  UNL1        0.2400
     11 O          -9.7250   11.1280   62.7160 O.2     1  UNL1       -0.2710
     12 H          -8.9110   11.1520   65.7630 H       1  UNL1        0.1630
     13 C         -10.8570   12.4580   64.3250 C.3     1  UNL1        0.0860
     14 H         -11.3300   12.1620   65.2620 H       1  UNL1        0.0860
     15 N         -10.2160   13.7390   64.5700 N.am    1  UNL1       -0.3430
     16 C         -10.8300   14.6880   65.5010 C.2     1  UNL1        0.2730
     17 O         -11.8420   14.4120   66.0460 O.2     1  UNL1       -0.2660
     18 H          -9.3520   13.9670   64.0980 H       1  UNL1        0.1630
     19 C         -10.1620   16.0450   65.7700 C.ar    1  UNL1        0.1540
     20 C          -8.9840   16.2900   66.5450 C.ar    1  UNL1       -0.0170
     21 C          -8.7920   17.6880   66.4810 C.ar    1  UNL1        0.0770
     22 H          -8.3650   15.5650   67.0730 H       1  UNL1        0.0910
     23 O          -9.7510   18.1780   65.7510 O.2     1  UNL1       -0.2180
     24 N         -10.5630   17.2390   65.3250 N.ar    1  UNL1       -0.1230
     25 C          -7.6680   18.4750   67.1430 C.3     1  UNL1       -0.0290
     26 H          -7.4470   19.3630   66.5500 H       1  UNL1        0.0360
     27 H          -7.9760   18.7750   68.1450 H       1  UNL1        0.0360
     28 H          -6.7770   17.8510   67.2090 H       1  UNL1        0.0360
     29 C         -11.9220   12.6070   63.2680 C.3     1  UNL1       -0.0490
     30 H         -11.5520   13.2480   62.4680 H       1  UNL1        0.0300
     31 H         -12.1700   11.6260   62.8620 H       1  UNL1        0.0300
     32 H         -12.8120   13.0540   63.7090 H       1  UNL1        0.0300
     33 C          -6.4720   10.2620   65.0140 C.3     1  UNL1       -0.0330
     34 H          -5.9500   10.9570   64.3560 H       1  UNL1        0.0420
     35 C          -6.6750   10.9780   66.3850 C.3     1  UNL1       -0.0710
     36 H          -5.9720   11.8070   66.4700 H       1  UNL1        0.0280
     37 H          -7.6940   11.3590   66.4490 H       1  UNL1        0.0280
     38 H          -6.5000   10.2690   67.1940 H       1  UNL1        0.0280
     39 C          -5.5860    8.9850   65.1670 C.3     1  UNL1       -0.0710
     40 H          -6.1370    8.1150   64.8100 H       1  UNL1        0.0280
     41 H          -4.6740    9.1020   64.5810 H       1  UNL1        0.0280
     42 H          -5.3270    8.8460   66.2170 H       1  UNL1        0.0280
     43 C         -10.1790    7.0380   67.6790 C.2     1  UNL1        0.2400
     44 O         -11.2120    6.4590   67.5790 O.2     1  UNL1       -0.2710
     45 N          -9.9080    7.8700   68.8860 N.am    1  UNL1       -0.3550
     46 H          -9.0320    8.3620   68.9840 H       1  UNL1        0.1620
     47 C         -10.9320    7.9740   69.9480 C.3     1  UNL1        0.0130
     48 H         -11.8830    7.6400   69.5320 H       1  UNL1        0.0720
     49 C         -11.0420    9.4140   70.3960 C.3     1  UNL1       -0.0380
     50 H         -12.0880    9.6870   70.2570 H       1  UNL1        0.0360
     51 H         -10.5970    9.4470   71.3910 H       1  UNL1        0.0360
     52 C         -10.2170   10.3800   69.5180 C.3     1  UNL1        0.0180
     53 H          -9.9880   11.2350   70.1540 H       1  UNL1        0.0480
     54 H          -9.4090    9.7800   69.0990 H       1  UNL1        0.0480
     55 C         -11.0030   10.9470   68.3030 C.2     1  UNL1        0.2590
     56 O         -10.8560   10.4830   67.2190 O.2     1  UNL1       -0.2650
     57 O         -11.8950   12.0380   68.4980 O.3     1  UNL1       -0.3170
     58 C         -11.2840   13.1920   69.0810 C.3     1  UNL1        0.0520
     59 H         -10.3400   12.8450   69.5020 H       1  UNL1        0.0820
     60 H         -11.2860   13.9530   68.3020 H       1  UNL1        0.0820
     61 C         -12.1900   13.6780   70.2440 C.ar    1  UNL1       -0.0340
     62 C         -12.7150   12.7610   71.1480 C.ar    1  UNL1       -0.0750
     63 C         -13.5300   13.1970   72.1920 C.ar    1  UNL1       -0.0820
     64 H         -12.4890   11.7000   71.0390 H       1  UNL1        0.0840
     65 C         -13.8210   14.5570   72.3280 C.ar    1  UNL1       -0.0830
     66 H         -13.9380   12.4760   72.9000 H       1  UNL1        0.0830
     67 C         -13.2970   15.4690   71.4210 C.ar    1  UNL1       -0.0820
     68 H         -14.4560   14.9070   73.1420 H       1  UNL1        0.0830
     69 C         -12.4810   15.0370   70.3780 C.ar    1  UNL1       -0.0750
     70 H         -13.5280   16.5290   71.5290 H       1  UNL1        0.0830
     71 H         -12.0720   15.7590   69.6700 H       1  UNL1        0.0840
     72 C         -10.5360    7.0990   71.1350 C.3     1  UNL1       -0.0390
     73 H         -11.4100    6.4820   71.3450 H       1  UNL1        0.0360
     74 H          -9.5940    6.6300   70.8490 H       1  UNL1        0.0360
     75 C         -10.2480    7.9740   72.4460 C.3     1  UNL1       -0.0010
     76 C          -8.6280    8.1830   72.6350 C.3     1  UNL1       -0.0350
     77 C          -8.2870    7.8310   73.8980 C.3     1  UNL1        0.0850
     78 H          -8.0840    7.4710   72.0160 H       1  UNL1        0.0360
     79 H          -8.3810    9.2440   72.5910 H       1  UNL1        0.0360
     80 N          -9.4660    7.0920   74.4840 N.4     1  UNL1       -0.0490
     81 H          -7.4510    7.1390   73.7920 H       1  UNL1        0.0750
     82 H          -8.1530    8.7690   74.4360 H       1  UNL1        0.0750
     83 C         -10.7120    7.3970   73.5040 C.3     1  UNL1        0.1930
     84 H          -9.2450    6.1080   74.4270 H       1  UNL1        0.2800
     85 H          -9.6520    7.5170   75.3820 H       1  UNL1        0.2800
     86 H         -11.4850    8.1080   73.7960 H       1  UNL1        0.1290
     87 H         -10.8730    8.8660   72.4930 H       1  UNL1        0.0460
     88 O         -11.4050    6.1850   73.1970 O.3     1  UNL1       -0.3690
     89 H         -11.3510    6.0160   72.2540 H       1  UNL1        0.2120
     90 C          -7.9010    6.1620   67.0760 C.3     1  UNL1       -0.0350
     91 H          -7.0560    6.8360   66.9310 H       1  UNL1        0.0370
     92 H          -8.1730    5.8400   68.0810 H       1  UNL1        0.0370
     93 C          -7.5730    4.8650   66.2700 C.3     1  UNL1       -0.0590
     94 H          -7.3460    4.0780   66.9880 H       1  UNL1        0.0380
     95 C          -8.7840    4.3870   65.4060 C.3     1  UNL1       -0.0730
     96 H          -8.4280    4.0680   64.4270 H       1  UNL1        0.0280
     97 H          -9.2780    3.5520   65.9030 H       1  UNL1        0.0280
     98 H          -9.4910    5.2080   65.2860 H       1  UNL1        0.0280
     99 C          -6.3280    5.0610   65.4010 C.3     1  UNL1       -0.0730
    100 H          -6.2520    4.2420   64.6850 H       1  UNL1        0.0280
    101 H          -6.4050    6.0070   64.8650 H       1  UNL1        0.0280
    102 H          -5.4420    5.0730   66.0340 H       1  UNL1        0.0280
@<TRIPOS>BOND
     1    30    29    1
     2    11    10    2
     3    31    29    1
     4     8     7    1
     5    29    32    1
     6    29    13    1
     7    10    13    1
     8    10     9   am
     9     5     4    2
    10    18    15    1
    11    13    15    1
    12    13    14    1
    13     7     4    1
    14     7     9    1
    15     7    33    1
    16    34    33    1
    17    96    95    1
    18    15    16   am
    19    41    39    1
    20   100    99    1
    21     4     3   am
    22     9    12    1
    23    40    39    1
    24   101    99    1
    25    33    39    1
    26    33    35    1
    27    39    42    1
    28    98    95    1
    29    24    23   ar
    30    24    19   ar
    31    99   102    1
    32    99    93    1
    33    95    97    1
    34    95    93    1
    35    16    19    1
    36    16    17    2
    37     2     1    1
    38    23    21   ar
    39    19    20   ar
    40     3     1    1
    41     3     6    1
    42    93    94    1
    43    93    90    1
    44    35    37    1
    45    35    36    1
    46    35    38    1
    47    21    20   ar
    48    21    25    1
    49    20    22    1
    50    26    25    1
    51     1    90    1
    52     1    43    1
    53    91    90    1
    54    90    92    1
    55    25    28    1
    56    25    27    1
    57    56    55    2
    58    44    43    2
    59    43    45   am
    60    60    58    1
    61    55    57    1
    62    55    52    1
    63    57    58    1
    64    45    46    1
    65    45    47    1
    66    58    59    1
    67    58    61    1
    68    54    52    1
    69    52    53    1
    70    52    49    1
    71    48    47    1
    72    71    69    1
    73    47    49    1
    74    47    72    1
    75    61    69   ar
    76    61    62   ar
    77    50    49    1
    78    69    67   ar
    79    49    51    1
    80    74    72    1
    81    64    62    1
    82    72    73    1
    83    72    75    1
    84    62    63   ar
    85    67    70    1
    86    67    65   ar
    87    78    76    1
    88    63    65   ar
    89    63    66    1
    90    89    88    1
    91    65    68    1
    92    75    87    1
    93    75    76    1
    94    75    83    1
    95    79    76    1
    96    76    77    1
    97    88    83    1
    98    83    86    1
    99    83    80    1
   100    81    77    1
   101    77    82    1
   102    77    80    1
   103    84    80    1
   104    80    85    1
@<TRIPOS>MOLECULE
crystal_redock_e32_er3_1.pdbqt
 102 104 0 0 0
SMALL
GASTEIGER

@<TRIPOS>ATOM
      1 C         -12.1970   13.8200   69.5080 C.3     1  UNL1        0.0890
      2 H         -13.1300   13.5700   69.0040 H       1  UNL1        0.0870
      3 N         -11.6880   12.6010   70.1190 N.am    1  UNL1       -0.3460
      4 C         -11.7680   11.2890   69.3820 C.2     1  UNL1        0.2410
      5 O         -12.2480   11.2380   68.2970 O.2     1  UNL1       -0.2710
      6 H         -11.2860   12.6660   71.0440 H       1  UNL1        0.1630
      7 C         -11.2320   10.0380   70.0270 C.3     1  UNL1        0.0920
      8 H         -11.3660    9.1970   69.3460 H       1  UNL1        0.0880
      9 N          -9.7920   10.1850   70.2560 N.am    1  UNL1       -0.3460
     10 C          -8.8530    9.4910   69.4090 C.2     1  UNL1        0.2400
     11 O          -9.2400    8.8100   68.5390 O.2     1  UNL1       -0.2710
     12 H          -9.4430   10.7670   71.0040 H       1  UNL1        0.1630
     13 C          -7.3210    9.6480   69.6600 C.3     1  UNL1        0.0860
     14 H          -6.7170    9.1090   68.9310 H       1  UNL1        0.0860
     15 N          -6.9650   11.0520   69.5370 N.am    1  UNL1       -0.3430
     16 C          -5.9160   11.4510   68.5960 C.2     1  UNL1        0.2730
     17 O          -5.3620   10.6340   67.9450 O.2     1  UNL1       -0.2660
     18 H          -7.4410   11.7430   70.0990 H       1  UNL1        0.1630
     19 C          -5.5310   12.9310   68.4540 C.ar    1  UNL1        0.1540
     20 C          -5.0420   13.8000   69.4810 C.ar    1  UNL1       -0.0170
     21 C          -4.8410   15.0430   68.8410 C.ar    1  UNL1        0.0770
     22 H          -4.8610   13.5640   70.5300 H       1  UNL1        0.0910
     23 O          -5.1770   14.8950   67.5930 O.2     1  UNL1       -0.2180
     24 N          -5.5830   13.6710   67.3430 N.ar    1  UNL1       -0.1230
     25 C          -4.3260   16.3200   69.4930 C.3     1  UNL1       -0.0290
     26 H          -5.0780   17.1040   69.4000 H       1  UNL1        0.0360
     27 H          -4.1230   16.1330   70.5470 H       1  UNL1        0.0360
     28 H          -3.4080   16.6360   68.9970 H       1  UNL1        0.0360
     29 C          -6.9810    9.1480   71.0410 C.3     1  UNL1       -0.0490
     30 H          -6.2860    8.3120   70.9640 H       1  UNL1        0.0300
     31 H          -6.5200    9.9520   71.6150 H       1  UNL1        0.0300
     32 H          -7.8910    8.8190   71.5410 H       1  UNL1        0.0300
     33 C         -11.9500    9.8090   71.3890 C.3     1  UNL1       -0.0330
     34 H         -11.7740   10.6900   72.0060 H       1  UNL1        0.0420
     35 C         -13.4930    9.6680   71.2010 C.3     1  UNL1       -0.0710
     36 H         -14.0050   10.3640   71.8670 H       1  UNL1        0.0280
     37 H         -13.7550    9.8960   70.1680 H       1  UNL1        0.0280
     38 H         -13.7960    8.6490   71.4380 H       1  UNL1        0.0280
     39 C         -11.3560    8.5700   72.1340 C.3     1  UNL1       -0.0710
     40 H         -12.1670    7.9420   72.4990 H       1  UNL1        0.0280
     41 H         -10.7330    7.9970   71.4460 H       1  UNL1        0.0280
     42 H         -10.7510    8.9090   72.9750 H       1  UNL1        0.0280
     43 C         -11.1240   14.3640   68.5220 C.2     1  UNL1        0.2400
     44 O         -10.0470   14.6650   68.9260 O.2     1  UNL1       -0.2710
     45 N         -11.4350   14.5010   67.0700 N.am    1  UNL1       -0.3550
     46 H         -12.3440   14.2440   66.7140 H       1  UNL1        0.1620
     47 C         -10.4040   15.0190   66.1450 C.3     1  UNL1        0.0130
     48 H          -9.4310   14.8800   66.6160 H       1  UNL1        0.0720
     49 C         -10.6500   16.4890   65.8940 C.3     1  UNL1       -0.0380
     50 H         -10.4440   16.6460   64.8350 H       1  UNL1        0.0360
     51 H         -11.6450   16.6930   66.2920 H       1  UNL1        0.0360
     52 C          -9.6740   17.4020   66.6680 C.3     1  UNL1        0.0180
     53 H          -9.8170   17.1600   67.7220 H       1  UNL1        0.0480
     54 H          -8.7000   17.2540   66.2020 H       1  UNL1        0.0480
     55 C          -9.9900   18.9170   66.5300 C.2     1  UNL1        0.2590
     56 O         -10.7090   19.3070   65.6680 O.2     1  UNL1       -0.2650
     57 O          -9.3990   19.8380   67.4380 O.3     1  UNL1       -0.3170
     58 C          -8.6960   19.2190   68.5200 C.3     1  UNL1        0.0520
     59 H          -9.2170   19.5270   69.4260 H       1  UNL1        0.0820
     60 H          -8.6300   18.1620   68.2620 H       1  UNL1        0.0820
     61 C          -7.2590   19.8050   68.5550 C.ar    1  UNL1       -0.0340
     62 C          -6.8360   20.6730   67.5540 C.ar    1  UNL1       -0.0750
     63 C          -5.5460   21.2000   67.5850 C.ar    1  UNL1       -0.0820
     64 H          -7.5160   20.9410   66.7440 H       1  UNL1        0.0840
     65 C          -4.6760   20.8540   68.6230 C.ar    1  UNL1       -0.0830
     66 H          -5.2190   21.8820   66.8000 H       1  UNL1        0.0830
     67 C          -5.1020   19.9850   69.6180 C.ar    1  UNL1       -0.0820
     68 H          -3.6660   21.2620   68.6550 H       1  UNL1        0.0830
     69 C          -6.3910   19.4570   69.5920 C.ar    1  UNL1       -0.0750
     70 H          -4.4200   19.7150   70.4250 H       1  UNL1        0.0830
     71 H          -6.7180   18.7760   70.3780 H       1  UNL1        0.0840
     72 C         -10.4670   14.2580   64.8230 C.3     1  UNL1       -0.0390
     73 H         -11.1060   14.8570   64.1730 H       1  UNL1        0.0360
     74 H          -9.4300   14.0710   64.5450 H       1  UNL1        0.0360
     75 C         -11.1750   12.8310   64.9940 C.3     1  UNL1       -0.0010
     76 C         -10.0410   11.6390   64.9840 C.3     1  UNL1       -0.0350
     77 C         -10.4050   10.6980   64.0800 C.3     1  UNL1        0.0850
     78 H          -9.1010   12.0220   64.5890 H       1  UNL1        0.0360
     79 H         -10.0560   11.1010   65.9320 H       1  UNL1        0.0360
     80 N         -11.5080   11.2960   63.2400 N.4     1  UNL1       -0.0490
     81 H          -9.5270   10.5410   63.4530 H       1  UNL1        0.0750
     82 H         -10.8120    9.8740   64.6650 H       1  UNL1        0.0750
     83 C         -12.0130   12.6060   64.0370 C.3     1  UNL1        0.1930
     84 H         -11.0810   11.5910   62.3740 H       1  UNL1        0.2800
     85 H         -12.2580   10.6190   63.2280 H       1  UNL1        0.2800
     86 H         -12.9500   12.5890   64.5940 H       1  UNL1        0.1290
     87 H         -11.8960   12.8220   65.8110 H       1  UNL1        0.0460
     88 O         -12.1200   13.7160   63.1430 O.3     1  UNL1       -0.3690
     89 H         -11.6860   14.4800   63.5290 H       1  UNL1        0.2120
     90 C         -12.4590   14.8490   70.5960 C.3     1  UNL1       -0.0350
     91 H         -11.4930   15.0180   71.0730 H       1  UNL1        0.0370
     92 H         -12.9720   15.6720   70.0980 H       1  UNL1        0.0370
     93 C         -13.4210   14.3430   71.7180 C.3     1  UNL1       -0.0590
     94 H         -13.5040   13.2610   71.6190 H       1  UNL1        0.0380
     95 C         -12.8730   14.6510   73.1480 C.3     1  UNL1       -0.0730
     96 H         -12.2310   13.8330   73.4740 H       1  UNL1        0.0280
     97 H         -12.2980   15.5770   73.1250 H       1  UNL1        0.0280
     98 H         -13.7070   14.7570   73.8410 H       1  UNL1        0.0280
     99 C         -14.8260   14.9250   71.5360 C.3     1  UNL1       -0.0730
    100 H         -15.3590   14.3580   70.7730 H       1  UNL1        0.0280
    101 H         -15.3680   14.8650   72.4800 H       1  UNL1        0.0280
    102 H         -14.7500   15.9680   71.2270 H       1  UNL1        0.0280
@<TRIPOS>BOND
     1    84    80    1
     2    88    89    1
     3    88    83    1
     4    85    80    1
     5    80    83    1
     6    80    77    1
     7    81    77    1
     8    83    86    1
     9    83    75    1
    10    77    82    1
    11    77    76    1
    12    73    72    1
    13    74    72    1
    14    78    76    1
    15    72    75    1
    16    72    47    1
    17    50    49    1
    18    76    75    1
    19    76    79    1
    20    75    87    1
    21    56    55    2
    22    49    47    1
    23    49    51    1
    24    49    52    1
    25    47    48    1
    26    47    45    1
    27    54    52    1
    28    55    52    1
    29    55    57    1
    30    52    53    1
    31    46    45    1
    32    64    62    1
    33    66    63    1
    34    45    43   am
    35    24    23   ar
    36    24    19   ar
    37    57    58    1
    38    62    63   ar
    39    62    61   ar
    40    63    65   ar
    41    23    21   ar
    42    17    16    2
    43    60    58    1
    44     5     4    2
    45    19    16    1
    46    19    20   ar
    47    58    61    1
    48    58    59    1
    49    43    44    2
    50    43     1    1
    51    11    10    2
    52    61    69   ar
    53    16    15   am
    54    65    68    1
    55    65    67   ar
    56    21    20   ar
    57    21    25    1
    58    14    13    1
    59    28    25    1
    60     2     1    1
    61     8     7    1
    62     4     7    1
    63     4     3   am
    64    26    25    1
    65    10    13    1
    66    10     9   am
    67    20    22    1
    68    25    27    1
    69     1     3    1
    70     1    90    1
    71    15    13    1
    72    15    18    1
    73    69    67   ar
    74    69    71    1
    75    67    70    1
    76    13    29    1
    77     7     9    1
    78     7    33    1
    79    92    90    1
    80     3     6    1
    81    37    35    1
    82     9    12    1
    83    90    91    1
    84    90    93    1
    85   100    99    1
    86    30    29    1
    87    29    32    1
    88    29    31    1
    89    35    33    1
    90    35    38    1
    91    35    36    1
    92   102    99    1
    93    33    34    1
    94    33    39    1
    95    41    39    1
    96    99    93    1
    97    99   101    1
    98    94    93    1
    99    93    95    1
   100    39    40    1
   101    39    42    1
   102    97    95    1
   103    95    96    1
   104    95    98    1
@<TRIPOS>MOLECULE
crystal_redock_e32_er3_1.pdbqt
 102 104 0 0 0
SMALL
GASTEIGER

@<TRIPOS>ATOM
      1 C          -8.3690    9.1920   65.7100 C.3     1  UNL1        0.0890
      2 H          -8.2970    9.1030   64.6260 H       1  UNL1        0.0870
      3 N          -9.5340   10.0120   66.0070 N.am    1  UNL1       -0.3460
      4 C         -10.0470   11.0020   64.9920 C.2     1  UNL1        0.2410
      5 O          -9.5030   11.1240   63.9440 O.2     1  UNL1       -0.2710
      6 H          -9.9810    9.8950   66.9050 H       1  UNL1        0.1630
      7 C         -11.2570   11.8380   65.3140 C.3     1  UNL1        0.0920
      8 H         -12.0970   11.1810   65.5410 H       1  UNL1        0.0880
      9 N         -10.9950   12.6380   66.5140 N.am    1  UNL1       -0.3460
     10 C         -11.4460   12.1720   67.8030 C.2     1  UNL1        0.2400
     11 O         -12.0230   11.1580   67.8910 O.2     1  UNL1       -0.2710
     12 H         -10.4990   13.5160   66.4530 H       1  UNL1        0.1630
     13 C         -11.1660   13.0290   69.0760 C.3     1  UNL1        0.0860
     14 H         -10.1500   12.9090   69.4500 H       1  UNL1        0.0860
     15 N         -11.3240   14.4350   68.7430 N.am    1  UNL1       -0.3430
     16 C         -10.1500   15.2200   68.3530 C.2     1  UNL1        0.2730
     17 O          -9.0840   14.7120   68.3140 O.2     1  UNL1       -0.2660
     18 H         -12.2390   14.8620   68.7810 H       1  UNL1        0.1630
     19 C         -10.3030   16.7070   67.9960 C.ar    1  UNL1        0.1540
     20 C         -10.2380   17.2940   66.6930 C.ar    1  UNL1       -0.0170
     21 C         -10.4380   18.6760   66.9070 C.ar    1  UNL1        0.0770
     22 H         -10.0710   16.7950   65.7390 H       1  UNL1        0.0910
     23 O         -10.6000   18.8510   68.1860 O.2     1  UNL1       -0.2180
     24 N         -10.5240   17.7160   68.8430 N.ar    1  UNL1       -0.1230
     25 C         -10.4620   19.7600   65.8370 C.3     1  UNL1       -0.0290
     26 H         -11.4450   20.2300   65.8180 H       1  UNL1        0.0360
     27 H          -9.7050   20.5110   66.0640 H       1  UNL1        0.0360
     28 H         -10.2520   19.3150   64.8640 H       1  UNL1        0.0360
     29 C         -12.1350   12.6450   70.1660 C.3     1  UNL1       -0.0490
     30 H         -13.0960   12.3850   69.7230 H       1  UNL1        0.0300
     31 H         -11.7430   11.7890   70.7150 H       1  UNL1        0.0300
     32 H         -12.2660   13.4850   70.8480 H       1  UNL1        0.0300
     33 C         -11.5640   12.7880   64.1190 C.3     1  UNL1       -0.0330
     34 H         -10.6450   12.8990   63.5430 H       1  UNL1        0.0420
     35 C         -12.6420   12.1770   63.1690 C.3     1  UNL1       -0.0710
     36 H         -13.6350   12.3810   63.5690 H       1  UNL1        0.0280
     37 H         -12.5490   12.6240   62.1800 H       1  UNL1        0.0280
     38 H         -12.4930   11.1000   63.0970 H       1  UNL1        0.0280
     39 C         -11.9920   14.2030   64.6240 C.3     1  UNL1       -0.0710
     40 H         -11.1170   14.7360   64.9960 H       1  UNL1        0.0280
     41 H         -12.4350   14.7640   63.8010 H       1  UNL1        0.0280
     42 H         -12.7210   14.0970   65.4260 H       1  UNL1        0.0280
     43 C          -8.5460    7.8100   66.4020 C.2     1  UNL1        0.2400
     44 O          -7.6050    7.2610   66.8770 O.2     1  UNL1       -0.2710
     45 N          -9.8930    7.1740   66.4810 N.am    1  UNL1       -0.3550
     46 H         -10.7010    7.6330   66.0870 H       1  UNL1        0.1620
     47 C         -10.0450    5.8610   67.1440 C.3     1  UNL1        0.0130
     48 H          -9.0570    5.5280   67.4600 H       1  UNL1        0.0720
     49 C         -10.6340    4.8720   66.1630 C.3     1  UNL1       -0.0380
     50 H         -11.1080    4.1010   66.7710 H       1  UNL1        0.0360
     51 H         -11.2310    5.4650   65.4710 H       1  UNL1        0.0360
     52 C          -9.5600    4.1590   65.3130 C.3     1  UNL1        0.0180
     53 H          -8.6250    4.6810   65.5200 H       1  UNL1        0.0480
     54 H          -9.6550    3.0980   65.5470 H       1  UNL1        0.0480
     55 C          -9.7900    4.2830   63.7820 C.2     1  UNL1        0.2590
     56 O         -10.7080    3.7360   63.2630 O.2     1  UNL1       -0.2650
     57 O          -8.8800    5.0480   63.0000 O.3     1  UNL1       -0.3170
     58 C          -7.6770    5.4020   63.6870 C.3     1  UNL1        0.0520
     59 H          -7.9560    5.5070   64.7360 H       1  UNL1        0.0820
     60 H          -6.9390    4.6560   63.3920 H       1  UNL1        0.0820
     61 C          -7.2130    6.7860   63.1610 C.ar    1  UNL1       -0.0340
     62 C          -5.8970    7.1960   63.3440 C.ar    1  UNL1       -0.0750
     63 C          -5.4810    8.4400   62.8710 C.ar    1  UNL1       -0.0820
     64 H          -5.1910    6.5440   63.8580 H       1  UNL1        0.0840
     65 C          -6.3880    9.2760   62.2150 C.ar    1  UNL1       -0.0830
     66 H          -4.4480    8.7580   63.0140 H       1  UNL1        0.0830
     67 C          -7.7010    8.8640   62.0370 C.ar    1  UNL1       -0.0820
     68 H          -6.0710   10.2500   61.8410 H       1  UNL1        0.0830
     69 C          -8.1210    7.6210   62.5060 C.ar    1  UNL1       -0.0750
     70 H          -8.4070    9.5200   61.5260 H       1  UNL1        0.0830
     71 H          -9.1540    7.3040   62.3620 H       1  UNL1        0.0840
     72 C         -10.9710    5.9960   68.3510 C.3     1  UNL1       -0.0390
     73 H         -11.6640    6.7980   68.0960 H       1  UNL1        0.0360
     74 H         -11.3480    4.9910   68.5410 H       1  UNL1        0.0360
     75 C         -10.1740    6.4570   69.6610 C.3     1  UNL1       -0.0010
     76 C         -10.6190    5.5290   70.9440 C.3     1  UNL1       -0.0350
     77 C         -10.9650    6.3420   71.9710 C.3     1  UNL1        0.0850
     78 H         -11.5430    4.9970   70.7170 H       1  UNL1        0.0360
     79 H          -9.7570    4.9850   71.3290 H       1  UNL1        0.0360
     80 N         -11.1110    7.7330   71.4040 N.4     1  UNL1       -0.0490
     81 H         -11.9420    5.9900   72.3040 H       1  UNL1        0.0750
     82 H         -10.1170    6.3240   72.6550 H       1  UNL1        0.0750
     83 C         -10.4180    7.6930   69.9460 C.3     1  UNL1        0.1930
     84 H         -12.1010    7.8920   71.2850 H       1  UNL1        0.2800
     85 H         -10.5690    8.3430   72.0000 H       1  UNL1        0.2800
     86 H          -9.4320    8.1310   69.7890 H       1  UNL1        0.1290
     87 H          -9.1050    6.5680   69.4770 H       1  UNL1        0.0460
     88 O         -11.2690    8.3110   68.9790 O.3     1  UNL1       -0.3690
     89 H         -11.4420    9.2180   69.2390 H       1  UNL1        0.2120
     90 C          -7.1270    9.8800   66.2540 C.3     1  UNL1       -0.0350
     91 H          -6.4920    9.0760   66.6280 H       1  UNL1        0.0370
     92 H          -6.7740   10.5200   65.4450 H       1  UNL1        0.0370
     93 C          -7.4120   10.8190   67.4690 C.3     1  UNL1       -0.0590
     94 H          -8.4920   10.9390   67.5480 H       1  UNL1        0.0380
     95 C          -6.9000   10.2130   68.8150 C.3     1  UNL1       -0.0730
     96 H          -7.7500    9.8800   69.4090 H       1  UNL1        0.0280
     97 H          -6.2470    9.3640   68.6060 H       1  UNL1        0.0280
     98 H          -6.3440   10.9710   69.3670 H       1  UNL1        0.0280
     99 C          -6.8150   12.2090   67.2370 C.3     1  UNL1       -0.0730
    100 H          -7.2040   12.6210   66.3050 H       1  UNL1        0.0280
    101 H          -7.0880   12.8640   68.0650 H       1  UNL1        0.0280
    102 H          -5.7300   12.1340   67.1750 H       1  UNL1        0.0280
@<TRIPOS>BOND
     1    70    67    1
     2    68    65    1
     3    67    65   ar
     4    67    69   ar
     5    37    35    1
     6    65    63   ar
     7    71    69    1
     8    69    61   ar
     9    63    66    1
    10    63    62   ar
    11    57    58    1
    12    57    55    1
    13    38    35    1
    14    61    62   ar
    15    61    58    1
    16    35    36    1
    17    35    33    1
    18    56    55    2
    19    62    64    1
    20    60    58    1
    21    34    33    1
    22    58    59    1
    23    55    52    1
    24    41    39    1
    25     5     4    2
    26    33    39    1
    27    33     7    1
    28    39    40    1
    29    39    42    1
    30     2     1    1
    31    28    25    1
    32     4     7    1
    33     4     3   am
    34    52    53    1
    35    52    54    1
    36    52    49    1
    37     7     8    1
    38     7     9    1
    39    92    90    1
    40    51    49    1
    41     1     3    1
    42     1    90    1
    43     1    43    1
    44    22    20    1
    45    26    25    1
    46    25    27    1
    47    25    21    1
    48     3     6    1
    49    46    45    1
    50    49    50    1
    51    49    47    1
    52    90    91    1
    53    90    93    1
    54   100    99    1
    55    43    45   am
    56    43    44    2
    57    12     9    1
    58    45    47    1
    59     9    10   am
    60    20    21   ar
    61    20    19   ar
    62    21    23   ar
    63    47    48    1
    64    47    72    1
    65   102    99    1
    66    99    93    1
    67    99   101    1
    68    93    94    1
    69    93    95    1
    70    10    11    2
    71    10    13    1
    72    19    16    1
    73    19    24   ar
    74    73    72    1
    75    23    24   ar
    76    17    16    2
    77    72    74    1
    78    72    75    1
    79    16    15   am
    80    97    95    1
    81    15    18    1
    82    15    13    1
    83    95    98    1
    84    95    96    1
    85    88    89    1
    86    88    83    1
    87    13    14    1
    88    13    29    1
    89    87    75    1
    90    75    83    1
    91    75    76    1
    92    30    29    1
    93    86    83    1
    94    83    80    1
    95    29    31    1
    96    29    32    1
    97    78    76    1
    98    76    79    1
    99    76    77    1
   100    84    80    1
   101    80    77    1
   102    80    85    1
   103    77    81    1
   104    77    82    1
@<TRIPOS>MOLECULE
crystal_redock_e32_er3_1.pdbqt
 102 104 0 0 0
SMALL
GASTEIGER

@<TRIPOS>ATOM
      1 C         -11.7760   13.5650   69.6170 C.3     1  UNL1        0.0890
      2 H         -12.7320   13.5430   69.0930 H       1  UNL1        0.0870
      3 N         -11.5480   12.2370   70.1690 N.am    1  UNL1       -0.3460
      4 C         -11.8420   11.0090   69.3450 C.2     1  UNL1        0.2410
      5 O         -12.2640   11.1140   68.2400 O.2     1  UNL1       -0.2710
      6 H         -11.1910   12.1700   71.1110 H       1  UNL1        0.1630
      7 C         -11.5950    9.6430   69.9300 C.3     1  UNL1        0.0920
      8 H         -12.2770    8.9280   69.4710 H       1  UNL1        0.0880
      9 N         -10.2320    9.2120   69.6070 N.am    1  UNL1       -0.3460
     10 C         -10.0210    8.0390   68.7940 C.2     1  UNL1        0.2400
     11 O         -10.9370    7.4300   68.3930 O.2     1  UNL1       -0.2710
     12 H          -9.4320    9.7260   69.9470 H       1  UNL1        0.1630
     13 C          -8.5680    7.5830   68.4560 C.3     1  UNL1        0.0860
     14 H          -8.3780    6.5450   68.7270 H       1  UNL1        0.0860
     15 N          -8.3650    7.6820   67.0200 N.am    1  UNL1       -0.3430
     16 C          -8.5680    8.9680   66.3490 C.2     1  UNL1        0.2730
     17 O          -8.8970    9.9160   66.9730 O.2     1  UNL1       -0.2660
     18 H          -8.0860    6.8650   66.4940 H       1  UNL1        0.1630
     19 C          -8.3550    9.0870   64.8320 C.ar    1  UNL1        0.1540
     20 C          -8.2670   10.2900   64.0630 C.ar    1  UNL1       -0.0170
     21 C          -8.0710    9.8580   62.7320 C.ar    1  UNL1        0.0770
     22 H          -8.3350   11.3200   64.4160 H       1  UNL1        0.0910
     23 O          -8.0490    8.5580   62.7470 O.2     1  UNL1       -0.2180
     24 N          -8.2130    8.0840   63.9610 N.ar    1  UNL1       -0.1230
     25 C          -7.9130   10.7510   61.5090 C.3     1  UNL1       -0.0290
     26 H          -6.8910   10.6820   61.1370 H       1  UNL1        0.0360
     27 H          -8.6050   10.4270   60.7310 H       1  UNL1        0.0360
     28 H          -8.1320   11.7840   61.7810 H       1  UNL1        0.0360
     29 C          -7.5810    8.4640   69.1790 C.3     1  UNL1       -0.0490
     30 H          -7.9730    9.4790   69.2350 H       1  UNL1        0.0300
     31 H          -7.4210    8.0800   70.1860 H       1  UNL1        0.0300
     32 H          -6.6350    8.4690   68.6370 H       1  UNL1        0.0300
     33 C         -11.7640    9.7040   71.4760 C.3     1  UNL1       -0.0330
     34 H         -11.2880   10.6210   71.8240 H       1  UNL1        0.0420
     35 C         -13.2690    9.7740   71.8810 C.3     1  UNL1       -0.0710
     36 H         -13.8720    9.2640   71.1290 H       1  UNL1        0.0280
     37 H         -13.4080    9.2890   72.8470 H       1  UNL1        0.0280
     38 H         -13.5790   10.8160   71.9500 H       1  UNL1        0.0280
     39 C         -11.0480    8.4980   72.1650 C.3     1  UNL1       -0.0710
     40 H         -11.7740    7.9240   72.7400 H       1  UNL1        0.0280
     41 H         -10.6000    7.8580   71.4040 H       1  UNL1        0.0280
     42 H         -10.2690    8.8700   72.8310 H       1  UNL1        0.0280
     43 C         -10.5950   13.9150   68.6670 C.2     1  UNL1        0.2400
     44 O          -9.6190   13.2360   68.6610 O.2     1  UNL1       -0.2710
     45 N         -10.6830   15.0940   67.7590 N.am    1  UNL1       -0.3550
     46 H         -11.5080   15.6760   67.7520 H       1  UNL1        0.1620
     47 C          -9.5520   15.4140   66.8610 C.3     1  UNL1        0.0130
     48 H          -8.7610   14.6860   67.0460 H       1  UNL1        0.0720
     49 C          -9.0510   16.8080   67.1640 C.3     1  UNL1       -0.0380
     50 H          -8.5740   16.7440   68.1430 H       1  UNL1        0.0360
     51 H          -8.4700   17.1080   66.2930 H       1  UNL1        0.0360
     52 C         -10.1940   17.8380   67.3020 C.3     1  UNL1        0.0180
     53 H         -11.1180   17.2590   67.2740 H       1  UNL1        0.0480
     54 H          -9.9500   18.4330   68.1830 H       1  UNL1        0.0480
     55 C         -10.2790   18.8400   66.1180 C.2     1  UNL1        0.2590
     56 O         -11.0210   18.6410   65.2120 O.2     1  UNL1       -0.2650
     57 O          -9.4500   19.9960   66.1230 O.3     1  UNL1       -0.3170
     58 C          -8.8060   20.2460   67.3750 C.3     1  UNL1        0.0520
     59 H          -9.2080   21.1960   67.7290 H       1  UNL1        0.0820
     60 H          -8.9480   19.3410   67.9660 H       1  UNL1        0.0820
     61 C          -7.2880   20.4240   67.1070 C.ar    1  UNL1       -0.0340
     62 C          -6.4270   20.7390   68.1530 C.ar    1  UNL1       -0.0750
     63 C          -5.0640   20.8990   67.9120 C.ar    1  UNL1       -0.0820
     64 H          -6.8210   20.8600   69.1620 H       1  UNL1        0.0840
     65 C          -4.5620   20.7450   66.6170 C.ar    1  UNL1       -0.0830
     66 H          -4.3920   21.1430   68.7340 H       1  UNL1        0.0830
     67 C          -5.4250   20.4340   65.5750 C.ar    1  UNL1       -0.0820
     68 H          -3.4970   20.8680   66.4190 H       1  UNL1        0.0830
     69 C          -6.7880   20.2710   65.8120 C.ar    1  UNL1       -0.0750
     70 H          -5.0300   20.3170   64.5650 H       1  UNL1        0.0830
     71 H          -7.4590   20.0250   64.9890 H       1  UNL1        0.0840
     72 C         -10.0100   15.3420   65.4060 C.3     1  UNL1       -0.0390
     73 H         -10.2760   16.3640   65.1350 H       1  UNL1        0.0360
     74 H          -9.2090   14.8280   64.8750 H       1  UNL1        0.0360
     75 C         -11.3320   14.4510   65.2450 C.3     1  UNL1       -0.0010
     76 C         -10.9250   12.9210   64.7980 C.3     1  UNL1       -0.0350
     77 C         -11.6540   12.5770   63.7090 C.3     1  UNL1        0.0850
     78 H          -9.8980   12.8990   64.4350 H       1  UNL1        0.0360
     79 H         -11.2500   12.2100   65.5580 H       1  UNL1        0.0360
     80 N         -12.2790   13.8440   63.1770 N.4     1  UNL1       -0.0490
     81 H         -10.9320   12.2040   62.9810 H       1  UNL1        0.0750
     82 H         -12.4400   11.9210   64.0810 H       1  UNL1        0.0750
     83 C         -12.1210   14.9430   64.3490 C.3     1  UNL1        0.1930
     84 H         -11.7170   14.1310   62.3890 H       1  UNL1        0.2800
     85 H         -13.2620   13.6470   63.0520 H       1  UNL1        0.2800
     86 H         -12.9750   15.2190   64.9680 H       1  UNL1        0.1290
     87 H         -12.0070   14.5560   66.0950 H       1  UNL1        0.0460
     88 O         -11.6260   16.1700   63.8110 O.3     1  UNL1       -0.3690
     89 H         -11.7030   16.1530   62.8540 H       1  UNL1        0.2120
     90 C         -11.8340   14.5720   70.7540 C.3     1  UNL1       -0.0350
     91 H         -10.8700   14.4960   71.2570 H       1  UNL1        0.0370
     92 H         -12.1340   15.5120   70.2910 H       1  UNL1        0.0370
     93 C         -12.9190   14.2420   71.8280 C.3     1  UNL1       -0.0590
     94 H         -13.0150   13.1570   71.8790 H       1  UNL1        0.0380
     95 C         -12.5160   14.7510   73.2490 C.3     1  UNL1       -0.0730
     96 H         -13.0570   15.6710   73.4710 H       1  UNL1        0.0280
     97 H         -12.7660   13.9930   73.9910 H       1  UNL1        0.0280
     98 H         -11.4440   14.9450   73.2740 H       1  UNL1        0.0280
     99 C         -14.2840   14.8000   71.4160 C.3     1  UNL1       -0.0730
    100 H         -14.2080   15.2520   70.4260 H       1  UNL1        0.0280
    101 H         -15.0150   13.9920   71.3910 H       1  UNL1        0.0280
    102 H         -14.6010   15.5540   72.1370 H       1  UNL1        0.0280
@<TRIPOS>BOND
     1    27    25    1
     2    26    25    1
     3    25    28    1
     4    25    21    1
     5    84    80    1
     6    21    23   ar
     7    21    20   ar
     8    23    24   ar
     9    89    88    1
    10    81    77    1
    11    85    80    1
    12    80    77    1
    13    80    83    1
    14    77    82    1
    15    77    76    1
    16    88    83    1
    17    24    19   ar
    18    20    22    1
    19    20    19   ar
    20    83    86    1
    21    83    75    1
    22    78    76    1
    23    70    67    1
    24    76    75    1
    25    76    79    1
    26    19    16    1
    27    74    72    1
    28    71    69    1
    29    73    72    1
    30    56    55    2
    31    75    72    1
    32    75    87    1
    33    72    47    1
    34    67    69   ar
    35    67    65   ar
    36    69    61   ar
    37    55    57    1
    38    55    52    1
    39    57    58    1
    40    51    49    1
    41    16    17    2
    42    16    15   am
    43    68    65    1
    44    18    15    1
    45    65    63   ar
    46    47    48    1
    47    47    49    1
    48    47    45    1
    49    15    13    1
    50    61    58    1
    51    61    62   ar
    52    49    52    1
    53    49    50    1
    54    53    52    1
    55    52    54    1
    56    58    59    1
    57    58    60    1
    58    46    45    1
    59    45    43   am
    60    63    62   ar
    61    63    66    1
    62    62    64    1
    63     5     4    2
    64    11    10    2
    65    13    14    1
    66    13    10    1
    67    13    29    1
    68    32    29    1
    69    44    43    2
    70    43     1    1
    71    10     9   am
    72     2     1    1
    73    29    30    1
    74    29    31    1
    75     4     7    1
    76     4     3   am
    77     8     7    1
    78     9     7    1
    79     9    12    1
    80     1     3    1
    81     1    90    1
    82     7    33    1
    83     3     6    1
    84    92    90    1
    85   100    99    1
    86    90    91    1
    87    90    93    1
    88    36    35    1
    89   101    99    1
    90    41    39    1
    91    99    93    1
    92    99   102    1
    93    33    34    1
    94    33    35    1
    95    33    39    1
    96    93    94    1
    97    93    95    1
    98    35    38    1
    99    35    37    1
   100    39    40    1
   101    39    42    1
   102    95    98    1
   103    95    96    1
   104    95    97    1
@<TRIPOS>MOLECULE
crystal_redock_e32_er3_1.pdbqt
 102 104 0 0 0
SMALL
GASTEIGER

@<TRIPOS>ATOM
      1 C          -6.9900   13.0240   68.0850 C.3     1  UNL1        0.0890
      2 H          -6.2500   12.8520   67.3030 H       1  UNL1        0.0870
      3 N          -7.2810   14.4500   68.1070 N.am    1  UNL1       -0.3460
      4 C          -6.2440   15.4460   67.6540 C.2     1  UNL1        0.2410
      5 O          -5.1800   15.0760   67.2800 O.2     1  UNL1       -0.2710
      6 H          -8.1920   14.7440   68.4310 H       1  UNL1        0.1630
      7 C          -6.5640   16.9170   67.6780 C.3     1  UNL1        0.0920
      8 H          -6.3380   17.3490   66.7030 H       1  UNL1        0.0880
      9 N          -8.0000   17.1020   67.9120 N.am    1  UNL1       -0.3460
     10 C          -8.8400   17.6190   66.8590 C.2     1  UNL1        0.2400
     11 O          -8.3770   17.8930   65.8200 O.2     1  UNL1       -0.2710
     12 H          -8.4130   16.8710   68.8040 H       1  UNL1        0.1630
     13 C         -10.3670   17.8150   67.1150 C.3     1  UNL1        0.0860
     14 H         -10.9870   17.2860   66.3920 H       1  UNL1        0.0860
     15 N         -10.6990   17.2750   68.4220 N.am    1  UNL1       -0.3430
     16 C         -11.3100   15.9480   68.5200 C.2     1  UNL1        0.2730
     17 O         -11.5330   15.3240   67.5410 O.2     1  UNL1       -0.2660
     18 H         -10.5080   17.8160   69.2540 H       1  UNL1        0.1630
     19 C         -11.6660   15.3630   69.8960 C.ar    1  UNL1        0.1540
     20 C         -11.7320   16.0640   71.1420 C.ar    1  UNL1       -0.0170
     21 C         -12.0980   15.0840   72.0920 C.ar    1  UNL1        0.0770
     22 H         -11.5430   17.1210   71.3290 H       1  UNL1        0.0910
     23 O         -12.2260   13.9560   71.4550 O.2     1  UNL1       -0.2180
     24 N         -11.9780   14.0940   70.1730 N.ar    1  UNL1       -0.1230
     25 C         -12.3050   15.3070   73.5840 C.3     1  UNL1       -0.0290
     26 H         -12.7140   14.4010   74.0340 H       1  UNL1        0.0360
     27 H         -11.3500   15.5450   74.0510 H       1  UNL1        0.0360
     28 H         -13.0000   16.1330   73.7350 H       1  UNL1        0.0360
     29 C         -10.7030   19.2840   67.0620 C.3     1  UNL1       -0.0490
     30 H         -10.7100   19.6180   66.0250 H       1  UNL1        0.0300
     31 H         -11.6860   19.4480   67.5030 H       1  UNL1        0.0300
     32 H          -9.9550   19.8480   67.6200 H       1  UNL1        0.0300
     33 C          -5.7630   17.6040   68.8230 C.3     1  UNL1       -0.0330
     34 H          -4.7360   17.7240   68.4790 H       1  UNL1        0.0420
     35 C          -6.3230   19.0270   69.1340 C.3     1  UNL1       -0.0710
     36 H          -7.2940   19.1490   68.6530 H       1  UNL1        0.0280
     37 H          -6.4350   19.1460   70.2120 H       1  UNL1        0.0280
     38 H          -5.6330   19.7800   68.7550 H       1  UNL1        0.0280
     39 C          -5.7420   16.7110   70.1050 C.3     1  UNL1       -0.0710
     40 H          -4.7220   16.6380   70.4800 H       1  UNL1        0.0280
     41 H          -6.3790   17.1570   70.8690 H       1  UNL1        0.0280
     42 H          -6.1120   15.7150   69.8590 H       1  UNL1        0.0280
     43 C          -8.3140   12.2520   67.8210 C.2     1  UNL1        0.2400
     44 O          -9.3550   12.7450   68.1150 O.2     1  UNL1       -0.2710
     45 N          -8.2860   10.9000   67.1920 N.am    1  UNL1       -0.3550
     46 H          -7.4080   10.4730   66.9330 H       1  UNL1        0.1620
     47 C          -9.5540   10.1800   66.9460 C.3     1  UNL1        0.0130
     48 H         -10.3660   10.7830   67.3500 H       1  UNL1        0.0720
     49 C          -9.5100    8.8390   67.6440 C.3     1  UNL1       -0.0380
     50 H          -8.5400    8.4090   67.3950 H       1  UNL1        0.0360
     51 H          -9.7670    9.0400   68.6840 H       1  UNL1        0.0360
     52 C         -10.5730    7.8530   67.1140 C.3     1  UNL1        0.0180
     53 H         -11.5350    8.2560   67.4340 H       1  UNL1        0.0480
     54 H         -10.3600    7.7300   66.0520 H       1  UNL1        0.0480
     55 C         -10.4760    6.4330   67.7370 C.2     1  UNL1        0.2590
     56 O         -10.0380    6.2830   68.8310 O.2     1  UNL1       -0.2650
     57 O         -10.9050    5.3080   66.9790 O.3     1  UNL1       -0.3170
     58 C          -9.8590    4.3850   66.6630 C.3     1  UNL1        0.0520
     59 H          -8.9820    4.7350   67.2090 H       1  UNL1        0.0820
     60 H         -10.2670    3.3950   66.8650 H       1  UNL1        0.0820
     61 C          -9.5670    4.4940   65.1430 C.ar    1  UNL1       -0.0340
     62 C          -8.5130    5.2820   64.6900 C.ar    1  UNL1       -0.0750
     63 C          -8.2500    5.3800   63.3250 C.ar    1  UNL1       -0.0820
     64 H          -7.8920    5.8220   65.4060 H       1  UNL1        0.0840
     65 C          -9.0490    4.6890   62.4090 C.ar    1  UNL1       -0.0830
     66 H          -7.4220    5.9960   62.9740 H       1  UNL1        0.0830
     67 C         -10.1010    3.9060   62.8650 C.ar    1  UNL1       -0.0820
     68 H          -8.8500    4.7590   61.3400 H       1  UNL1        0.0830
     69 C         -10.3650    3.8040   64.2290 C.ar    1  UNL1       -0.0750
     70 H         -10.7230    3.3700   62.1480 H       1  UNL1        0.0830
     71 H         -11.1930    3.1870   64.5790 H       1  UNL1        0.0840
     72 C          -9.7450    9.9680   65.4460 C.3     1  UNL1       -0.0390
     73 H          -8.7860    9.5990   65.0800 H       1  UNL1        0.0360
     74 H         -10.6380    9.3500   65.3510 H       1  UNL1        0.0360
     75 C         -10.0420   11.3470   64.6860 C.3     1  UNL1       -0.0010
     76 C         -11.4410   12.0050   65.2460 C.3     1  UNL1       -0.0350
     77 C         -12.2370   12.3000   64.1910 C.3     1  UNL1        0.0850
     78 H         -12.0120   11.2570   65.7950 H       1  UNL1        0.0360
     79 H         -11.2420   12.9780   65.6950 H       1  UNL1        0.0360
     80 N         -11.6500   11.6050   62.9860 N.4     1  UNL1       -0.0490
     81 H         -13.2050   11.8530   64.4220 H       1  UNL1        0.0750
     82 H         -12.1530   13.3780   64.0550 H       1  UNL1        0.0750
     83 C         -10.1570   11.1630   63.4130 C.3     1  UNL1        0.1930
     84 H         -12.2020   10.7730   62.8380 H       1  UNL1        0.2800
     85 H         -11.5820   12.3030   62.2580 H       1  UNL1        0.2800
     86 H          -9.2910   11.7190   63.0530 H       1  UNL1        0.1290
     87 H          -9.1670   11.9960   64.6520 H       1  UNL1        0.0460
     88 O          -9.9200    9.8050   63.0400 O.3     1  UNL1       -0.3690
     89 H          -9.8430    9.2650   63.8300 H       1  UNL1        0.2120
     90 C          -6.4190   12.6130   69.4330 C.3     1  UNL1       -0.0350
     91 H          -6.3700   13.5320   70.0170 H       1  UNL1        0.0370
     92 H          -7.0430   11.7860   69.7710 H       1  UNL1        0.0370
     93 C          -4.9600   12.0620   69.3540 C.3     1  UNL1       -0.0590
     94 H          -4.9110   11.1660   69.9730 H       1  UNL1        0.0380
     95 C          -4.5610   11.6570   67.8980 C.3     1  UNL1       -0.0730
     96 H          -4.7110   12.5060   67.2310 H       1  UNL1        0.0280
     97 H          -3.5120   11.3600   67.8780 H       1  UNL1        0.0280
     98 H          -5.1810   10.8230   67.5710 H       1  UNL1        0.0280
     99 C          -3.9630   13.0690   69.9310 C.3     1  UNL1       -0.0730
    100 H          -4.5010   13.8330   70.4930 H       1  UNL1        0.0280
    101 H          -3.2670   12.5530   70.5940 H       1  UNL1        0.0280
    102 H          -3.4090   13.5390   69.1190 H       1  UNL1        0.0280
@<TRIPOS>BOND
     1    68    65    1
     2    70    67    1
     3    85    80    1
     4    65    67   ar
     5    65    63   ar
     6    84    80    1
     7    67    69   ar
     8    66    63    1
     9    80    83    1
    10    80    77    1
    11    88    83    1
    12    88    89    1
    13    86    83    1
    14    63    62   ar
    15    83    75    1
    16    82    77    1
    17    77    81    1
    18    77    76    1
    19    69    71    1
    20    69    61   ar
    21    87    75    1
    22    75    76    1
    23    75    72    1
    24    62    61   ar
    25    62    64    1
    26    73    72    1
    27    61    58    1
    28    76    79    1
    29    76    78    1
    30    74    72    1
    31    72    47    1
    32    11    10    2
    33    30    29    1
    34    54    52    1
    35    14    13    1
    36    58    60    1
    37    58    57    1
    38    58    59    1
    39     8     7    1
    40    10    13    1
    41    10     9   am
    42    46    45    1
    43    47    45    1
    44    47    48    1
    45    47    49    1
    46    57    55    1
    47    29    13    1
    48    29    31    1
    49    29    32    1
    50    52    53    1
    51    52    49    1
    52    52    55    1
    53    13    15    1
    54    45    43   am
    55    96    95    1
    56     5     4    2
    57     2     1    1
    58    50    49    1
    59    17    16    2
    60    98    95    1
    61    49    51    1
    62     4     7    1
    63     4     3   am
    64     7     9    1
    65     7    33    1
    66    55    56    2
    67    43     1    1
    68    43    44    2
    69    97    95    1
    70    95    93    1
    71     9    12    1
    72     1     3    1
    73     1    90    1
    74     3     6    1
    75    15    16   am
    76    15    18    1
    77    34    33    1
    78    16    19    1
    79    36    35    1
    80    38    35    1
    81    33    35    1
    82    33    39    1
    83   102    99    1
    84    35    37    1
    85    93    90    1
    86    93    99    1
    87    93    94    1
    88    90    92    1
    89    90    91    1
    90    42    39    1
    91    19    24   ar
    92    19    20   ar
    93    99   100    1
    94    99   101    1
    95    39    40    1
    96    39    41    1
    97    24    23   ar
    98    20    22    1
    99    20    21   ar
   100    23    21   ar
   101    21    25    1
   102    25    28    1
   103    25    26    1
   104    25    27    1
@<TRIPOS>MOLECULE
crystal_redock_e32_er3_1.pdbqt
 102 104 0 0 0
SMALL
GASTEIGER

@<TRIPOS>ATOM
      1 C          -6.7690   10.0810   62.8930 C.3     1  UNL1        0.0890
      2 H          -6.1080   10.7420   62.3320 H       1  UNL1        0.0870
      3 N          -6.2660   10.0130   64.2570 N.am    1  UNL1       -0.3460
      4 C          -4.9950   10.7290   64.6370 C.2     1  UNL1        0.2410
      5 O          -4.3920   11.3520   63.8260 O.2     1  UNL1       -0.2710
      6 H          -6.7930    9.4750   64.9310 H       1  UNL1        0.1630
      7 C          -4.4910   10.6510   66.0540 C.3     1  UNL1        0.0920
      8 H          -3.6050   11.2770   66.1550 H       1  UNL1        0.0880
      9 N          -5.5070   11.1900   66.9640 N.am    1  UNL1       -0.3460
     10 C          -5.4390   12.5670   67.3860 C.2     1  UNL1        0.2400
     11 O          -4.5720   13.2560   67.0040 O.2     1  UNL1       -0.2710
     12 H          -6.2600   10.6080   67.3030 H       1  UNL1        0.1630
     13 C          -6.5210   13.1340   68.3560 C.3     1  UNL1        0.0860
     14 H          -6.0900   13.5990   69.2430 H       1  UNL1        0.0860
     15 N          -7.2750   14.1690   67.6690 N.am    1  UNL1       -0.3430
     16 C          -7.1430   15.5630   68.0980 C.2     1  UNL1        0.2730
     17 O          -6.4300   15.8410   68.9990 O.2     1  UNL1       -0.2660
     18 H          -7.8850   13.9220   66.9020 H       1  UNL1        0.1630
     19 C          -7.9340   16.6680   67.3790 C.ar    1  UNL1        0.1540
     20 C          -8.7500   17.6770   67.9800 C.ar    1  UNL1       -0.0170
     21 C          -9.2480   18.4350   66.8970 C.ar    1  UNL1        0.0770
     22 H          -8.9510   17.8360   69.0400 H       1  UNL1        0.0910
     23 O          -8.7660   17.9150   65.8060 O.2     1  UNL1       -0.2180
     24 N          -7.9970   16.8820   66.0620 N.ar    1  UNL1       -0.1230
     25 C         -10.1750   19.6400   66.9900 C.3     1  UNL1       -0.0290
     26 H          -9.9250   20.2250   67.8750 H       1  UNL1        0.0360
     27 H         -10.0570   20.2580   66.1000 H       1  UNL1        0.0360
     28 H         -11.2080   19.2990   67.0600 H       1  UNL1        0.0360
     29 C          -7.4440   12.0230   68.7880 C.3     1  UNL1       -0.0490
     30 H          -7.2540   11.7780   69.8330 H       1  UNL1        0.0300
     31 H          -8.4790   12.3450   68.6730 H       1  UNL1        0.0300
     32 H          -7.2650   11.1430   68.1710 H       1  UNL1        0.0300
     33 C          -4.2040    9.1660   66.4230 C.3     1  UNL1       -0.0330
     34 H          -5.1060    8.5940   66.2050 H       1  UNL1        0.0420
     35 C          -3.0530    8.5760   65.5500 C.3     1  UNL1       -0.0710
     36 H          -3.3580    7.6080   65.1520 H       1  UNL1        0.0280
     37 H          -2.8380    9.2560   64.7260 H       1  UNL1        0.0280
     38 H          -2.1600    8.4530   66.1620 H       1  UNL1        0.0280
     39 C          -3.8930    9.0180   67.9470 C.3     1  UNL1       -0.0710
     40 H          -4.6150    9.5960   68.5230 H       1  UNL1        0.0280
     41 H          -3.9600    7.9670   68.2310 H       1  UNL1        0.0280
     42 H          -2.8870    9.3860   68.1490 H       1  UNL1        0.0280
     43 C          -8.2330   10.6080   62.9310 C.2     1  UNL1        0.2400
     44 O          -8.9180   10.5200   61.9640 O.2     1  UNL1       -0.2710
     45 N          -8.7830   11.2130   64.1770 N.am    1  UNL1       -0.3550
     46 H          -8.2130   11.2890   65.0070 H       1  UNL1        0.1620
     47 C         -10.1770   11.7080   64.1970 C.3     1  UNL1        0.0130
     48 H         -10.5750   11.6320   63.1850 H       1  UNL1        0.0720
     49 C         -10.1890   13.1510   64.6500 C.3     1  UNL1       -0.0380
     50 H          -9.5330   13.1910   65.5200 H       1  UNL1        0.0360
     51 H          -9.9550   13.7390   63.7630 H       1  UNL1        0.0360
     52 C         -11.5810   13.6170   65.1300 C.3     1  UNL1        0.0180
     53 H         -11.9430   14.3020   64.3630 H       1  UNL1        0.0480
     54 H         -12.1360   12.7060   65.3540 H       1  UNL1        0.0480
     55 C         -11.5470   14.4340   66.4510 C.2     1  UNL1        0.2590
     56 O         -11.1650   15.5590   66.4550 O.2     1  UNL1       -0.2650
     57 O         -11.9650   13.8160   67.6630 O.3     1  UNL1       -0.3170
     58 C         -11.1540   14.1460   68.7940 C.3     1  UNL1        0.0520
     59 H         -10.4630   13.3110   68.9140 H       1  UNL1        0.0820
     60 H         -10.7710   15.1470   68.6010 H       1  UNL1        0.0820
     61 C         -12.0750   14.2050   70.0420 C.ar    1  UNL1       -0.0340
     62 C         -12.5670   15.4270   70.4870 C.ar    1  UNL1       -0.0750
     63 C         -13.3940   15.4800   71.6080 C.ar    1  UNL1       -0.0820
     64 H         -12.3060   16.3430   69.9570 H       1  UNL1        0.0840
     65 C         -13.7260   14.3050   72.2870 C.ar    1  UNL1       -0.0830
     66 H         -13.7810   16.4400   71.9530 H       1  UNL1        0.0830
     67 C         -13.2290   13.0880   71.8420 C.ar    1  UNL1       -0.0820
     68 H         -14.3720   14.3370   73.1640 H       1  UNL1        0.0830
     69 C         -12.4040   13.0290   70.7200 C.ar    1  UNL1       -0.0750
     70 H         -13.4880   12.1720   72.3750 H       1  UNL1        0.0830
     71 H         -12.0180   12.0690   70.3760 H       1  UNL1        0.0840
     72 C         -11.0110   10.8640   65.1590 C.3     1  UNL1       -0.0390
     73 H         -11.7130   11.5590   65.6210 H       1  UNL1        0.0360
     74 H         -11.3820   10.0290   64.5660 H       1  UNL1        0.0360
     75 C         -10.1150   10.2470   66.3350 C.3     1  UNL1       -0.0010
     76 C          -9.8360    8.6520   66.0490 C.3     1  UNL1       -0.0350
     77 C         -10.1640    7.9460   67.1570 C.3     1  UNL1        0.0850
     78 H         -10.5310    8.2810   65.2960 H       1  UNL1        0.0360
     79 H          -8.7670    8.4730   65.9400 H       1  UNL1        0.0360
     80 N         -10.9470    8.8730   68.0560 N.4     1  UNL1       -0.0490
     81 H         -10.8220    7.1480   66.8110 H       1  UNL1        0.0750
     82 H          -9.2170    7.7020   67.6380 H       1  UNL1        0.0750
     83 C         -10.7020   10.3610   67.4800 C.3     1  UNL1        0.1930
     84 H         -11.9210    8.6370   67.9330 H       1  UNL1        0.2800
     85 H         -10.5230    8.8100   68.9710 H       1  UNL1        0.2800
     86 H         -10.0210   11.0460   67.9850 H       1  UNL1        0.1290
     87 H          -9.2490   10.8690   66.5640 H       1  UNL1        0.0460
     88 O         -11.9430   11.0620   67.3810 O.3     1  UNL1       -0.3690
     89 H         -11.7750   12.0050   67.3330 H       1  UNL1        0.2120
     90 C          -6.7430    8.6890   62.2840 C.3     1  UNL1       -0.0350
     91 H          -7.7180    8.5610   61.8120 H       1  UNL1        0.0370
     92 H          -5.8370    8.6550   61.6790 H       1  UNL1        0.0370
     93 C          -6.6110    7.5450   63.3400 C.3     1  UNL1       -0.0590
     94 H          -6.5380    8.0100   64.3230 H       1  UNL1        0.0380
     95 C          -7.8580    6.6040   63.3480 C.3     1  UNL1       -0.0730
     96 H          -8.1290    6.3520   62.3230 H       1  UNL1        0.0280
     97 H          -7.6210    5.6920   63.8970 H       1  UNL1        0.0280
     98 H          -8.6930    7.1120   63.8310 H       1  UNL1        0.0280
     99 C          -5.3250    6.7440   63.1200 C.3     1  UNL1       -0.0730
    100 H          -4.9250    6.4260   64.0830 H       1  UNL1        0.0280
    101 H          -5.5440    5.8660   62.5100 H       1  UNL1        0.0280
    102 H          -4.5920    7.3670   62.6090 H       1  UNL1        0.0280
@<TRIPOS>BOND
     1    92    90    1
     2    91    90    1
     3    44    43    2
     4    90     1    1
     5    90    93    1
     6    96    95    1
     7     2     1    1
     8   101    99    1
     9   102    99    1
    10     1    43    1
    11     1     3    1
    12    43    45   am
    13    99    93    1
    14    99   100    1
    15    48    47    1
    16    93    95    1
    17    93    94    1
    18    95    98    1
    19    95    97    1
    20    51    49    1
    21     5     4    2
    22    45    47    1
    23    45    46    1
    24    47    49    1
    25    47    72    1
    26     3     4   am
    27     3     6    1
    28    53    52    1
    29    74    72    1
    30     4     7    1
    31    49    52    1
    32    49    50    1
    33    37    35    1
    34    52    54    1
    35    52    55    1
    36    36    35    1
    37    72    73    1
    38    72    75    1
    39    78    76    1
    40    35    38    1
    41    35    33    1
    42    23    24   ar
    43    23    21   ar
    44    79    76    1
    45    76    75    1
    46    76    77    1
    47     7     8    1
    48     7    33    1
    49     7     9    1
    50    24    19   ar
    51    27    25    1
    52    34    33    1
    53    75    87    1
    54    75    83    1
    55    33    39    1
    56    55    56    2
    57    55    57    1
    58    81    77    1
    59    21    25    1
    60    21    20   ar
    61    18    15    1
    62     9    12    1
    63     9    10   am
    64    25    28    1
    65    25    26    1
    66    11    10    2
    67    77    82    1
    68    77    80    1
    69    89    88    1
    70    19    20   ar
    71    19    16    1
    72    88    83    1
    73    10    13    1
    74    83    86    1
    75    83    80    1
    76    57    58    1
    77    15    16   am
    78    15    13    1
    79    84    80    1
    80    39    42    1
    81    39    41    1
    82    39    40    1
    83    20    22    1
    84    80    85    1
    85    16    17    2
    86    32    29    1
    87    13    29    1
    88    13    14    1
    89    60    58    1
    90    31    29    1
    91    29    30    1
    92    58    59    1
    93    58    61    1
    94    64    62    1
    95    61    62   ar
    96    61    69   ar
    97    71    69    1
    98    62    63   ar
    99    69    67   ar
   100    63    66    1
   101    63    65   ar
   102    67    65   ar
   103    67    70    1
   104    65    68    1
@<TRIPOS>MOLECULE
crystal_redock_e32_er3_1.pdbqt
 102 104 0 0 0
SMALL
GASTEIGER

@<TRIPOS>ATOM
      1 C          -6.2670   11.4120   67.1700 C.3     1  UNL1        0.0890
      2 H          -5.2440   11.1530   66.8970 H       1  UNL1        0.0870
      3 N          -7.0790   11.3210   65.9650 N.am    1  UNL1       -0.3460
      4 C          -7.0400   10.0770   65.1130 C.2     1  UNL1        0.2410
      5 O          -6.3460    9.1630   65.4160 O.2     1  UNL1       -0.2710
      6 H          -7.6610   12.1100   65.7230 H       1  UNL1        0.1630
      7 C          -7.8910    9.9980   63.8730 C.3     1  UNL1        0.0920
      8 H          -8.3700    9.0200   63.8280 H       1  UNL1        0.0880
      9 N          -8.9580   11.0000   63.9460 N.am    1  UNL1       -0.3460
     10 C         -10.0630   10.8100   64.8530 C.2     1  UNL1        0.2400
     11 O         -10.1100    9.8560   65.5300 O.2     1  UNL1       -0.2710
     12 H          -8.9320   11.8270   63.3680 H       1  UNL1        0.1630
     13 C         -11.1970   11.8790   64.9250 C.3     1  UNL1        0.0860
     14 H         -11.9300   11.6650   65.7030 H       1  UNL1        0.0860
     15 N         -10.6100   13.1690   65.2490 N.am    1  UNL1       -0.3430
     16 C         -11.4740   14.2600   65.7050 C.2     1  UNL1        0.2730
     17 O         -12.6400   14.0920   65.8040 O.2     1  UNL1       -0.2660
     18 H          -9.6130   13.3040   65.1590 H       1  UNL1        0.1630
     19 C         -10.8670   15.6280   66.0520 C.ar    1  UNL1        0.1540
     20 C         -10.7490   16.2170   67.3510 C.ar    1  UNL1       -0.0170
     21 C         -10.1270   17.4660   67.1290 C.ar    1  UNL1        0.0770
     22 H         -11.0670   15.8020   68.3080 H       1  UNL1        0.0910
     23 O          -9.9140   17.5710   65.8500 O.2     1  UNL1       -0.2180
     24 N         -10.3380   16.5110   65.2010 N.ar    1  UNL1       -0.1230
     25 C          -9.7700   18.4970   68.1920 C.3     1  UNL1       -0.0290
     26 H          -9.3990   19.4020   67.7110 H       1  UNL1        0.0360
     27 H         -10.6560   18.7340   68.7800 H       1  UNL1        0.0360
     28 H          -8.9980   18.0920   68.8470 H       1  UNL1        0.0360
     29 C         -11.9060   11.9540   63.5960 C.3     1  UNL1       -0.0490
     30 H         -11.1890   12.2080   62.8160 H       1  UNL1        0.0300
     31 H         -12.3600   10.9890   63.3720 H       1  UNL1        0.0300
     32 H         -12.6810   12.7190   63.6410 H       1  UNL1        0.0300
     33 C          -7.0080   10.2750   62.6200 C.3     1  UNL1       -0.0330
     34 H          -6.2110   10.9540   62.9230 H       1  UNL1        0.0420
     35 C          -6.3360    8.9670   62.0980 C.3     1  UNL1       -0.0710
     36 H          -6.5620    8.1450   62.7780 H       1  UNL1        0.0280
     37 H          -6.7210    8.7320   61.1060 H       1  UNL1        0.0280
     38 H          -5.2570    9.1090   62.0460 H       1  UNL1        0.0280
     39 C          -7.8370   10.9740   61.4950 C.3     1  UNL1       -0.0710
     40 H          -7.2770   10.9470   60.5610 H       1  UNL1        0.0280
     41 H          -8.7850   10.4510   61.3650 H       1  UNL1        0.0280
     42 H          -8.0280   12.0090   61.7760 H       1  UNL1        0.0280
     43 C          -6.8540   10.4430   68.2360 C.2     1  UNL1        0.2400
     44 O          -6.3100   10.3210   69.2860 O.2     1  UNL1       -0.2710
     45 N          -8.0990    9.6740   67.9520 N.am    1  UNL1       -0.3550
     46 H          -8.5720    9.7730   67.0660 H       1  UNL1        0.1620
     47 C          -8.6440    8.7580   68.9770 C.3     1  UNL1        0.0130
     48 H          -8.2640    9.0760   69.9480 H       1  UNL1        0.0720
     49 C          -8.1890    7.3470   68.6800 C.3     1  UNL1       -0.0380
     50 H          -8.5830    7.1120   67.6910 H       1  UNL1        0.0360
     51 H          -7.1130    7.3430   68.8530 H       1  UNL1        0.0360
     52 C          -8.7910    6.3070   69.6490 C.3     1  UNL1        0.0180
     53 H          -7.9410    5.8260   70.1320 H       1  UNL1        0.0480
     54 H          -9.5230    6.8500   70.2480 H       1  UNL1        0.0480
     55 C          -9.5780    5.1710   68.9370 C.2     1  UNL1        0.2590
     56 O          -9.9380    4.2150   69.5440 O.2     1  UNL1       -0.2650
     57 O          -9.8550    5.2800   67.5460 O.3     1  UNL1       -0.3170
     58 C          -9.3310    4.2050   66.7620 C.3     1  UNL1        0.0520
     59 H          -8.8630    3.5230   67.4720 H       1  UNL1        0.0820
     60 H         -10.1580    3.8620   66.1420 H       1  UNL1        0.0820
     61 C          -8.2280    4.7810   65.8350 C.ar    1  UNL1       -0.0340
     62 C          -6.9000    4.7790   66.2470 C.ar    1  UNL1       -0.0750
     63 C          -5.9090    5.2980   65.4140 C.ar    1  UNL1       -0.0820
     64 H          -6.6340    4.3720   67.2220 H       1  UNL1        0.0840
     65 C          -6.2520    5.8220   64.1650 C.ar    1  UNL1       -0.0830
     66 H          -4.8690    5.2920   65.7390 H       1  UNL1        0.0830
     67 C          -7.5800    5.8250   63.7590 C.ar    1  UNL1       -0.0820
     68 H          -5.4840    6.2280   63.5070 H       1  UNL1        0.0830
     69 C          -8.5730    5.3060   64.5870 C.ar    1  UNL1       -0.0750
     70 H          -7.8440    6.2360   62.7840 H       1  UNL1        0.0830
     71 H          -9.6130    5.3110   64.2610 H       1  UNL1        0.0840
     72 C         -10.1710    8.8160   68.9610 C.3     1  UNL1       -0.0390
     73 H         -10.4370    9.1610   67.9620 H       1  UNL1        0.0360
     74 H         -10.5010    7.8350   69.3050 H       1  UNL1        0.0360
     75 C         -10.7340    9.8960   70.0010 C.3     1  UNL1       -0.0010
     76 C         -11.3500    9.1340   71.3220 C.3     1  UNL1       -0.0350
     77 C         -12.6010    9.5990   71.5500 C.3     1  UNL1        0.0850
     78 H         -11.5060    8.0780   71.1050 H       1  UNL1        0.0360
     79 H         -10.8000    9.4310   72.2150 H       1  UNL1        0.0360
     80 N         -13.0180   10.3660   70.3190 N.4     1  UNL1       -0.0490
     81 H         -13.2290    8.7120   71.6460 H       1  UNL1        0.0750
     82 H         -12.5060   10.2930   72.3850 H       1  UNL1        0.0750
     83 C         -11.6670   10.6130   69.4700 C.3     1  UNL1        0.1930
     84 H         -13.6230    9.7530   69.7900 H       1  UNL1        0.2800
     85 H         -13.3630   11.2590   70.6410 H       1  UNL1        0.2800
     86 H         -11.1870   11.5920   69.4660 H       1  UNL1        0.1290
     87 H         -10.0260   10.7050   70.1800 H       1  UNL1        0.0460
     88 O         -11.8820   10.2870   68.0960 O.3     1  UNL1       -0.3690
     89 H         -11.7790   11.0770   67.5600 H       1  UNL1        0.2120
     90 C          -6.3150   12.8380   67.6930 C.3     1  UNL1       -0.0350
     91 H          -6.3230   12.7470   68.7800 H       1  UNL1        0.0370
     92 H          -5.4950   13.3560   67.1960 H       1  UNL1        0.0370
     93 C          -7.6200   13.6050   67.3060 C.3     1  UNL1       -0.0590
     94 H          -7.9350   13.2470   66.3260 H       1  UNL1        0.0380
     95 C          -8.7850   13.3300   68.3100 C.3     1  UNL1       -0.0730
     96 H          -8.4960   13.6720   69.3040 H       1  UNL1        0.0280
     97 H          -9.6780   13.8650   67.9860 H       1  UNL1        0.0280
     98 H          -8.9940   12.2600   68.3400 H       1  UNL1        0.0280
     99 C          -7.3550   15.1070   67.1780 C.3     1  UNL1       -0.0730
    100 H          -8.1570   15.5700   66.6040 H       1  UNL1        0.0280
    101 H          -7.3140   15.5540   68.1720 H       1  UNL1        0.0280
    102 H          -6.4040   15.2660   66.6690 H       1  UNL1        0.0280
@<TRIPOS>BOND
     1    40    39    1
     2    37    35    1
     3    41    39    1
     4    39    42    1
     5    39    33    1
     6    38    35    1
     7    35    33    1
     8    35    36    1
     9    33    34    1
    10    33     7    1
    11    70    67    1
    12    30    29    1
    13    12     9    1
    14    31    29    1
    15    68    65    1
    16    29    32    1
    17    29    13    1
    18    67    65   ar
    19    67    69   ar
    20     8     7    1
    21     7     9    1
    22     7     4    1
    23     9    10   am
    24    65    63   ar
    25    71    69    1
    26    69    61   ar
    27    10    13    1
    28    10    11    2
    29    13    15    1
    30    13    14    1
    31     4     5    2
    32     4     3   am
    33    18    15    1
    34    24    23   ar
    35    24    19   ar
    36    15    16   am
    37    63    66    1
    38    63    62   ar
    39    16    17    2
    40    16    19    1
    41     6     3    1
    42    61    62   ar
    43    61    58    1
    44    23    21   ar
    45     3     1    1
    46    19    20   ar
    47    60    58    1
    48    62    64    1
    49    94    93    1
    50   100    99    1
    51   102    99    1
    52    58    59    1
    53    58    57    1
    54     2     1    1
    55    46    45    1
    56    21    20   ar
    57    21    25    1
    58     1    90    1
    59     1    43    1
    60    99    93    1
    61    99   101    1
    62    92    90    1
    63    93    90    1
    64    93    95    1
    65    20    22    1
    66    57    55    1
    67    89    88    1
    68    50    49    1
    69    90    91    1
    70    26    25    1
    71    45    43   am
    72    45    47    1
    73    73    72    1
    74    97    95    1
    75    88    83    1
    76    25    27    1
    77    25    28    1
    78    43    44    2
    79    95    98    1
    80    95    96    1
    81    49    51    1
    82    49    47    1
    83    49    52    1
    84    55    56    2
    85    55    52    1
    86    72    47    1
    87    72    74    1
    88    72    75    1
    89    47    48    1
    90    86    83    1
    91    83    75    1
    92    83    80    1
    93    52    53    1
    94    52    54    1
    95    84    80    1
    96    75    87    1
    97    75    76    1
    98    80    85    1
    99    80    77    1
   100    78    76    1
   101    76    77    1
   102    76    79    1
   103    77    81    1
   104    77    82    1
@<TRIPOS>MOLECULE
crystal_redock_e32_er3_1.pdbqt
 102 104 0 0 0
SMALL
GASTEIGER

@<TRIPOS>ATOM
      1 C         -10.0790   10.2990   64.3630 C.3     1  UNL1        0.0890
      2 H         -11.0040    9.7690   64.5920 H       1  UNL1        0.0870
      3 N          -9.4940   10.7240   65.6260 N.am    1  UNL1       -0.3460
      4 C         -10.1020   10.2830   66.9340 C.2     1  UNL1        0.2410
      5 O         -11.0650    9.5890   66.9440 O.2     1  UNL1       -0.2710
      6 H          -8.6760   11.3160   65.5950 H       1  UNL1        0.1630
      7 C          -9.4800   10.7270   68.2310 C.3     1  UNL1        0.0920
      8 H          -8.3950   10.7200   68.1300 H       1  UNL1        0.0880
      9 N          -9.8790   12.1090   68.5180 N.am    1  UNL1       -0.3460
     10 C          -9.1110   13.2060   67.9830 C.2     1  UNL1        0.2400
     11 O          -8.1680   12.9960   67.3230 O.2     1  UNL1       -0.2710
     12 H         -10.6890   12.3060   69.0870 H       1  UNL1        0.1630
     13 C          -9.5390   14.6740   68.2940 C.3     1  UNL1        0.0860
     14 H         -10.2200   15.0820   67.5470 H       1  UNL1        0.0860
     15 N         -10.2490   14.7000   69.5620 N.am    1  UNL1       -0.3430
     16 C         -11.4030   15.5860   69.7250 C.2     1  UNL1        0.2730
     17 O         -11.7510   16.2770   68.8300 O.2     1  UNL1       -0.2660
     18 H          -9.9430   14.1080   70.3220 H       1  UNL1        0.1630
     19 C         -12.1640   15.6230   71.0590 C.ar    1  UNL1        0.1540
     20 C         -11.6080   15.7950   72.3670 C.ar    1  UNL1       -0.0170
     21 C         -12.7170   15.7550   73.2410 C.ar    1  UNL1        0.0770
     22 H         -10.5610   15.9290   72.6390 H       1  UNL1        0.0910
     23 O         -13.7800   15.5820   72.5110 O.2     1  UNL1       -0.2180
     24 N         -13.4820   15.5010   71.2350 N.ar    1  UNL1       -0.1230
     25 C         -12.6750   15.8920   74.7570 C.3     1  UNL1       -0.0290
     26 H         -13.6550   16.2000   75.1220 H       1  UNL1        0.0360
     27 H         -12.4070   14.9330   75.2010 H       1  UNL1        0.0360
     28 H         -11.9320   16.6400   75.0350 H       1  UNL1        0.0360
     29 C          -8.3160   15.5520   68.3680 C.3     1  UNL1       -0.0490
     30 H          -7.9500   15.5800   69.3950 H       1  UNL1        0.0300
     31 H          -7.5400   15.1500   67.7170 H       1  UNL1        0.0300
     32 H          -8.5730   16.5610   68.0480 H       1  UNL1        0.0300
     33 C          -9.9660    9.8010   69.3840 C.3     1  UNL1       -0.0330
     34 H         -10.2750    8.8550   68.9370 H       1  UNL1        0.0420
     35 C          -8.8130    9.4900   70.3880 C.3     1  UNL1       -0.0710
     36 H          -7.8650    9.8270   69.9690 H       1  UNL1        0.0280
     37 H          -9.0000   10.0110   71.3270 H       1  UNL1        0.0280
     38 H          -8.7700    8.4170   70.5700 H       1  UNL1        0.0280
     39 C         -11.2030   10.4170   70.1140 C.3     1  UNL1       -0.0710
     40 H         -11.5340   11.3060   69.5780 H       1  UNL1        0.0280
     41 H         -12.0110    9.6860   70.1400 H       1  UNL1        0.0280
     42 H         -10.9250   10.6880   71.1320 H       1  UNL1        0.0280
     43 C          -9.0530    9.3960   63.6200 C.2     1  UNL1        0.2400
     44 O          -8.6280    9.7320   62.5620 O.2     1  UNL1       -0.2710
     45 N          -8.5930    8.1170   64.2320 N.am    1  UNL1       -0.3550
     46 H          -8.9430    7.8240   65.1330 H       1  UNL1        0.1620
     47 C          -7.6160    7.2710   63.5140 C.3     1  UNL1        0.0130
     48 H          -7.7530    7.4340   62.4450 H       1  UNL1        0.0720
     49 C          -7.8690    5.8190   63.8520 C.3     1  UNL1       -0.0380
     50 H          -8.7310    5.5230   63.2540 H       1  UNL1        0.0360
     51 H          -6.9120    5.3150   63.7170 H       1  UNL1        0.0360
     52 C          -8.2690    5.6080   65.3280 C.3     1  UNL1        0.0180
     53 H          -7.4720    5.0060   65.7670 H       1  UNL1        0.0480
     54 H          -8.4800    6.6030   65.7220 H       1  UNL1        0.0480
     55 C          -9.5760    4.7880   65.5120 C.2     1  UNL1        0.2590
     56 O         -10.0320    4.1690   64.6060 O.2     1  UNL1       -0.2650
     57 O         -10.2310    4.7950   66.7750 O.3     1  UNL1       -0.3170
     58 C         -10.6220    6.0960   67.2210 C.3     1  UNL1        0.0520
     59 H          -9.8820    6.7830   66.8110 H       1  UNL1        0.0820
     60 H         -11.6720    6.1990   66.9470 H       1  UNL1        0.0820
     61 C         -10.5140    6.1240   68.7690 C.ar    1  UNL1       -0.0340
     62 C          -9.3310    5.7400   69.3920 C.ar    1  UNL1       -0.0750
     63 C          -9.2340    5.7650   70.7820 C.ar    1  UNL1       -0.0820
     64 H          -8.4800    5.4190   68.7910 H       1  UNL1        0.0840
     65 C         -10.3270    6.1740   71.5510 C.ar    1  UNL1       -0.0830
     66 H          -8.3050    5.4650   71.2670 H       1  UNL1        0.0830
     67 C         -11.5070    6.5530   70.9250 C.ar    1  UNL1       -0.0820
     68 H         -10.2600    6.1970   72.6380 H       1  UNL1        0.0830
     69 C         -11.6080    6.5320   69.5350 C.ar    1  UNL1       -0.0750
     70 H         -12.3590    6.8700   71.5270 H       1  UNL1        0.0830
     71 H         -12.5370    6.8330   69.0510 H       1  UNL1        0.0840
     72 C          -6.1970    7.6520   63.9320 C.3     1  UNL1       -0.0390
     73 H          -5.7220    6.7180   64.2320 H       1  UNL1        0.0360
     74 H          -5.7930    8.2240   63.0970 H       1  UNL1        0.0360
     75 C          -6.1950    8.6160   65.2110 C.3     1  UNL1       -0.0010
     76 C          -5.6420   10.1060   64.7880 C.3     1  UNL1       -0.0350
     77 C          -4.6570   10.4660   65.6450 C.3     1  UNL1        0.0850
     78 H          -5.1360   10.0570   63.8240 H       1  UNL1        0.0360
     79 H          -6.4150   10.8550   64.9600 H       1  UNL1        0.0360
     80 N          -4.2630    9.2250   66.4100 N.4     1  UNL1       -0.0490
     81 H          -3.8210   10.7750   65.0160 H       1  UNL1        0.0750
     82 H          -5.1140   11.1770   66.3320 H       1  UNL1        0.0750
     83 C          -5.4370    8.1500   66.1470 C.3     1  UNL1        0.1930
     84 H          -3.4130    8.8840   65.9840 H       1  UNL1        0.2800
     85 H          -4.2710    9.4780   67.3880 H       1  UNL1        0.2800
     86 H          -6.1800    7.9410   66.9170 H       1  UNL1        0.1290
     87 H          -7.1340    8.5740   65.7620 H       1  UNL1        0.0460
     88 O          -4.8760    6.8810   65.8040 O.3     1  UNL1       -0.3690
     89 H          -4.4860    6.4820   66.5850 H       1  UNL1        0.2120
     90 C         -10.3840   11.5270   63.5200 C.3     1  UNL1       -0.0350
     91 H          -9.4220   12.0120   63.3580 H       1  UNL1        0.0370
     92 H         -10.9580   11.1580   62.6700 H       1  UNL1        0.0370
     93 C         -11.2900   12.5740   64.2430 C.3     1  UNL1       -0.0590
     94 H         -11.7000   12.0980   65.1340 H       1  UNL1        0.0380
     95 C         -10.4850   13.8320   64.7030 C.3     1  UNL1       -0.0730
     96 H         -10.3280   14.4930   63.8510 H       1  UNL1        0.0280
     97 H         -11.0460   14.3590   65.4750 H       1  UNL1        0.0280
     98 H          -9.5210   13.5190   65.1030 H       1  UNL1        0.0280
     99 C         -12.4720   12.9770   63.3580 C.3     1  UNL1       -0.0730
    100 H         -12.5000   12.3390   62.4750 H       1  UNL1        0.0280
    101 H         -13.4010   12.8630   63.9190 H       1  UNL1        0.0280
    102 H         -12.3590   14.0170   63.0520 H       1  UNL1        0.0280
@<TRIPOS>BOND
     1    48    47    1
     2   100    99    1
     3    44    43    2
     4    92    90    1
     5   102    99    1
     6    74    72    1
     7    50    49    1
     8    99   101    1
     9    99    93    1
    10    91    90    1
    11    47    49    1
    12    47    72    1
    13    47    45    1
    14    90    93    1
    15    90     1    1
    16    43    45   am
    17    43     1    1
    18    51    49    1
    19    78    76    1
    20    96    95    1
    21    49    52    1
    22    72    73    1
    23    72    75    1
    24    45    46    1
    25    93    95    1
    26    93    94    1
    27     1     2    1
    28     1     3    1
    29    56    55    2
    30    95    98    1
    31    95    97    1
    32    76    79    1
    33    76    75    1
    34    76    77    1
    35    81    77    1
    36    75    87    1
    37    75    83    1
    38    52    55    1
    39    52    54    1
    40    52    53    1
    41    55    57    1
    42     6     3    1
    43     3     4   am
    44    77    82    1
    45    77    80    1
    46    88    83    1
    47    88    89    1
    48    84    80    1
    49    83    80    1
    50    83    86    1
    51    80    85    1
    52    57    58    1
    53    59    58    1
    54     4     5    2
    55     4     7    1
    56    60    58    1
    57    58    61    1
    58    11    10    2
    59    14    13    1
    60    31    29    1
    61    10    13    1
    62    10     9   am
    63    32    29    1
    64     8     7    1
    65     7     9    1
    66     7    33    1
    67    13    29    1
    68    13    15    1
    69    29    30    1
    70     9    12    1
    71    61    62   ar
    72    61    69   ar
    73    64    62    1
    74    17    16    2
    75    34    33    1
    76    71    69    1
    77    33    39    1
    78    33    35    1
    79    62    63   ar
    80    69    67   ar
    81    15    16   am
    82    15    18    1
    83    40    39    1
    84    16    19    1
    85    36    35    1
    86    39    41    1
    87    39    42    1
    88    35    38    1
    89    35    37    1
    90    63    66    1
    91    63    65   ar
    92    67    70    1
    93    67    65   ar
    94    19    24   ar
    95    19    20   ar
    96    24    23   ar
    97    65    68    1
    98    20    22    1
    99    20    21   ar
   100    23    21   ar
   101    21    25    1
   102    25    28    1
   103    25    26    1
   104    25    27    1
@<TRIPOS>MOLECULE
crystal_redock_e32_er3_1.pdbqt
 102 104 0 0 0
SMALL
GASTEIGER

@<TRIPOS>ATOM
      1 C         -10.6480    9.2970   70.0910 C.3     1  UNL1        0.0890
      2 H         -11.0160    8.3800   69.6300 H       1  UNL1        0.0870
      3 N          -9.2950    9.5200   69.6040 N.am    1  UNL1       -0.3460
      4 C          -8.8260    8.8620   68.3310 C.2     1  UNL1        0.2410
      5 O          -9.5550    8.1550   67.7170 O.2     1  UNL1       -0.2710
      6 H          -8.6890   10.1240   70.1420 H       1  UNL1        0.1630
      7 C          -7.4240    9.1090   67.8380 C.3     1  UNL1        0.0920
      8 H          -7.4250    9.1250   66.7480 H       1  UNL1        0.0880
      9 N          -6.9710   10.4280   68.2900 N.am    1  UNL1       -0.3460
     10 C          -7.0070   11.5510   67.3860 C.2     1  UNL1        0.2400
     11 O          -7.3960   11.4110   66.2910 O.2     1  UNL1       -0.2710
     12 H          -6.6320   10.5630   69.2320 H       1  UNL1        0.1630
     13 C          -6.5210   12.9510   67.8720 C.3     1  UNL1        0.0860
     14 H          -5.6170   13.2840   67.3630 H       1  UNL1        0.0860
     15 N          -7.5500   13.9360   67.5790 N.am    1  UNL1       -0.3430
     16 C          -7.1620   15.3140   67.2700 C.2     1  UNL1        0.2730
     17 O          -6.0210   15.6210   67.2640 O.2     1  UNL1       -0.2660
     18 H          -8.5230   13.6650   67.5890 H       1  UNL1        0.1630
     19 C          -8.2390   16.3640   66.9560 C.ar    1  UNL1        0.1540
     20 C          -8.6870   17.4240   67.8070 C.ar    1  UNL1       -0.0170
     21 C          -9.6770   18.0980   67.0570 C.ar    1  UNL1        0.0770
     22 H          -8.3470   17.6660   68.8140 H       1  UNL1        0.0910
     23 O          -9.7760   17.4900   65.9110 O.2     1  UNL1       -0.2180
     24 N          -8.9470   16.4750   65.8290 N.ar    1  UNL1       -0.1230
     25 C         -10.4780   19.3120   67.5080 C.3     1  UNL1       -0.0290
     26 H         -11.5360   19.1480   67.3010 H       1  UNL1        0.0360
     27 H         -10.3360   19.4650   68.5770 H       1  UNL1        0.0360
     28 H         -10.1350   20.1950   66.9660 H       1  UNL1        0.0360
     29 C          -6.2570   12.9070   69.3560 C.3     1  UNL1       -0.0490
     30 H          -7.1590   13.1990   69.8950 H       1  UNL1        0.0300
     31 H          -5.9720   11.8960   69.6450 H       1  UNL1        0.0300
     32 H          -5.4490   13.5970   69.6010 H       1  UNL1        0.0300
     33 C          -6.4750    8.0140   68.4070 C.3     1  UNL1       -0.0330
     34 H          -7.0680    7.3670   69.0530 H       1  UNL1        0.0420
     35 C          -5.8850    7.1250   67.2680 C.3     1  UNL1       -0.0710
     36 H          -6.6840    6.5370   66.8160 H       1  UNL1        0.0280
     37 H          -5.4300    7.7620   66.5090 H       1  UNL1        0.0280
     38 H          -5.1310    6.4570   67.6820 H       1  UNL1        0.0280
     39 C          -5.3410    8.6520   69.2720 C.3     1  UNL1       -0.0710
     40 H          -4.7740    7.8640   69.7670 H       1  UNL1        0.0280
     41 H          -4.6740    9.2290   68.6290 H       1  UNL1        0.0280
     42 H          -5.7820    9.3090   70.0210 H       1  UNL1        0.0280
     43 C         -11.5180   10.5320   69.7190 C.2     1  UNL1        0.2400
     44 O         -12.6930   10.5030   69.9000 O.2     1  UNL1       -0.2710
     45 N         -10.8860   11.7540   69.1460 N.am    1  UNL1       -0.3550
     46 H          -9.8890   11.7920   68.9930 H       1  UNL1        0.1620
     47 C         -11.7270   12.9200   68.7990 C.3     1  UNL1        0.0130
     48 H         -12.6690   12.8260   69.3380 H       1  UNL1        0.0720
     49 C         -11.9830   12.9250   67.3090 C.3     1  UNL1       -0.0380
     50 H         -12.2130   11.8930   67.0450 H       1  UNL1        0.0360
     51 H         -12.7220   13.7090   67.1400 H       1  UNL1        0.0360
     52 C         -10.7360   13.3180   66.4870 C.3     1  UNL1        0.0180
     53 H         -10.3630   14.2380   66.9380 H       1  UNL1        0.0480
     54 H         -10.1050   12.4280   66.4650 H       1  UNL1        0.0480
     55 C         -11.0450   13.6610   65.0040 C.2     1  UNL1        0.2590
     56 O         -11.6950   14.6180   64.7290 O.2     1  UNL1       -0.2650
     57 O         -10.5530   12.8110   63.9750 O.3     1  UNL1       -0.3170
     58 C         -10.8120   11.4220   64.1940 C.3     1  UNL1        0.0520
     59 H         -10.8180   11.2900   65.2760 H       1  UNL1        0.0820
     60 H         -11.7040   11.1920   63.6130 H       1  UNL1        0.0820
     61 C          -9.6230   10.6150   63.6070 C.ar    1  UNL1       -0.0340
     62 C          -9.2220    9.4270   64.2100 C.ar    1  UNL1       -0.0750
     63 C          -8.1540    8.7020   63.6840 C.ar    1  UNL1       -0.0820
     64 H          -9.7450    9.0630   65.0950 H       1  UNL1        0.0840
     65 C          -7.4840    9.1710   62.5510 C.ar    1  UNL1       -0.0830
     66 H          -7.8440    7.7700   64.1570 H       1  UNL1        0.0830
     67 C          -7.8850   10.3590   61.9540 C.ar    1  UNL1       -0.0820
     68 H          -6.6480    8.6100   62.1320 H       1  UNL1        0.0830
     69 C          -8.9540   11.0850   62.4760 C.ar    1  UNL1       -0.0750
     70 H          -7.3590   10.7230   61.0720 H       1  UNL1        0.0830
     71 H          -9.2640   12.0170   62.0010 H       1  UNL1        0.0840
     72 C         -11.0120   14.2090   69.1980 C.3     1  UNL1       -0.0390
     73 H          -9.9810   13.9190   69.4000 H       1  UNL1        0.0360
     74 H         -11.2320   14.9210   68.4020 H       1  UNL1        0.0360
     75 C         -11.6060   14.8200   70.5550 C.3     1  UNL1       -0.0010
     76 C         -12.5280   13.6930   71.3200 C.3     1  UNL1       -0.0350
     77 C         -13.7320   14.2400   71.6120 C.3     1  UNL1        0.0850
     78 H         -12.7750   12.8840   70.6330 H       1  UNL1        0.0360
     79 H         -12.1060   13.4680   72.2990 H       1  UNL1        0.0360
     80 N         -13.8350   15.5260   70.8290 N.4     1  UNL1       -0.0490
     81 H         -14.4720   13.5340   71.2340 H       1  UNL1        0.0750
     82 H         -13.6950   14.4740   72.6750 H       1  UNL1        0.0750
     83 C         -12.3390   15.8570   70.3190 C.3     1  UNL1        0.1930
     84 H         -14.4110   15.3260   70.0240 H       1  UNL1        0.2800
     85 H         -14.1150   16.2400   71.4860 H       1  UNL1        0.2800
     86 H         -11.7470   16.6320   70.8060 H       1  UNL1        0.1290
     87 H         -10.8440   15.3240   71.1490 H       1  UNL1        0.0460
     88 O         -12.3550   16.2020   68.9330 O.3     1  UNL1       -0.3690
     89 H         -12.3180   17.1570   68.8410 H       1  UNL1        0.2120
     90 C         -10.6100    9.1350   71.6020 C.3     1  UNL1       -0.0350
     91 H          -9.5700    8.9150   71.8430 H       1  UNL1        0.0370
     92 H         -11.0830   10.0330   72.0010 H       1  UNL1        0.0370
     93 C         -11.4500    7.9250   72.1240 C.3     1  UNL1       -0.0590
     94 H         -12.3610    8.3230   72.5710 H       1  UNL1        0.0380
     95 C         -11.8680    6.9580   70.9710 C.3     1  UNL1       -0.0730
     96 H         -11.4860    5.9590   71.1790 H       1  UNL1        0.0280
     97 H         -12.9560    6.9240   70.9010 H       1  UNL1        0.0280
     98 H         -11.4550    7.3160   70.0280 H       1  UNL1        0.0280
     99 C         -10.6960    7.1700   73.2220 C.3     1  UNL1       -0.0730
    100 H         -10.2970    7.8820   73.9450 H       1  UNL1        0.0280
    101 H         -11.3790    6.4850   73.7250 H       1  UNL1        0.0280
    102 H          -9.8770    6.6050   72.7780 H       1  UNL1        0.0280
@<TRIPOS>BOND
     1    70    67    1
     2    67    69   ar
     3    67    65   ar
     4    71    69    1
     5    68    65    1
     6    69    61   ar
     7    65    63   ar
     8    61    58    1
     9    61    62   ar
    10    60    58    1
    11    63    66    1
    12    63    62   ar
    13    57    58    1
    14    57    55    1
    15    58    59    1
    16    62    64    1
    17    56    55    2
    18    55    52    1
    19    24    23   ar
    20    24    19   ar
    21    23    21   ar
    22    11    10    2
    23    54    52    1
    24    52    53    1
    25    52    49    1
    26    37    35    1
    27     8     7    1
    28    36    35    1
    29    19    16    1
    30    19    20   ar
    31    28    25    1
    32    50    49    1
    33    21    25    1
    34    21    20   ar
    35    51    49    1
    36    17    16    2
    37    35    38    1
    38    35    33    1
    39    16    15   am
    40    26    25    1
    41    49    47    1
    42    14    13    1
    43    10    13    1
    44    10     9   am
    45    25    27    1
    46    15    18    1
    47    15    13    1
    48     5     4    2
    49    20    22    1
    50     7     9    1
    51     7     4    1
    52     7    33    1
    53    13    29    1
    54     9    12    1
    55     4     3   am
    56    74    72    1
    57    33    34    1
    58    33    39    1
    59    41    39    1
    60    47    45    1
    61    47    72    1
    62    47    48    1
    63    89    88    1
    64    88    83    1
    65    46    45    1
    66    45    43   am
    67    72    73    1
    68    72    75    1
    69    39    40    1
    70    39    42    1
    71    29    32    1
    72    29    31    1
    73    29    30    1
    74     3     1    1
    75     3     6    1
    76     2     1    1
    77    43    44    2
    78    43     1    1
    79    84    80    1
    80    98    95    1
    81     1    90    1
    82    83    75    1
    83    83    86    1
    84    83    80    1
    85    75    87    1
    86    75    76    1
    87    78    76    1
    88    80    85    1
    89    80    77    1
    90    97    95    1
    91    95    96    1
    92    95    93    1
    93    81    77    1
    94    76    77    1
    95    76    79    1
    96    90    91    1
    97    90    92    1
    98    90    93    1
    99    77    82    1
   100    93    94    1
   101    93    99    1
   102   102    99    1
   103    99   101    1
   104    99   100    1
@<TRIPOS>MOLECULE
crystal_redock_e32_er3_1.pdbqt
 102 104 0 0 0
SMALL
GASTEIGER

@<TRIPOS>ATOM
      1 C         -11.7770   10.7070   70.3250 C.3     1  UNL1        0.0890
      2 H         -10.9900   10.2930   70.9560 H       1  UNL1        0.0870
      3 N         -11.7400   12.1540   70.4720 N.am    1  UNL1       -0.3460
      4 C         -12.6520   12.8440   71.4560 C.2     1  UNL1        0.2410
      5 O         -13.4090   12.2130   72.1170 O.2     1  UNL1       -0.2710
      6 H         -11.0910   12.6730   69.8990 H       1  UNL1        0.1630
      7 C         -12.5960   14.3420   71.5990 C.3     1  UNL1        0.0920
      8 H         -11.6550   14.6220   72.0720 H       1  UNL1        0.0880
      9 N         -12.6130   14.9610   70.2700 N.am    1  UNL1       -0.3460
     10 C         -11.4100   15.5500   69.7340 C.2     1  UNL1        0.2400
     11 O         -10.4210   15.5360   70.3590 O.2     1  UNL1       -0.2710
     12 H         -13.4600   14.9820   69.7200 H       1  UNL1        0.1630
     13 C         -11.4350   16.2100   68.3200 C.3     1  UNL1        0.0860
     14 H         -12.2290   16.9490   68.2140 H       1  UNL1        0.0860
     15 N         -10.1820   16.9130   68.1060 N.am    1  UNL1       -0.3430
     16 C         -10.2020   18.3370   67.7620 C.2     1  UNL1        0.2730
     17 O         -11.2330   18.9060   67.6570 O.2     1  UNL1       -0.2660
     18 H          -9.3050   16.4180   68.1940 H       1  UNL1        0.1630
     19 C          -8.8840   19.0930   67.5340 C.ar    1  UNL1        0.1540
     20 C          -8.2720   19.4040   66.2790 C.ar    1  UNL1       -0.0170
     21 C          -7.0900   20.1020   66.6140 C.ar    1  UNL1        0.0770
     22 H          -8.6300   19.1610   65.2780 H       1  UNL1        0.0910
     23 O          -7.0400   20.1780   67.9120 O.2     1  UNL1       -0.2180
     24 N          -8.0760   19.5960   68.4710 N.ar    1  UNL1       -0.1230
     25 C          -6.0660   20.6620   65.6360 C.3     1  UNL1       -0.0290
     26 H          -5.5240   19.8400   65.1670 H       1  UNL1        0.0360
     27 H          -6.5760   21.2460   64.8700 H       1  UNL1        0.0360
     28 H          -5.3630   21.3010   66.1720 H       1  UNL1        0.0360
     29 C         -11.6170   15.1450   67.2680 C.3     1  UNL1       -0.0490
     30 H         -11.2620   15.5180   66.3080 H       1  UNL1        0.0300
     31 H         -11.0470   14.2590   67.5470 H       1  UNL1        0.0300
     32 H         -12.6730   14.8890   67.1900 H       1  UNL1        0.0300
     33 C         -13.8300   14.8320   72.4120 C.3     1  UNL1       -0.0330
     34 H         -14.1430   14.0130   73.0600 H       1  UNL1        0.0420
     35 C         -13.4630   16.0410   73.3280 C.3     1  UNL1       -0.0710
     36 H         -12.3970   16.0160   73.5540 H       1  UNL1        0.0280
     37 H         -13.7030   16.9720   72.8130 H       1  UNL1        0.0280
     38 H         -14.0330   15.9800   74.2540 H       1  UNL1        0.0280
     39 C         -15.0220   15.1800   71.4640 C.3     1  UNL1       -0.0710
     40 H         -15.4390   14.2620   71.0520 H       1  UNL1        0.0280
     41 H         -15.7920   15.7080   72.0270 H       1  UNL1        0.0280
     42 H         -14.6670   15.8150   70.6520 H       1  UNL1        0.0280
     43 C         -11.5730   10.3560   68.8240 C.2     1  UNL1        0.2400
     44 O         -12.0380   11.0560   67.9840 O.2     1  UNL1       -0.2710
     45 N         -10.7890    9.1500   68.4320 N.am    1  UNL1       -0.3550
     46 H         -10.3850    8.5490   69.1370 H       1  UNL1        0.1620
     47 C         -10.6020    8.8300   67.0000 C.3     1  UNL1        0.0130
     48 H         -11.5880    8.7550   66.5420 H       1  UNL1        0.0720
     49 C          -9.8720    7.5130   66.8740 C.3     1  UNL1       -0.0380
     50 H         -10.6030    6.8060   66.4800 H       1  UNL1        0.0360
     51 H          -8.9660    7.7320   66.3080 H       1  UNL1        0.0360
     52 C          -9.4100    6.9500   68.2350 C.3     1  UNL1        0.0180
     53 H          -8.3310    7.1040   68.2690 H       1  UNL1        0.0480
     54 H         -10.0510    7.4200   68.9820 H       1  UNL1        0.0480
     55 C          -9.6280    5.4190   68.3870 C.2     1  UNL1        0.2590
     56 O         -10.4110    4.9960   69.1750 O.2     1  UNL1       -0.2650
     57 O          -8.8720    4.5240   67.5800 O.3     1  UNL1       -0.3170
     58 C          -9.6280    3.8990   66.5390 C.3     1  UNL1        0.0520
     59 H          -9.3790    2.8390   66.5890 H       1  UNL1        0.0820
     60 H         -10.6570    4.2240   66.6850 H       1  UNL1        0.0820
     61 C          -9.1250    4.4580   65.1810 C.ar    1  UNL1       -0.0340
     62 C          -7.9920    5.2640   65.1360 C.ar    1  UNL1       -0.0750
     63 C          -7.5400    5.7660   63.9170 C.ar    1  UNL1       -0.0820
     64 H          -7.4580    5.5020   66.0560 H       1  UNL1        0.0840
     65 C          -8.2280    5.4620   62.7390 C.ar    1  UNL1       -0.0830
     66 H          -6.6510    6.3960   63.8840 H       1  UNL1        0.0830
     67 C          -9.3600    4.6600   62.7890 C.ar    1  UNL1       -0.0820
     68 H          -7.8810    5.8500   61.7810 H       1  UNL1        0.0830
     69 C          -9.8140    4.1540   64.0050 C.ar    1  UNL1       -0.0750
     70 H          -9.8960    4.4260   61.8680 H       1  UNL1        0.0830
     71 H         -10.7030    3.5240   64.0360 H       1  UNL1        0.0840
     72 C          -9.7870    9.9320   66.3270 C.3     1  UNL1       -0.0390
     73 H         -10.0930   10.8580   66.8150 H       1  UNL1        0.0360
     74 H          -8.7500    9.6030   66.3860 H       1  UNL1        0.0360
     75 C         -10.1510   10.0740   64.7740 C.3     1  UNL1       -0.0010
     76 C          -8.8740    9.5990   63.8530 C.3     1  UNL1       -0.0350
     77 C          -8.6040   10.5700   62.9480 C.3     1  UNL1        0.0850
     78 H          -7.9710    9.5580   64.4610 H       1  UNL1        0.0360
     79 H          -9.1550    8.7460   63.2360 H       1  UNL1        0.0360
     80 N          -9.3660   11.8000   63.3790 N.4     1  UNL1       -0.0490
     81 H          -7.5340   10.7640   63.0400 H       1  UNL1        0.0750
     82 H          -9.0130   10.2110   62.0050 H       1  UNL1        0.0750
     83 C         -10.4420   11.2960   64.4710 C.3     1  UNL1        0.1930
     84 H          -8.6990   12.4030   63.8390 H       1  UNL1        0.2800
     85 H          -9.8650   12.1270   62.5640 H       1  UNL1        0.2800
     86 H         -11.4940   11.1890   64.2050 H       1  UNL1        0.1290
     87 H         -11.1230    9.6400   64.5360 H       1  UNL1        0.0460
     88 O         -10.4230   12.1530   65.6140 O.3     1  UNL1       -0.3690
     89 H          -9.5420   12.1590   65.9950 H       1  UNL1        0.2120
     90 C         -13.1320   10.1960   70.7900 C.3     1  UNL1       -0.0350
     91 H         -13.6210   11.0530   71.2530 H       1  UNL1        0.0370
     92 H         -13.5770    9.7220   69.9150 H       1  UNL1        0.0370
     93 C         -13.0410    9.0920   71.8910 C.3     1  UNL1       -0.0590
     94 H         -13.1610    9.5790   72.8590 H       1  UNL1        0.0380
     95 C         -14.1730    8.0250   71.7510 C.3     1  UNL1       -0.0730
     96 H         -13.7370    7.0670   71.4670 H       1  UNL1        0.0280
     97 H         -14.6920    7.9190   72.7040 H       1  UNL1        0.0280
     98 H         -14.8800    8.3440   70.9850 H       1  UNL1        0.0280
     99 C         -11.6620    8.4270   71.8860 C.3     1  UNL1       -0.0730
    100 H         -11.1070    8.7330   72.7730 H       1  UNL1        0.0280
    101 H         -11.7820    7.3430   71.8880 H       1  UNL1        0.0280
    102 H         -11.1160    8.7290   70.9930 H       1  UNL1        0.0280
@<TRIPOS>BOND
     1    68    65    1
     2    70    67    1
     3    82    77    1
     4    85    80    1
     5    65    67   ar
     6    65    63   ar
     7    67    69   ar
     8    77    81    1
     9    77    80    1
    10    77    76    1
    11    79    76    1
    12    80    84    1
    13    80    83    1
    14    76    78    1
    15    76    75    1
    16    66    63    1
    17    63    62   ar
    18    69    71    1
    19    69    61   ar
    20    86    83    1
    21    83    75    1
    22    83    88    1
    23    87    75    1
    24    75    72    1
    25    27    25    1
    26    62    61   ar
    27    62    64    1
    28    26    25    1
    29    61    58    1
    30    22    20    1
    31    88    89    1
    32    25    28    1
    33    25    21    1
    34    20    21   ar
    35    20    19   ar
    36    30    29    1
    37    51    49    1
    38    72    74    1
    39    72    73    1
    40    72    47    1
    41    50    49    1
    42    58    59    1
    43    58    60    1
    44    58    57    1
    45    48    47    1
    46    21    23   ar
    47    49    47    1
    48    49    52    1
    49    47    45    1
    50    32    29    1
    51    29    31    1
    52    29    13    1
    53    19    16    1
    54    19    24   ar
    55    57    55    1
    56    17    16    2
    57    16    15   am
    58    23    24   ar
    59    44    43    2
    60    15    18    1
    61    15    13    1
    62    14    13    1
    63    52    53    1
    64    52    55    1
    65    52    54    1
    66    13    10    1
    67    55    56    2
    68    45    43   am
    69    45    46    1
    70    43     1    1
    71    12     9    1
    72    10     9   am
    73    10    11    2
    74     6     3    1
    75    92    90    1
    76     9     7    1
    77     1     3    1
    78     1    90    1
    79     1     2    1
    80     3     4   am
    81    42    39    1
    82    90    91    1
    83    90    93    1
    84    98    95    1
    85   102    99    1
    86    40    39    1
    87     4     7    1
    88     4     5    2
    89    39    41    1
    90    39    33    1
    91    96    95    1
    92     7     8    1
    93     7    33    1
    94    95    93    1
    95    95    97    1
    96    99   101    1
    97    99    93    1
    98    99   100    1
    99    93    94    1
   100    33    34    1
   101    33    35    1
   102    37    35    1
   103    35    36    1
   104    35    38    1
@<TRIPOS>MOLECULE
crystal_redock_e32_er3_1.pdbqt
 102 104 0 0 0
SMALL
GASTEIGER

@<TRIPOS>ATOM
      1 C          -8.2870    6.2760   63.5720 C.3     1  UNL1        0.0890
      2 H          -8.9210    6.4450   62.7010 H       1  UNL1        0.0870
      3 N          -8.1430    7.5490   64.2630 N.am    1  UNL1       -0.3460
      4 C          -8.3270    8.8460   63.5160 C.2     1  UNL1        0.2410
      5 O          -8.5880    8.8400   62.3580 O.2     1  UNL1       -0.2710
      6 H          -7.9180    7.5320   65.2480 H       1  UNL1        0.1630
      7 C          -8.1790   10.1540   64.2480 C.3     1  UNL1        0.0920
      8 H          -7.7440   10.8940   63.5760 H       1  UNL1        0.0880
      9 N          -9.5030   10.6480   64.6380 N.am    1  UNL1       -0.3460
     10 C         -10.1670   11.6420   63.8310 C.2     1  UNL1        0.2400
     11 O          -9.6510   12.0560   62.8660 O.2     1  UNL1       -0.2710
     12 H          -9.9610   10.3020   65.4690 H       1  UNL1        0.1630
     13 C         -11.5750   12.1660   64.2530 C.3     1  UNL1        0.0860
     14 H         -11.8890   11.7930   65.2270 H       1  UNL1        0.0860
     15 N         -11.5260   13.6150   64.3580 N.am    1  UNL1       -0.3430
     16 C         -10.7450   14.2340   65.4310 C.2     1  UNL1        0.2730
     17 O         -10.1610   13.5580   66.2050 O.2     1  UNL1       -0.2660
     18 H         -12.0300   14.1850   63.6930 H       1  UNL1        0.1630
     19 C         -10.6830   15.7650   65.5530 C.ar    1  UNL1        0.1540
     20 C         -10.2130   16.5250   66.6710 C.ar    1  UNL1       -0.0170
     21 C         -10.3640   17.8750   66.2820 C.ar    1  UNL1        0.0770
     22 H          -9.8220   16.1540   67.6180 H       1  UNL1        0.0910
     23 O         -10.8620   17.8780   65.0800 O.2     1  UNL1       -0.2180
     24 N         -11.0570   16.6590   64.6340 N.ar    1  UNL1       -0.1230
     25 C         -10.0090   19.0980   67.1170 C.3     1  UNL1       -0.0290
     26 H         -10.5390   19.9690   66.7300 H       1  UNL1        0.0360
     27 H         -10.2980   18.9270   68.1530 H       1  UNL1        0.0360
     28 H          -8.9340   19.2750   67.0640 H       1  UNL1        0.0360
     29 C         -12.5960   11.7570   63.2220 C.3     1  UNL1       -0.0490
     30 H         -12.2020   11.9480   62.2240 H       1  UNL1        0.0300
     31 H         -12.8160   10.6950   63.3300 H       1  UNL1        0.0300
     32 H         -13.5090   12.3340   63.3670 H       1  UNL1        0.0300
     33 C          -7.3120    9.9400   65.5230 C.3     1  UNL1       -0.0330
     34 H          -7.3970    8.8900   65.8060 H       1  UNL1        0.0420
     35 C          -5.8050   10.2280   65.2410 C.3     1  UNL1       -0.0710
     36 H          -5.6500   11.3050   65.1640 H       1  UNL1        0.0280
     37 H          -5.2000    9.8330   66.0570 H       1  UNL1        0.0280
     38 H          -5.5120    9.7510   64.3070 H       1  UNL1        0.0280
     39 C          -7.8420   10.8050   66.7120 C.3     1  UNL1       -0.0710
     40 H          -8.7020   10.3120   67.1650 H       1  UNL1        0.0280
     41 H          -7.0540   10.9200   67.4570 H       1  UNL1        0.0280
     42 H          -8.1390   11.7860   66.3420 H       1  UNL1        0.0280
     43 C          -8.9070    5.2450   64.5580 C.2     1  UNL1        0.2400
     44 O          -9.5750    4.3550   64.1400 O.2     1  UNL1       -0.2710
     45 N          -8.6600    5.3620   66.0240 N.am    1  UNL1       -0.3550
     46 H          -8.0900    6.1100   66.3900 H       1  UNL1        0.1620
     47 C          -9.2550    4.3720   66.9480 C.3     1  UNL1        0.0130
     48 H         -10.1020    3.9080   66.4430 H       1  UNL1        0.0720
     49 C          -9.7240    5.0780   68.2010 C.3     1  UNL1       -0.0380
     50 H         -10.1520    4.3000   68.8340 H       1  UNL1        0.0360
     51 H          -8.8700    5.6570   68.5500 H       1  UNL1        0.0360
     52 C         -10.8570    6.0910   67.9290 C.3     1  UNL1        0.0180
     53 H         -11.3490    5.7480   67.0180 H       1  UNL1        0.0480
     54 H         -11.4210    6.1610   68.8590 H       1  UNL1        0.0480
     55 C         -10.3520    7.5290   67.6260 C.2     1  UNL1        0.2590
     56 O         -10.3450    7.9440   66.5130 O.2     1  UNL1       -0.2650
     57 O          -9.8840    8.3430   68.6950 O.3     1  UNL1       -0.3170
     58 C         -10.3280    7.9180   69.9870 C.3     1  UNL1        0.0520
     59 H         -10.8810    6.9940   69.8200 H       1  UNL1        0.0820
     60 H          -9.4390    7.9130   70.6180 H       1  UNL1        0.0820
     61 C         -11.3110    8.9880   70.5320 C.ar    1  UNL1       -0.0340
     62 C         -11.3000   10.2760   70.0060 C.ar    1  UNL1       -0.0750
     63 C         -12.1830   11.2370   70.4960 C.ar    1  UNL1       -0.0820
     64 H         -10.6010   10.5310   69.2100 H       1  UNL1        0.0840
     65 C         -13.0770   10.9070   71.5180 C.ar    1  UNL1       -0.0830
     66 H         -12.1740   12.2450   70.0790 H       1  UNL1        0.0830
     67 C         -13.0810    9.6220   72.0420 C.ar    1  UNL1       -0.0820
     68 H         -13.7710   11.6530   71.9060 H       1  UNL1        0.0830
     69 C         -12.2020    8.6570   71.5540 C.ar    1  UNL1       -0.0750
     70 H         -13.7790    9.3690   72.8410 H       1  UNL1        0.0830
     71 H         -12.2120    7.6500   71.9710 H       1  UNL1        0.0840
     72 C          -8.2130    3.3180   67.3170 C.3     1  UNL1       -0.0390
     73 H          -8.5500    2.3980   66.8380 H       1  UNL1        0.0360
     74 H          -7.2520    3.7530   67.0460 H       1  UNL1        0.0360
     75 C          -8.1800    3.0440   68.8950 C.3     1  UNL1       -0.0010
     76 C          -6.9620    3.9040   69.5870 C.3     1  UNL1       -0.0350
     77 C          -6.2110    3.0660   70.3420 C.3     1  UNL1        0.0850
     78 H          -6.2670    4.2490   68.8220 H       1  UNL1        0.0360
     79 H          -7.3670    4.6080   70.3140 H       1  UNL1        0.0360
     80 N          -6.6090    1.6590   69.9680 N.4     1  UNL1       -0.0490
     81 H          -5.1800    3.2380   70.0300 H       1  UNL1        0.0750
     82 H          -6.5080    3.2570   71.3720 H       1  UNL1        0.0750
     83 C          -7.9930    1.7910   69.1480 C.3     1  UNL1        0.1930
     84 H          -5.8950    1.3160   69.3410 H       1  UNL1        0.2800
     85 H          -6.7940    1.1740   70.8350 H       1  UNL1        0.2800
     86 H          -8.9430    1.5400   69.6200 H       1  UNL1        0.1290
     87 H          -9.1680    3.1290   69.3490 H       1  UNL1        0.0460
     88 O          -7.9380    1.0030   67.9570 O.3     1  UNL1       -0.3690
     89 H          -8.7090    0.4340   67.9150 H       1  UNL1        0.2120
     90 C          -6.9160    5.7960   63.1250 C.3     1  UNL1       -0.0350
     91 H          -6.9240    4.7160   63.2760 H       1  UNL1        0.0370
     92 H          -6.7790    6.2050   62.1240 H       1  UNL1        0.0370
     93 C          -5.7430    6.3530   63.9940 C.3     1  UNL1       -0.0590
     94 H          -6.1780    6.9600   64.7870 H       1  UNL1        0.0380
     95 C          -4.9140    5.2120   64.6670 C.3     1  UNL1       -0.0730
     96 H          -5.5930    4.4690   65.0860 H       1  UNL1        0.0280
     97 H          -4.2740    4.7390   63.9210 H       1  UNL1        0.0280
     98 H          -4.2980    5.6310   65.4620 H       1  UNL1        0.0280
     99 C          -4.8370    7.2680   63.1660 C.3     1  UNL1       -0.0730
    100 H          -4.1650    6.6620   62.5580 H       1  UNL1        0.0280
    101 H          -5.4500    7.8940   62.5170 H       1  UNL1        0.0280
    102 H          -4.2530    7.9010   63.8340 H       1  UNL1        0.0280
@<TRIPOS>BOND
     1    92    90    1
     2    30    29    1
     3     5     4    2
     4   101    99    1
     5   100    99    1
     6     2     1    1
     7    11    10    2
     8    90    91    1
     9    90     1    1
    10    90    93    1
    11    99   102    1
    12    99    93    1
    13    29    31    1
    14    29    32    1
    15    29    13    1
    16     4     7    1
    17     4     3   am
    18     1     3    1
    19     1    43    1
    20     8     7    1
    21    18    15    1
    22    10    13    1
    23    10     9   am
    24    97    95    1
    25    93    95    1
    26    93    94    1
    27    44    43    2
    28     7     9    1
    29     7    33    1
    30    13    15    1
    31    13    14    1
    32     3     6    1
    33    38    35    1
    34    15    16   am
    35    43    45   am
    36    24    23   ar
    37    24    19   ar
    38     9    12    1
    39    95    96    1
    40    95    98    1
    41    23    21   ar
    42    36    35    1
    43    35    33    1
    44    35    37    1
    45    16    19    1
    46    16    17    2
    47    33    34    1
    48    33    39    1
    49    19    20   ar
    50    45    46    1
    51    45    47    1
    52    21    20   ar
    53    21    25    1
    54    42    39    1
    55    48    47    1
    56    56    55    2
    57    20    22    1
    58    39    40    1
    59    39    41    1
    60    26    25    1
    61    73    72    1
    62    47    72    1
    63    47    49    1
    64    53    52    1
    65    74    72    1
    66    28    25    1
    67    25    27    1
    68    72    75    1
    69    55    52    1
    70    55    57    1
    71    89    88    1
    72    52    49    1
    73    52    54    1
    74    88    83    1
    75    49    51    1
    76    49    50    1
    77    57    58    1
    78    78    76    1
    79    75    83    1
    80    75    87    1
    81    75    76    1
    82    83    86    1
    83    83    80    1
    84    64    62    1
    85    84    80    1
    86    76    79    1
    87    76    77    1
    88    59    58    1
    89    80    77    1
    90    80    85    1
    91    58    61    1
    92    58    60    1
    93    62    63   ar
    94    62    61   ar
    95    81    77    1
    96    66    63    1
    97    77    82    1
    98    63    65   ar
    99    61    69   ar
   100    65    68    1
   101    65    67   ar
   102    69    71    1
   103    69    67   ar
   104    67    70    1
@<TRIPOS>MOLECULE
crystal_redock_e32_er3_1.pdbqt
 102 104 0 0 0
SMALL
GASTEIGER

@<TRIPOS>ATOM
      1 C          -8.8280    8.8920   69.5860 C.3     1  UNL1        0.0890
      2 H          -8.4210    8.7180   70.5830 H       1  UNL1        0.0870
      3 N          -8.2440   10.1260   69.0830 N.am    1  UNL1       -0.3460
      4 C          -7.0680   10.7550   69.7860 C.2     1  UNL1        0.2410
      5 O          -6.6090   10.2490   70.7580 O.2     1  UNL1       -0.2710
      6 H          -8.6510   10.5420   68.2570 H       1  UNL1        0.1630
      7 C          -6.4730   12.0300   69.2490 C.3     1  UNL1        0.0920
      8 H          -6.1400   11.8650   68.2240 H       1  UNL1        0.0880
      9 N          -7.5030   13.0710   69.2080 N.am    1  UNL1       -0.3460
     10 C          -8.1050   13.4400   67.9500 C.2     1  UNL1        0.2400
     11 O          -7.7710   12.9100   66.9610 O.2     1  UNL1       -0.2710
     12 H          -7.8010   13.5380   70.0520 H       1  UNL1        0.1630
     13 C          -9.2000   14.5520   67.9120 C.3     1  UNL1        0.0860
     14 H          -9.9720   14.3580   67.1680 H       1  UNL1        0.0860
     15 N          -9.8690   14.5990   69.2020 N.am    1  UNL1       -0.3430
     16 C         -11.3050   14.8760   69.2600 C.2     1  UNL1        0.2730
     17 O         -11.9130   15.0630   68.2630 O.2     1  UNL1       -0.2660
     18 H          -9.3410   14.4400   70.0490 H       1  UNL1        0.1630
     19 C         -12.0260   14.9270   70.6160 C.ar    1  UNL1        0.1540
     20 C         -11.6060   15.6250   71.7930 C.ar    1  UNL1       -0.0170
     21 C         -12.6060   15.3540   72.7520 C.ar    1  UNL1        0.0770
     22 H         -10.7120   16.2340   71.9290 H       1  UNL1        0.0910
     23 O         -13.4930   14.5910   72.1830 O.2     1  UNL1       -0.2180
     24 N         -13.1760   14.3270   70.9370 N.ar    1  UNL1       -0.1230
     25 C         -12.6400   15.8640   74.1870 C.3     1  UNL1       -0.0290
     26 H         -13.5200   16.4920   74.3300 H       1  UNL1        0.0360
     27 H         -12.6840   15.0170   74.8720 H       1  UNL1        0.0360
     28 H         -11.7410   16.4470   74.3880 H       1  UNL1        0.0360
     29 C          -8.5580   15.8830   67.6150 C.3     1  UNL1       -0.0490
     30 H          -9.2080   16.6860   67.9630 H       1  UNL1        0.0300
     31 H          -7.5970   15.9460   68.1260 H       1  UNL1        0.0300
     32 H          -8.4050   15.9800   66.5400 H       1  UNL1        0.0300
     33 C          -5.3100   12.4900   70.1750 C.3     1  UNL1       -0.0330
     34 H          -5.1210   11.6890   70.8890 H       1  UNL1        0.0420
     35 C          -3.9950   12.7180   69.3670 C.3     1  UNL1       -0.0710
     36 H          -3.1380   12.4360   69.9800 H       1  UNL1        0.0280
     37 H          -4.0130   12.1070   68.4650 H       1  UNL1        0.0280
     38 H          -3.9150   13.7690   69.0920 H       1  UNL1        0.0280
     39 C          -5.7090   13.7690   70.9800 C.3     1  UNL1       -0.0710
     40 H          -4.9830   13.9410   71.7740 H       1  UNL1        0.0280
     41 H          -5.7250   14.6300   70.3100 H       1  UNL1        0.0280
     42 H          -6.6980   13.6300   71.4150 H       1  UNL1        0.0280
     43 C          -8.4780    7.7410   68.6000 C.2     1  UNL1        0.2400
     44 O          -8.7210    6.6150   68.8950 O.2     1  UNL1       -0.2710
     45 N          -7.8470    8.0420   67.2840 N.am    1  UNL1       -0.3550
     46 H          -7.6400    8.9950   67.0200 H       1  UNL1        0.1620
     47 C          -7.5210    6.9370   66.3570 C.3     1  UNL1        0.0130
     48 H          -7.2950    6.0540   66.9540 H       1  UNL1        0.0720
     49 C          -6.3180    7.3200   65.5260 C.3     1  UNL1       -0.0380
     50 H          -5.4750    6.7850   65.9630 H       1  UNL1        0.0360
     51 H          -6.6040    7.1330   64.4900 H       1  UNL1        0.0360
     52 C          -5.9770    8.8230   65.6200 C.3     1  UNL1        0.0180
     53 H          -6.2550    9.1250   66.6300 H       1  UNL1        0.0480
     54 H          -4.9420    8.9130   65.2900 H       1  UNL1        0.0480
     55 C          -6.8120    9.7160   64.6610 C.2     1  UNL1        0.2590
     56 O          -6.3790   10.0310   63.6000 O.2     1  UNL1       -0.2650
     57 O          -8.0990   10.1640   65.0700 O.3     1  UNL1       -0.3170
     58 C          -9.1000   10.0670   64.0520 C.3     1  UNL1        0.0520
     59 H          -8.6240   10.4170   63.1360 H       1  UNL1        0.0820
     60 H          -9.4830    9.0490   64.1120 H       1  UNL1        0.0820
     61 C         -10.2480   11.0460   64.4150 C.ar    1  UNL1       -0.0340
     62 C         -10.5680   11.2820   65.7480 C.ar    1  UNL1       -0.0750
     63 C         -11.5990   12.1610   66.0740 C.ar    1  UNL1       -0.0820
     64 H         -10.0100   10.7780   66.5380 H       1  UNL1        0.0840
     65 C         -12.3140   12.8040   65.0600 C.ar    1  UNL1       -0.0830
     66 H         -11.8460   12.3450   67.1200 H       1  UNL1        0.0830
     67 C         -11.9940   12.5630   63.7310 C.ar    1  UNL1       -0.0820
     68 H         -13.1220   13.4940   65.3060 H       1  UNL1        0.0830
     69 C         -10.9620   11.6870   63.4010 C.ar    1  UNL1       -0.0750
     70 H         -12.5550   13.0650   62.9420 H       1  UNL1        0.0830
     71 H         -10.7160   11.5040   62.3550 H       1  UNL1        0.0840
     72 C          -8.7100    6.6660   65.4380 C.3     1  UNL1       -0.0390
     73 H          -9.5520    7.1900   65.8910 H       1  UNL1        0.0360
     74 H          -8.3730    6.9390   64.4380 H       1  UNL1        0.0360
     75 C          -9.0880    5.1090   65.4000 C.3     1  UNL1       -0.0010
     76 C          -9.2330    4.6050   63.8420 C.3     1  UNL1       -0.0350
     77 C         -10.4190    3.9680   63.6970 C.3     1  UNL1        0.0850
     78 H          -9.3220    5.4650   63.1780 H       1  UNL1        0.0360
     79 H          -8.4980    3.8280   63.6310 H       1  UNL1        0.0360
     80 N         -11.2380    4.2770   64.9270 N.4     1  UNL1       -0.0490
     81 H         -10.8930    4.4280   62.8300 H       1  UNL1        0.0750
     82 H         -10.1790    2.9050   63.6880 H       1  UNL1        0.0750
     83 C         -10.2050    4.8850   66.0080 C.3     1  UNL1        0.1930
     84 H         -11.8900    5.0010   64.6630 H       1  UNL1        0.2800
     85 H         -11.5810    3.3910   65.2730 H       1  UNL1        0.2800
     86 H          -9.8570    4.2770   66.8440 H       1  UNL1        0.1290
     87 H          -8.4530    4.5140   66.0570 H       1  UNL1        0.0460
     88 O         -10.7470    6.0690   66.5960 O.3     1  UNL1       -0.3690
     89 H         -11.6410    5.8960   66.8970 H       1  UNL1        0.2120
     90 C         -10.3370    9.0540   69.6670 C.3     1  UNL1       -0.0350
     91 H         -10.5160   10.1280   69.6100 H       1  UNL1        0.0370
     92 H         -10.7400    8.3930   68.8990 H       1  UNL1        0.0370
     93 C         -10.9470    8.5760   71.0240 C.3     1  UNL1       -0.0590
     94 H         -11.4030    7.6010   70.8570 H       1  UNL1        0.0380
     95 C          -9.8580    8.4090   72.1320 C.3     1  UNL1       -0.0730
     96 H          -9.0170    9.0670   71.9170 H       1  UNL1        0.0280
     97 H         -10.2840    8.6700   73.1020 H       1  UNL1        0.0280
     98 H          -9.5160    7.3740   72.1520 H       1  UNL1        0.0280
     99 C         -12.0560    9.5230   71.4880 C.3     1  UNL1       -0.0730
    100 H         -12.1150    9.5090   72.5770 H       1  UNL1        0.0280
    101 H         -11.8340   10.5360   71.1500 H       1  UNL1        0.0280
    102 H         -13.0090    9.2010   71.0680 H       1  UNL1        0.0280
@<TRIPOS>BOND
     1    71    69    1
     2    81    77    1
     3    70    67    1
     4    59    58    1
     5    78    76    1
     6    69    67   ar
     7    69    61   ar
     8    56    55    2
     9    79    76    1
    10    82    77    1
    11    77    76    1
    12    77    80    1
    13    67    65   ar
    14    76    75    1
    15    58    60    1
    16    58    61    1
    17    58    57    1
    18    61    62   ar
    19    74    72    1
    20    51    49    1
    21    55    57    1
    22    55    52    1
    23    84    80    1
    24    80    85    1
    25    80    83    1
    26    65    68    1
    27    65    63   ar
    28    54    52    1
    29    75    72    1
    30    75    83    1
    31    75    87    1
    32    72    73    1
    33    72    47    1
    34    49    52    1
    35    49    50    1
    36    49    47    1
    37    52    53    1
    38    62    63   ar
    39    62    64    1
    40    83    88    1
    41    83    86    1
    42    63    66    1
    43    47    48    1
    44    47    45    1
    45    32    29    1
    46    88    89    1
    47    11    10    2
    48    46    45    1
    49    14    13    1
    50    45    43   am
    51    29    13    1
    52    29    30    1
    53    29    31    1
    54    13    10    1
    55    13    15    1
    56    10     9   am
    57     8     7    1
    58     6     3    1
    59    17    16    2
    60    37    35    1
    61    43    44    2
    62    43     1    1
    63    92    90    1
    64     3     1    1
    65     3     4   am
    66    38    35    1
    67    15    16   am
    68    15    18    1
    69     9     7    1
    70     9    12    1
    71     7     4    1
    72     7    33    1
    73    16    19    1
    74    35    36    1
    75    35    33    1
    76     1    90    1
    77     1     2    1
    78    91    90    1
    79    90    93    1
    80     4     5    2
    81    33    34    1
    82    33    39    1
    83    41    39    1
    84    19    24   ar
    85    19    20   ar
    86    94    93    1
    87    24    23   ar
    88    39    42    1
    89    39    40    1
    90    93    99    1
    91    93    95    1
    92   102    99    1
    93   101    99    1
    94    99   100    1
    95    20    22    1
    96    20    21   ar
    97    96    95    1
    98    95    98    1
    99    95    97    1
   100    23    21   ar
   101    21    25    1
   102    25    26    1
   103    25    28    1
   104    25    27    1
@<TRIPOS>MOLECULE
crystal_redock_e32_er3_1.pdbqt
 102 104 0 0 0
SMALL
GASTEIGER

@<TRIPOS>ATOM
      1 C          -8.7230   13.5430   68.4540 C.3     1  UNL1        0.0890
      2 H          -8.7850   14.6300   68.5150 H       1  UNL1        0.0870
      3 N          -9.8640   12.9980   69.1750 N.am    1  UNL1       -0.3460
      4 C         -11.1730   13.7450   69.2040 C.2     1  UNL1        0.2410
      5 O         -11.2840   14.7850   68.6430 O.2     1  UNL1       -0.2710
      6 H          -9.7480   12.1130   69.6480 H       1  UNL1        0.1630
      7 C         -12.3450   13.1630   69.9500 C.3     1  UNL1        0.0920
      8 H         -13.1590   12.9760   69.2500 H       1  UNL1        0.0880
      9 N         -11.9650   11.8700   70.5270 N.am    1  UNL1       -0.3460
     10 C         -11.9900   10.6810   69.7100 C.2     1  UNL1        0.2400
     11 O         -12.3150   10.7470   68.5880 O.2     1  UNL1       -0.2710
     12 H         -11.6840   11.7970   71.4940 H       1  UNL1        0.1630
     13 C         -11.5870    9.3070   70.3300 C.3     1  UNL1        0.0860
     14 H         -12.4210    8.8060   70.8210 H       1  UNL1        0.0860
     15 N         -11.1380    8.4240   69.2670 N.am    1  UNL1       -0.3430
     16 C         -11.2450    6.9740   69.4410 C.2     1  UNL1        0.2730
     17 O         -11.6920    6.5280   70.4410 O.2     1  UNL1       -0.2660
     18 H         -10.7550    8.8130   68.4170 H       1  UNL1        0.1630
     19 C         -10.7760    6.0280   68.3250 C.ar    1  UNL1        0.1540
     20 C          -9.8940    4.9080   68.4540 C.ar    1  UNL1       -0.0170
     21 C          -9.7850    4.3790   67.1490 C.ar    1  UNL1        0.0770
     22 H          -9.4070    4.5370   69.3560 H       1  UNL1        0.0910
     23 O         -10.5230    5.1140   66.3700 O.2     1  UNL1       -0.2180
     24 N         -11.1110    6.0830   67.0330 N.ar    1  UNL1       -0.1230
     25 C          -8.9570    3.1700   66.7320 C.3     1  UNL1       -0.0290
     26 H          -9.5490    2.5330   66.0750 H       1  UNL1        0.0360
     27 H          -8.0640    3.5060   66.2060 H       1  UNL1        0.0360
     28 H          -8.6660    2.6060   67.6190 H       1  UNL1        0.0360
     29 C         -10.4810    9.5110   71.3340 C.3     1  UNL1       -0.0490
     30 H          -9.7210    8.7420   71.1990 H       1  UNL1        0.0300
     31 H         -10.0340   10.4950   71.1880 H       1  UNL1        0.0300
     32 H         -10.8890    9.4440   72.3430 H       1  UNL1        0.0300
     33 C         -12.7670   14.1330   71.0920 C.3     1  UNL1       -0.0330
     34 H         -13.4350   14.8780   70.6610 H       1  UNL1        0.0420
     35 C         -13.5580   13.3850   72.2110 C.3     1  UNL1       -0.0710
     36 H         -14.6060   13.6820   72.1740 H       1  UNL1        0.0280
     37 H         -13.4800   12.3100   72.0530 H       1  UNL1        0.0280
     38 H         -13.1400   13.6420   73.1840 H       1  UNL1        0.0280
     39 C         -11.5250   14.8790   71.6790 C.3     1  UNL1       -0.0710
     40 H         -10.7920   14.1500   72.0210 H       1  UNL1        0.0280
     41 H         -11.0800   15.5070   70.9060 H       1  UNL1        0.0280
     42 H         -11.8390   15.5010   72.5170 H       1  UNL1        0.0280
     43 C          -8.7750   13.0330   66.9850 C.2     1  UNL1        0.2400
     44 O          -7.7640   12.7990   66.4050 O.2     1  UNL1       -0.2710
     45 N         -10.0850   12.8280   66.3050 N.am    1  UNL1       -0.3550
     46 H         -10.9500   13.0190   66.7890 H       1  UNL1        0.1620
     47 C         -10.1170   12.3410   64.9090 C.3     1  UNL1        0.0130
     48 H          -9.1420   12.5360   64.4630 H       1  UNL1        0.0720
     49 C         -11.1920   13.0820   64.1460 C.3     1  UNL1       -0.0380
     50 H         -10.6730   13.6150   63.3490 H       1  UNL1        0.0360
     51 H         -11.9470   12.3350   63.9010 H       1  UNL1        0.0360
     52 C         -11.9010   14.1560   65.0000 C.3     1  UNL1        0.0180
     53 H         -12.9480   13.8550   65.0440 H       1  UNL1        0.0480
     54 H         -11.3180   14.2360   65.9180 H       1  UNL1        0.0480
     55 C         -11.8890   15.5720   64.3610 C.2     1  UNL1        0.2590
     56 O         -12.7470   15.9010   63.6070 O.2     1  UNL1       -0.2650
     57 O         -10.8330   16.4710   64.6770 O.3     1  UNL1       -0.3170
     58 C         -10.2550   16.2580   65.9680 C.3     1  UNL1        0.0520
     59 H         -11.0330   15.7810   66.5650 H       1  UNL1        0.0820
     60 H          -9.3120   15.7420   65.7890 H       1  UNL1        0.0820
     61 C          -9.9430   17.6470   66.5880 C.ar    1  UNL1       -0.0340
     62 C          -9.1320   17.7410   67.7140 C.ar    1  UNL1       -0.0750
     63 C          -8.8520   18.9880   68.2710 C.ar    1  UNL1       -0.0820
     64 H          -8.7160   16.8380   68.1600 H       1  UNL1        0.0840
     65 C          -9.3890   20.1440   67.6980 C.ar    1  UNL1       -0.0830
     66 H          -8.2140   19.0590   69.1520 H       1  UNL1        0.0830
     67 C         -10.2000   20.0450   66.5760 C.ar    1  UNL1       -0.0820
     68 H          -9.1750   21.1230   68.1260 H       1  UNL1        0.0830
     69 C         -10.4810   18.8010   66.0150 C.ar    1  UNL1       -0.0750
     70 H         -10.6200   20.9490   66.1320 H       1  UNL1        0.0830
     71 H         -11.1180   18.7310   65.1330 H       1  UNL1        0.0840
     72 C         -10.4190   10.8440   64.8910 C.3     1  UNL1       -0.0390
     73 H         -11.1210   10.6800   65.7090 H       1  UNL1        0.0360
     74 H         -10.7160   10.6200   63.8660 H       1  UNL1        0.0360
     75 C          -9.1130    9.9720   65.2070 C.3     1  UNL1       -0.0010
     76 C          -8.5580    9.2740   63.8250 C.3     1  UNL1       -0.0350
     77 C          -8.3900    7.9480   64.0440 C.3     1  UNL1        0.0850
     78 H          -9.3270    9.3090   63.0540 H       1  UNL1        0.0360
     79 H          -7.5500    9.6260   63.6070 H       1  UNL1        0.0360
     80 N          -9.0870    7.6220   65.3420 N.4     1  UNL1       -0.0490
     81 H          -8.9120    7.4490   63.2260 H       1  UNL1        0.0750
     82 H          -7.3170    7.8070   64.1720 H       1  UNL1        0.0750
     83 C          -9.3690    9.0390   66.0620 C.3     1  UNL1        0.1930
     84 H          -9.9730    7.2050   65.0950 H       1  UNL1        0.2800
     85 H          -8.4240    7.1040   65.9010 H       1  UNL1        0.2800
     86 H          -8.7550    9.3660   66.9020 H       1  UNL1        0.1290
     87 H          -8.3890   10.5170   65.8120 H       1  UNL1        0.0460
     88 O         -10.7180    9.0940   66.5320 O.3     1  UNL1       -0.3690
     89 H         -11.1010    9.9440   66.3050 H       1  UNL1        0.2120
     90 C          -7.4420   13.0630   69.1170 C.3     1  UNL1       -0.0350
     91 H          -7.7500   12.6580   70.0810 H       1  UNL1        0.0370
     92 H          -6.9610   12.4160   68.3830 H       1  UNL1        0.0370
     93 C          -6.4270   14.2110   69.4250 C.3     1  UNL1       -0.0590
     94 H          -5.9780   14.0030   70.3960 H       1  UNL1        0.0380
     95 C          -5.2760   14.2770   68.3710 C.3     1  UNL1       -0.0730
     96 H          -4.4270   14.8140   68.7950 H       1  UNL1        0.0280
     97 H          -4.9690   13.2660   68.1040 H       1  UNL1        0.0280
     98 H          -5.6280   14.7980   67.4810 H       1  UNL1        0.0280
     99 C          -7.1440   15.5590   69.5340 C.3     1  UNL1       -0.0730
    100 H          -7.7130   15.7440   68.6220 H       1  UNL1        0.0280
    101 H          -7.8220   15.5410   70.3880 H       1  UNL1        0.0280
    102 H          -6.4090   16.3510   69.6710 H       1  UNL1        0.0280
@<TRIPOS>BOND
     1    78    76    1
     2    81    77    1
     3    50    49    1
     4    56    55    2
     5    79    76    1
     6    76    77    1
     7    76    75    1
     8    74    72    1
     9    51    49    1
    10    77    82    1
    11    77    80    1
    12    49    47    1
    13    49    52    1
    14    55    57    1
    15    55    52    1
    16    48    47    1
    17    57    58    1
    18    72    47    1
    19    72    75    1
    20    72    73    1
    21    47    45    1
    22    52    53    1
    23    52    54    1
    24    84    80    1
    25    71    69    1
    26    75    87    1
    27    75    83    1
    28    80    85    1
    29    80    83    1
    30    60    58    1
    31    58    59    1
    32    58    61    1
    33    69    67   ar
    34    69    61   ar
    35    83    88    1
    36    83    86    1
    37    26    25    1
    38    70    67    1
    39    27    25    1
    40    89    88    1
    41    45    46    1
    42    45    43   am
    43    23    24   ar
    44    23    21   ar
    45    44    43    2
    46    67    65   ar
    47    61    62   ar
    48    25    21    1
    49    25    28    1
    50    43     1    1
    51    24    19   ar
    52    21    20   ar
    53    98    95    1
    54    65    68    1
    55    65    63   ar
    56    62    64    1
    57    62    63   ar
    58    97    95    1
    59    63    66    1
    60    19    20   ar
    61    19    16    1
    62    95    96    1
    63    95    93    1
    64    92    90    1
    65    18    15    1
    66    20    22    1
    67     1     2    1
    68     1    90    1
    69     1     3    1
    70    11    10    2
    71   100    99    1
    72     5     4    2
    73    90    93    1
    74    90    91    1
    75     3     4   am
    76     3     6    1
    77     4     7    1
    78     8     7    1
    79    15    16   am
    80    15    13    1
    81    93    99    1
    82    93    94    1
    83    16    17    2
    84    99   102    1
    85    99   101    1
    86    10    13    1
    87    10     9   am
    88     7     9    1
    89     7    33    1
    90    13    14    1
    91    13    29    1
    92     9    12    1
    93    34    33    1
    94    41    39    1
    95    33    39    1
    96    33    35    1
    97    31    29    1
    98    30    29    1
    99    29    32    1
   100    39    40    1
   101    39    42    1
   102    37    35    1
   103    36    35    1
   104    35    38    1
@<TRIPOS>MOLECULE
crystal_redock_e32_er3_1.pdbqt
 102 104 0 0 0
SMALL
GASTEIGER

@<TRIPOS>ATOM
      1 C          -6.6980   13.0180   68.1260 C.3     1  UNL1        0.0890
      2 H          -5.6850   12.8900   67.7450 H       1  UNL1        0.0870
      3 N          -7.0350   14.4290   68.0090 N.am    1  UNL1       -0.3460
      4 C          -5.9680   15.4420   67.6800 C.2     1  UNL1        0.2410
      5 O          -4.8440   15.0980   67.5160 O.2     1  UNL1       -0.2710
      6 H          -7.9970   14.7010   68.1550 H       1  UNL1        0.1630
      7 C          -6.3360   16.8980   67.5570 C.3     1  UNL1        0.0920
      8 H          -6.1330   17.2340   66.5400 H       1  UNL1        0.0880
      9 N          -7.7750   17.0600   67.7890 N.am    1  UNL1       -0.3460
     10 C          -8.5910   17.7300   66.8070 C.2     1  UNL1        0.2400
     11 O          -8.1070   18.1470   65.8260 O.2     1  UNL1       -0.2710
     12 H          -8.2060   16.7070   68.6310 H       1  UNL1        0.1630
     13 C         -10.1210   17.9030   67.0600 C.3     1  UNL1        0.0860
     14 H         -10.7310   17.3570   66.3410 H       1  UNL1        0.0860
     15 N         -10.4450   17.3660   68.3720 N.am    1  UNL1       -0.3430
     16 C         -11.2420   16.1410   68.4730 C.2     1  UNL1        0.2730
     17 O         -11.6190   15.5970   67.4940 O.2     1  UNL1       -0.2660
     18 H         -10.1200   17.8390   69.2030 H       1  UNL1        0.1630
     19 C         -11.5900   15.5610   69.8530 C.ar    1  UNL1        0.1540
     20 C         -11.6630   16.2690   71.0940 C.ar    1  UNL1       -0.0170
     21 C         -12.0180   15.2910   72.0500 C.ar    1  UNL1        0.0770
     22 H         -11.4860   17.3290   71.2750 H       1  UNL1        0.0910
     23 O         -12.1350   14.1580   71.4200 O.2     1  UNL1       -0.2180
     24 N         -11.8890   14.2910   70.1370 N.ar    1  UNL1       -0.1230
     25 C         -12.2270   15.5200   73.5410 C.3     1  UNL1       -0.0290
     26 H         -11.9920   16.5570   73.7860 H       1  UNL1        0.0360
     27 H         -13.2660   15.3130   73.7980 H       1  UNL1        0.0360
     28 H         -11.5730   14.8560   74.1060 H       1  UNL1        0.0360
     29 C         -10.4820   19.3650   66.9970 C.3     1  UNL1       -0.0490
     30 H         -11.4880   19.5080   67.3920 H       1  UNL1        0.0300
     31 H          -9.7730   19.9410   67.5910 H       1  UNL1        0.0300
     32 H         -10.4480   19.7030   65.9620 H       1  UNL1        0.0300
     33 C          -5.5470   17.7230   68.6160 C.3     1  UNL1       -0.0330
     34 H          -4.4910   17.6770   68.3480 H       1  UNL1        0.0420
     35 C          -5.9710   19.2250   68.5960 C.3     1  UNL1       -0.0710
     36 H          -5.7770   19.6440   67.6090 H       1  UNL1        0.0280
     37 H          -7.0340   19.3050   68.8220 H       1  UNL1        0.0280
     38 H          -5.3970   19.7730   69.3430 H       1  UNL1        0.0280
     39 C          -5.7110   17.1060   70.0420 C.3     1  UNL1       -0.0710
     40 H          -6.1160   17.8580   70.7180 H       1  UNL1        0.0280
     41 H          -6.3930   16.2560   69.9940 H       1  UNL1        0.0280
     42 H          -4.7400   16.7730   70.4070 H       1  UNL1        0.0280
     43 C          -7.7390   12.1910   67.3180 C.2     1  UNL1        0.2400
     44 O          -7.3680   11.4050   66.5080 O.2     1  UNL1       -0.2710
     45 N          -9.1980   12.3740   67.5600 N.am    1  UNL1       -0.3550
     46 H          -9.5250   13.0360   68.2500 H       1  UNL1        0.1620
     47 C         -10.1750   11.5800   66.7850 C.3     1  UNL1        0.0130
     48 H          -9.6470   11.1230   65.9480 H       1  UNL1        0.0720
     49 C         -11.2650   12.4920   66.2710 C.3     1  UNL1       -0.0380
     50 H         -12.1810   11.9020   66.2980 H       1  UNL1        0.0360
     51 H         -11.1870   13.4060   66.8610 H       1  UNL1        0.0360
     52 C         -11.0560   12.9050   64.7970 C.3     1  UNL1        0.0180
     53 H         -11.6570   13.8030   64.6540 H       1  UNL1        0.0480
     54 H          -9.9770   12.9420   64.6510 H       1  UNL1        0.0480
     55 C         -11.5910   11.8650   63.7740 C.2     1  UNL1        0.2590
     56 O         -12.7390   11.8550   63.4670 O.2     1  UNL1       -0.2650
     57 O         -10.6940   10.9120   63.2150 O.3     1  UNL1       -0.3170
     58 C          -9.3290   11.3420   63.1910 C.3     1  UNL1        0.0520
     59 H          -9.1870   11.8180   62.2210 H       1  UNL1        0.0820
     60 H          -9.1850   11.9160   64.1060 H       1  UNL1        0.0820
     61 C          -8.4290   10.0800   63.2560 C.ar    1  UNL1       -0.0340
     62 C          -7.3760    9.9280   62.3590 C.ar    1  UNL1       -0.0750
     63 C          -6.5670    8.7940   62.4170 C.ar    1  UNL1       -0.0820
     64 H          -7.1850   10.6980   61.6110 H       1  UNL1        0.0840
     65 C          -6.8150    7.8080   63.3750 C.ar    1  UNL1       -0.0830
     66 H          -5.7420    8.6800   61.7140 H       1  UNL1        0.0830
     67 C          -7.8690    7.9630   64.2670 C.ar    1  UNL1       -0.0820
     68 H          -6.1870    6.9190   63.4280 H       1  UNL1        0.0830
     69 C          -8.6790    9.0950   64.2140 C.ar    1  UNL1       -0.0750
     70 H          -8.0610    7.1900   65.0120 H       1  UNL1        0.0830
     71 H          -9.5030    9.2090   64.9180 H       1  UNL1        0.0840
     72 C         -10.7900   10.5030   67.6770 C.3     1  UNL1       -0.0390
     73 H         -11.8680   10.5980   67.5450 H       1  UNL1        0.0360
     74 H         -10.2870    9.5760   67.4010 H       1  UNL1        0.0360
     75 C         -10.4770   10.7670   69.2250 C.3     1  UNL1       -0.0010
     76 C          -9.5070    9.5760   69.8120 C.3     1  UNL1       -0.0350
     77 C         -10.0630    9.0770   70.9420 C.3     1  UNL1        0.0850
     78 H          -9.5070    8.7250   69.1310 H       1  UNL1        0.0360
     79 H          -8.5630    9.9990   70.1570 H       1  UNL1        0.0360
     80 N         -11.4810    9.5910   71.0010 N.4     1  UNL1       -0.0490
     81 H         -10.0820    7.9960   70.8050 H       1  UNL1        0.0750
     82 H          -9.4930    9.5130   71.7630 H       1  UNL1        0.0750
     83 C         -11.5630   10.7910   69.9240 C.3     1  UNL1        0.1930
     84 H         -12.0720    8.8360   70.6860 H       1  UNL1        0.2800
     85 H         -11.6070    9.9800   71.9250 H       1  UNL1        0.2800
     86 H         -11.5640   11.8310   70.2520 H       1  UNL1        0.1290
     87 H         -10.1700   11.7960   69.4150 H       1  UNL1        0.0460
     88 O         -12.7300   10.6460   69.1120 O.3     1  UNL1       -0.3690
     89 H         -13.0680    9.7510   69.1950 H       1  UNL1        0.2120
     90 C          -6.7510   12.6150   69.5910 C.3     1  UNL1       -0.0350
     91 H          -7.4910   13.2740   70.0460 H       1  UNL1        0.0370
     92 H          -6.9120   11.5360   69.5880 H       1  UNL1        0.0370
     93 C          -5.4120   12.8590   70.3570 C.3     1  UNL1       -0.0590
     94 H          -4.7070   13.3040   69.6560 H       1  UNL1        0.0380
     95 C          -5.5890   13.8510   71.5510 C.3     1  UNL1       -0.0730
     96 H          -4.8010   14.6030   71.5170 H       1  UNL1        0.0280
     97 H          -6.5610   14.3390   71.4770 H       1  UNL1        0.0280
     98 H          -5.5280   13.3020   72.4910 H       1  UNL1        0.0280
     99 C          -4.8060   11.5360   70.8340 C.3     1  UNL1       -0.0730
    100 H          -3.7210   11.5800   70.7410 H       1  UNL1        0.0280
    101 H          -5.0760   11.3680   71.8770 H       1  UNL1        0.0280
    102 H          -5.1910   10.7190   70.2230 H       1  UNL1        0.0280
@<TRIPOS>BOND
     1    64    62    1
     2    66    63    1
     3    59    58    1
     4    62    63   ar
     5    62    61   ar
     6    63    65   ar
     7    58    57    1
     8    58    61    1
     9    58    60    1
    10    57    55    1
    11    61    69   ar
    12    65    68    1
    13    65    67   ar
    14    56    55    2
    15    55    52    1
    16    69    67   ar
    17    69    71    1
    18    67    70    1
    19    54    52    1
    20    53    52    1
    21    52    49    1
    22    11    10    2
    23    48    47    1
    24    32    29    1
    25    49    50    1
    26    49    47    1
    27    49    51    1
    28    14    13    1
    29    44    43    2
    30     8     7    1
    31    47    45    1
    32    47    72    1
    33    10    13    1
    34    10     9   am
    35    29    13    1
    36    29    30    1
    37    29    31    1
    38    13    15    1
    39    43    45   am
    40    43     1    1
    41    74    72    1
    42    17    16    2
    43     5     4    2
    44    73    72    1
    45     7     4    1
    46     7     9    1
    47     7    33    1
    48    45    46    1
    49    36    35    1
    50    72    75    1
    51     4     3   am
    52     2     1    1
    53     9    12    1
    54     3     1    1
    55     3     6    1
    56     1    90    1
    57    34    33    1
    58    15    16   am
    59    15    18    1
    60    16    19    1
    61    35    33    1
    62    35    37    1
    63    35    38    1
    64    33    39    1
    65    88    89    1
    66    88    83    1
    67    78    76    1
    68    75    87    1
    69    75    76    1
    70    75    83    1
    71    92    90    1
    72    90    91    1
    73    90    93    1
    74    94    93    1
    75    76    79    1
    76    76    77    1
    77    19    24   ar
    78    19    20   ar
    79    83    86    1
    80    83    80    1
    81    41    39    1
    82    39    42    1
    83    39    40    1
    84    24    23   ar
    85   102    99    1
    86    93    99    1
    87    93    95    1
    88    84    80    1
    89   100    99    1
    90    81    77    1
    91    99   101    1
    92    77    80    1
    93    77    82    1
    94    80    85    1
    95    20    22    1
    96    20    21   ar
    97    23    21   ar
    98    97    95    1
    99    96    95    1
   100    95    98    1
   101    21    25    1
   102    25    26    1
   103    25    27    1
   104    25    28    1
@<TRIPOS>MOLECULE
crystal_redock_e32_er3_1.pdbqt
 102 104 0 0 0
SMALL
GASTEIGER

@<TRIPOS>ATOM
      1 C          -6.3780   14.0700   67.9270 C.3     1  UNL1        0.0890
      2 H          -5.8190   14.0730   66.9910 H       1  UNL1        0.0870
      3 N          -6.6390   15.4550   68.2870 N.am    1  UNL1       -0.3460
      4 C          -6.0130   16.5780   67.4980 C.2     1  UNL1        0.2410
      5 O          -5.3000   16.3420   66.5800 O.2     1  UNL1       -0.2710
      6 H          -7.2470   15.6360   69.0730 H       1  UNL1        0.1630
      7 C          -6.2990   18.0060   67.8810 C.3     1  UNL1        0.0920
      8 H          -6.0000   18.6630   67.0650 H       1  UNL1        0.0880
      9 N          -7.7420   18.1820   68.0730 N.am    1  UNL1       -0.3460
     10 C          -8.6230   18.2030   66.9310 C.2     1  UNL1        0.2400
     11 O          -8.1870   18.0820   65.8510 O.2     1  UNL1       -0.2710
     12 H          -8.1320   18.2900   68.9980 H       1  UNL1        0.1630
     13 C         -10.1570   18.3940   67.1410 C.3     1  UNL1        0.0860
     14 H         -10.7510   17.9330   66.3510 H       1  UNL1        0.0860
     15 N         -10.5470   17.7490   68.3840 N.am    1  UNL1       -0.3430
     16 C         -11.0340   16.3680   68.3580 C.2     1  UNL1        0.2730
     17 O         -11.1110   15.7860   67.3320 O.2     1  UNL1       -0.2660
     18 H         -10.4800   18.2550   69.2550 H       1  UNL1        0.1630
     19 C         -11.4470   15.6730   69.6650 C.ar    1  UNL1        0.1540
     20 C         -11.6070   16.2770   70.9520 C.ar    1  UNL1       -0.0170
     21 C         -11.9940   15.2190   71.8050 C.ar    1  UNL1        0.0770
     22 H         -11.4650   17.3230   71.2260 H       1  UNL1        0.0910
     23 O         -12.0480   14.1390   71.0820 O.2     1  UNL1       -0.2180
     24 N         -11.7330   14.3780   69.8300 N.ar    1  UNL1       -0.1230
     25 C         -12.2930   15.3250   73.2940 C.3     1  UNL1       -0.0290
     26 H         -13.1490   15.9830   73.4480 H       1  UNL1        0.0360
     27 H         -12.5200   14.3350   73.6900 H       1  UNL1        0.0360
     28 H         -11.4240   15.7320   73.8120 H       1  UNL1        0.0360
     29 C         -10.4810   19.8650   67.1990 C.3     1  UNL1       -0.0490
     30 H         -11.3620   20.0190   67.8220 H       1  UNL1        0.0300
     31 H          -9.6350   20.4060   67.6230 H       1  UNL1        0.0300
     32 H         -10.6800   20.2330   66.1920 H       1  UNL1        0.0300
     33 C          -5.5580   18.3460   69.2080 C.3     1  UNL1       -0.0330
     34 H          -5.7780   17.5520   69.9200 H       1  UNL1        0.0420
     35 C          -4.0110   18.3760   69.0020 C.3     1  UNL1       -0.0710
     36 H          -3.7100   19.3660   68.6570 H       1  UNL1        0.0280
     37 H          -3.5150   18.1550   69.9470 H       1  UNL1        0.0280
     38 H          -3.7290   17.6310   68.2600 H       1  UNL1        0.0280
     39 C          -6.0760   19.6920   69.8090 C.3     1  UNL1       -0.0710
     40 H          -6.5010   19.5100   70.7950 H       1  UNL1        0.0280
     41 H          -5.2460   20.3950   69.8950 H       1  UNL1        0.0280
     42 H          -6.8400   20.1110   69.1550 H       1  UNL1        0.0280
     43 C          -7.7390   13.3270   67.7950 C.2     1  UNL1        0.2400
     44 O          -8.6720   13.6860   68.4370 O.2     1  UNL1       -0.2710
     45 N          -7.8800   12.1730   66.8630 N.am    1  UNL1       -0.3550
     46 H          -7.0950   11.8620   66.3090 H       1  UNL1        0.1620
     47 C          -9.1800   11.4780   66.7480 C.3     1  UNL1        0.0130
     48 H          -9.9680   12.2090   66.9290 H       1  UNL1        0.0720
     49 C          -9.2510   10.3770   67.7810 C.3     1  UNL1       -0.0380
     50 H          -8.4980   10.6250   68.5290 H       1  UNL1        0.0360
     51 H         -10.3010   10.3080   68.0670 H       1  UNL1        0.0360
     52 C          -8.8620    8.9950   67.2120 C.3     1  UNL1        0.0180
     53 H          -8.9120    9.0970   66.1280 H       1  UNL1        0.0480
     54 H          -7.9180    8.7330   67.6920 H       1  UNL1        0.0480
     55 C          -9.8590    7.8620   67.5820 C.2     1  UNL1        0.2590
     56 O         -10.8570    7.7090   66.9570 O.2     1  UNL1       -0.2650
     57 O          -9.5710    7.0140   68.6880 O.3     1  UNL1       -0.3170
     58 C          -9.3260    7.7150   69.9110 C.3     1  UNL1        0.0520
     59 H          -8.7920    7.0130   70.5510 H       1  UNL1        0.0820
     60 H          -8.8580    8.6560   69.6230 H       1  UNL1        0.0820
     61 C         -10.6980    8.0300   70.5650 C.ar    1  UNL1       -0.0340
     62 C         -11.0400    9.3440   70.8680 C.ar    1  UNL1       -0.0750
     63 C         -12.2720    9.6270   71.4550 C.ar    1  UNL1       -0.0820
     64 H         -10.3430   10.1520   70.6440 H       1  UNL1        0.0840
     65 C         -13.1630    8.5890   71.7430 C.ar    1  UNL1       -0.0830
     66 H         -12.5380   10.6580   71.6890 H       1  UNL1        0.0830
     67 C         -12.8160    7.2790   71.4420 C.ar    1  UNL1       -0.0820
     68 H         -14.1290    8.8020   72.2020 H       1  UNL1        0.0830
     69 C         -11.5870    6.9920   70.8520 C.ar    1  UNL1       -0.0750
     70 H         -13.5120    6.4710   71.6700 H       1  UNL1        0.0830
     71 H         -11.3220    5.9600   70.6180 H       1  UNL1        0.0840
     72 C          -9.3240   10.8770   65.3510 C.3     1  UNL1       -0.0390
     73 H          -8.3040   10.7150   64.9990 H       1  UNL1        0.0360
     74 H         -10.0000   10.0310   65.4680 H       1  UNL1        0.0360
     75 C         -10.0180   11.9010   64.3340 C.3     1  UNL1       -0.0010
     76 C         -11.3010   12.6300   65.0610 C.3     1  UNL1       -0.0350
     77 C         -12.3840   12.5080   64.2570 C.3     1  UNL1        0.0850
     78 H         -11.5850   12.0790   65.9570 H       1  UNL1        0.0360
     79 H         -11.1400   13.7070   65.1110 H       1  UNL1        0.0360
     80 N         -12.0400   11.4830   63.2040 N.4     1  UNL1       -0.0490
     81 H         -13.1760   12.1110   64.8940 H       1  UNL1        0.0750
     82 H         -12.5040   13.4800   63.7810 H       1  UNL1        0.0750
     83 C         -10.4380   11.2950   63.2740 C.3     1  UNL1        0.1930
     84 H         -12.4780   10.6200   63.4900 H       1  UNL1        0.2800
     85 H         -12.2760   11.8980   62.3130 H       1  UNL1        0.2800
     86 H          -9.7940   11.7460   62.5190 H       1  UNL1        0.1290
     87 H          -9.2930   12.5500   63.8420 H       1  UNL1        0.0460
     88 O         -10.1050    9.9050   63.2800 O.3     1  UNL1       -0.3690
     89 H         -10.8640    9.3960   63.5740 H       1  UNL1        0.2120
     90 C          -5.5450   13.4210   69.0210 C.3     1  UNL1       -0.0350
     91 H          -6.1850   12.6510   69.4530 H       1  UNL1        0.0370
     92 H          -4.6060   13.1440   68.5430 H       1  UNL1        0.0370
     93 C          -5.1780   14.3930   70.1870 C.3     1  UNL1       -0.0590
     94 H          -5.7180   15.3260   70.0240 H       1  UNL1        0.0380
     95 C          -5.6070   13.8310   71.5810 C.3     1  UNL1       -0.0730
     96 H          -5.9600   14.6490   72.2090 H       1  UNL1        0.0280
     97 H          -6.4080   13.1030   71.4470 H       1  UNL1        0.0280
     98 H          -4.7530   13.3490   72.0570 H       1  UNL1        0.0280
     99 C          -3.6830   14.7250   70.1710 C.3     1  UNL1       -0.0730
    100 H          -3.3380   14.7980   69.1400 H       1  UNL1        0.0280
    101 H          -3.5170   15.6770   70.6780 H       1  UNL1        0.0280
    102 H          -3.1310   13.9390   70.6860 H       1  UNL1        0.0280
@<TRIPOS>BOND
     1    85    80    1
     2    86    83    1
     3    80    83    1
     4    80    84    1
     5    80    77    1
     6    83    88    1
     7    83    75    1
     8    88    89    1
     9    82    77    1
    10    87    75    1
    11    77    81    1
    12    77    76    1
    13    75    76    1
    14    75    72    1
    15    73    72    1
    16    76    79    1
    17    76    78    1
    18    72    74    1
    19    72    47    1
    20    11    10    2
    21    53    52    1
    22    32    29    1
    23    46    45    1
    24    14    13    1
    25     5     4    2
    26    47    45    1
    27    47    48    1
    28    47    49    1
    29    45    43   am
    30    10    13    1
    31    10     9   am
    32    56    55    2
    33     2     1    1
    34     8     7    1
    35    13    29    1
    36    13    15    1
    37    29    31    1
    38    29    30    1
    39    52    55    1
    40    52    54    1
    41    52    49    1
    42    17    16    2
    43     4     7    1
    44     4     3   am
    45    55    57    1
    46    49    51    1
    47    49    50    1
    48    43     1    1
    49    43    44    2
    50     7     9    1
    51     7    33    1
    52     1     3    1
    53     1    90    1
    54     9    12    1
    55    38    35    1
    56     3     6    1
    57    16    15   am
    58    16    19    1
    59    15    18    1
    60    92    90    1
    61    36    35    1
    62    57    58    1
    63    35    33    1
    64    35    37    1
    65    90    91    1
    66    90    93    1
    67   100    99    1
    68    42    39    1
    69    33    39    1
    70    33    34    1
    71    60    58    1
    72    19    24   ar
    73    19    20   ar
    74    39    41    1
    75    39    40    1
    76    24    23   ar
    77    58    59    1
    78    58    61    1
    79    94    93    1
    80    99    93    1
    81    99   101    1
    82    99   102    1
    83    93    95    1
    84    61    69   ar
    85    61    62   ar
    86    71    69    1
    87    64    62    1
    88    69    67   ar
    89    62    63   ar
    90    20    22    1
    91    20    21   ar
    92    23    21   ar
    93    67    70    1
    94    67    65   ar
    95    97    95    1
    96    63    66    1
    97    63    65   ar
    98    95    98    1
    99    95    96    1
   100    65    68    1
   101    21    25    1
   102    25    26    1
   103    25    27    1
   104    25    28    1
@<TRIPOS>MOLECULE
crystal_redock_e32_er3_1.pdbqt
 102 104 0 0 0
SMALL
GASTEIGER

@<TRIPOS>ATOM
      1 C         -11.0000    9.9690   69.5980 C.3     1  UNL1        0.0890
      2 H         -11.5070    9.1300   69.1220 H       1  UNL1        0.0870
      3 N          -9.5840    9.8630   69.2780 N.am    1  UNL1       -0.3460
      4 C          -8.9500    8.5110   69.0670 C.2     1  UNL1        0.2410
      5 O          -9.5990    7.5220   69.1630 O.2     1  UNL1       -0.2710
      6 H          -9.0480   10.7170   69.2030 H       1  UNL1        0.1630
      7 C          -7.4840    8.4210   68.7310 C.3     1  UNL1        0.0920
      8 H          -7.2530    7.4060   68.4080 H       1  UNL1        0.0880
      9 N          -7.1840    9.3130   67.6070 N.am    1  UNL1       -0.3460
     10 C          -6.8070    8.7600   66.3290 C.2     1  UNL1        0.2400
     11 O          -6.7390    7.6000   66.1890 O.2     1  UNL1       -0.2710
     12 H          -7.2370   10.3150   67.7130 H       1  UNL1        0.1630
     13 C          -6.4860    9.7140   65.1370 C.3     1  UNL1        0.0860
     14 H          -6.3810    9.1850   64.1900 H       1  UNL1        0.0860
     15 N          -7.5870   10.6490   64.9720 N.am    1  UNL1       -0.3430
     16 C          -8.8110   10.2100   64.2990 C.2     1  UNL1        0.2730
     17 O          -8.8990    9.1040   63.8900 O.2     1  UNL1       -0.2660
     18 H          -7.5020   11.5930   65.3220 H       1  UNL1        0.1630
     19 C          -9.9830   11.1880   64.1190 C.ar    1  UNL1        0.1540
     20 C         -10.6020   11.9910   65.1280 C.ar    1  UNL1       -0.0170
     21 C         -11.6180   12.7040   64.4530 C.ar    1  UNL1        0.0770
     22 H         -10.3530   12.0470   66.1880 H       1  UNL1        0.0910
     23 O         -11.5770   12.3460   63.2030 O.2     1  UNL1       -0.2180
     24 N         -10.6320   11.4620   62.9830 N.ar    1  UNL1       -0.1230
     25 C         -12.5810   13.7060   65.0750 C.3     1  UNL1       -0.0290
     26 H         -13.5280   13.2130   65.2950 H       1  UNL1        0.0360
     27 H         -12.1520   14.0980   65.9980 H       1  UNL1        0.0360
     28 H         -12.7530   14.5270   64.3780 H       1  UNL1        0.0360
     29 C          -5.2090   10.4640   65.4200 C.3     1  UNL1       -0.0490
     30 H          -4.3600    9.8900   65.0500 H       1  UNL1        0.0300
     31 H          -5.2390   11.4330   64.9210 H       1  UNL1        0.0300
     32 H          -5.1060   10.6110   66.4950 H       1  UNL1        0.0300
     33 C          -6.6410    8.8480   69.9680 C.3     1  UNL1       -0.0330
     34 H          -6.8750    9.8910   70.1810 H       1  UNL1        0.0420
     35 C          -7.0220    8.0140   71.2310 C.3     1  UNL1       -0.0710
     36 H          -6.2140    7.3200   71.4650 H       1  UNL1        0.0280
     37 H          -7.1800    8.6850   72.0750 H       1  UNL1        0.0280
     38 H          -7.9360    7.4550   71.0340 H       1  UNL1        0.0280
     39 C          -5.1120    8.7490   69.6630 C.3     1  UNL1       -0.0710
     40 H          -4.5640    8.6110   70.5950 H       1  UNL1        0.0280
     41 H          -4.9270    7.9000   69.0040 H       1  UNL1        0.0280
     42 H          -4.7780    9.6660   69.1770 H       1  UNL1        0.0280
     43 C         -11.5230   11.3410   69.0820 C.2     1  UNL1        0.2400
     44 O         -12.3590   11.3750   68.2390 O.2     1  UNL1       -0.2710
     45 N         -10.9870   12.6120   69.6470 N.am    1  UNL1       -0.3550
     46 H         -10.2790   12.5950   70.3670 H       1  UNL1        0.1620
     47 C         -11.4950   13.9080   69.1470 C.3     1  UNL1        0.0130
     48 H         -12.5320   13.7660   68.8410 H       1  UNL1        0.0720
     49 C         -10.6630   14.3480   67.9640 C.3     1  UNL1       -0.0380
     50 H          -9.6250   14.2300   68.2740 H       1  UNL1        0.0360
     51 H         -11.0460   13.7880   67.1110 H       1  UNL1        0.0360
     52 C         -10.8490   15.8430   67.6240 C.3     1  UNL1        0.0180
     53 H         -11.9150   15.9720   67.4320 H       1  UNL1        0.0480
     54 H         -10.3720   16.3920   68.4360 H       1  UNL1        0.0480
     55 C         -10.1230   16.2840   66.3230 C.2     1  UNL1        0.2590
     56 O          -9.4620   15.5110   65.7090 O.2     1  UNL1       -0.2650
     57 O         -10.2460   17.6300   65.8790 O.3     1  UNL1       -0.3170
     58 C         -10.4620   18.5730   66.9320 C.3     1  UNL1        0.0520
     59 H         -11.0470   19.3800   66.4900 H       1  UNL1        0.0820
     60 H         -10.8690   17.9990   67.7640 H       1  UNL1        0.0820
     61 C          -9.0820   19.1420   67.3580 C.ar    1  UNL1       -0.0340
     62 C          -8.4110   20.0340   66.5280 C.ar    1  UNL1       -0.0750
     63 C          -7.1710   20.5450   66.9090 C.ar    1  UNL1       -0.0820
     64 H          -8.8560   20.3340   65.5790 H       1  UNL1        0.0840
     65 C          -6.6010   20.1580   68.1250 C.ar    1  UNL1       -0.0830
     66 H          -6.6490   21.2460   66.2580 H       1  UNL1        0.0830
     67 C          -7.2740   19.2650   68.9480 C.ar    1  UNL1       -0.0820
     68 H          -5.6330   20.5530   68.4310 H       1  UNL1        0.0830
     69 C          -8.5140   18.7540   68.5720 C.ar    1  UNL1       -0.0750
     70 H          -6.8250   18.9640   69.8960 H       1  UNL1        0.0830
     71 H          -9.0360   18.0540   69.2250 H       1  UNL1        0.0840
     72 C         -11.4070   14.9580   70.2520 C.3     1  UNL1       -0.0390
     73 H         -10.3600   14.9730   70.5550 H       1  UNL1        0.0360
     74 H         -11.8670   15.8550   69.8380 H       1  UNL1        0.0360
     75 C         -12.2650   14.5380   71.5390 C.3     1  UNL1       -0.0010
     76 C         -13.7840   14.1050   71.0820 C.3     1  UNL1       -0.0350
     77 C         -14.6780   14.7910   71.8340 C.3     1  UNL1        0.0850
     78 H         -13.9830   14.4530   70.0690 H       1  UNL1        0.0360
     79 H         -13.9720   13.0650   71.3490 H       1  UNL1        0.0360
     80 N         -13.9150   15.8910   72.5320 N.4     1  UNL1       -0.0490
     81 H         -15.3740   15.2380   71.1230 H       1  UNL1        0.0750
     82 H         -15.0380   14.0810   72.5770 H       1  UNL1        0.0750
     83 C         -12.3530   15.5140   72.3800 C.3     1  UNL1        0.1930
     84 H         -14.0940   16.7380   72.0120 H       1  UNL1        0.2800
     85 H         -14.1650   15.8360   73.5100 H       1  UNL1        0.2800
     86 H         -11.7990   15.0990   73.2230 H       1  UNL1        0.1290
     87 H         -11.7250   13.8470   72.1870 H       1  UNL1        0.0460
     88 O         -11.6080   16.6580   71.9590 O.3     1  UNL1       -0.3690
     89 H         -10.7180   16.3900   71.7200 H       1  UNL1        0.2120
     90 C         -11.1750    9.8900   71.1060 C.3     1  UNL1       -0.0350
     91 H         -10.1750    9.7120   71.5040 H       1  UNL1        0.0370
     92 H         -11.7180   10.7940   71.3820 H       1  UNL1        0.0370
     93 C         -12.0540    8.6860   71.5720 C.3     1  UNL1       -0.0590
     94 H         -12.3240    8.1110   70.6860 H       1  UNL1        0.0380
     95 C         -11.2840    7.7340   72.5430 C.3     1  UNL1       -0.0730
     96 H         -11.2840    6.7230   72.1350 H       1  UNL1        0.0280
     97 H         -10.2570    8.0820   72.6530 H       1  UNL1        0.0280
     98 H         -11.7750    7.7350   73.5160 H       1  UNL1        0.0280
     99 C         -13.3570    9.1760   72.2090 C.3     1  UNL1       -0.0730
    100 H         -13.1300    9.9080   72.9850 H       1  UNL1        0.0280
    101 H         -13.9840    9.6380   71.4450 H       1  UNL1        0.0280
    102 H         -13.8860    8.3310   72.6500 H       1  UNL1        0.0280
@<TRIPOS>BOND
     1    24    23   ar
     2    24    19   ar
     3    23    21   ar
     4    17    16    2
     5    19    16    1
     6    19    20   ar
     7    14    13    1
     8    16    15   am
     9    28    25    1
    10    21    25    1
    11    21    20   ar
    12    31    29    1
    13    15    13    1
    14    15    18    1
    15    30    29    1
    16    25    26    1
    17    25    27    1
    18    20    22    1
    19    13    29    1
    20    13    10    1
    21    29    32    1
    22    64    62    1
    23    56    55    2
    24    57    55    1
    25    57    58    1
    26    11    10    2
    27    66    63    1
    28    55    52    1
    29    10     9   am
    30    59    58    1
    31    62    63   ar
    32    62    61   ar
    33    63    65   ar
    34    58    61    1
    35    58    60    1
    36    51    49    1
    37    61    69   ar
    38    53    52    1
    39     9    12    1
    40     9     7    1
    41    52    49    1
    42    52    54    1
    43    49    50    1
    44    49    47    1
    45    65    68    1
    46    65    67   ar
    47    44    43    2
    48     8     7    1
    49    69    67   ar
    50    69    71    1
    51     7     4    1
    52     7    33    1
    53    48    47    1
    54    67    70    1
    55    41    39    1
    56     4     5    2
    57     4     3   am
    58    43     1    1
    59    43    45   am
    60     2     1    1
    61    47    45    1
    62    47    72    1
    63    42    39    1
    64     6     3    1
    65     3     1    1
    66     1    90    1
    67    45    46    1
    68    39    33    1
    69    39    40    1
    70    74    72    1
    71    33    34    1
    72    33    35    1
    73    78    76    1
    74    72    73    1
    75    72    75    1
    76    94    93    1
    77    38    35    1
    78    76    79    1
    79    76    75    1
    80    76    77    1
    81    90    92    1
    82    90    91    1
    83    90    93    1
    84    81    77    1
    85    35    36    1
    86    35    37    1
    87   101    99    1
    88    75    87    1
    89    75    83    1
    90    93    99    1
    91    93    95    1
    92    89    88    1
    93    77    80    1
    94    77    82    1
    95    88    83    1
    96    84    80    1
    97    96    95    1
    98    99   102    1
    99    99   100    1
   100    83    80    1
   101    83    86    1
   102    80    85    1
   103    95    97    1
   104    95    98    1
@<TRIPOS>MOLECULE
crystal_redock_e32_er3_1.pdbqt
 102 104 0 0 0
SMALL
GASTEIGER

@<TRIPOS>ATOM
      1 C          -8.1330   12.6170   67.6770 C.3     1  UNL1        0.0890
      2 H          -8.2040   13.3270   66.8520 H       1  UNL1        0.0870
      3 N          -9.3670   12.7080   68.4420 N.am    1  UNL1       -0.3460
      4 C         -10.4970   13.5850   67.9630 C.2     1  UNL1        0.2410
      5 O         -10.3880   14.2100   66.9600 O.2     1  UNL1       -0.2710
      6 H          -9.4400   12.1700   69.2940 H       1  UNL1        0.1630
      7 C         -11.7700   13.6630   68.7640 C.3     1  UNL1        0.0920
      8 H         -12.6210   13.5140   68.1000 H       1  UNL1        0.0880
      9 N         -11.7940   12.5790   69.7510 N.am    1  UNL1       -0.3460
     10 C         -11.9700   11.2150   69.3180 C.2     1  UNL1        0.2400
     11 O         -12.0950   10.9710   68.1800 O.2     1  UNL1       -0.2710
     12 H         -11.6890   12.7740   70.7370 H       1  UNL1        0.1630
     13 C         -11.9980   10.0660   70.3740 C.3     1  UNL1        0.0860
     14 H         -12.2220    9.0940   69.9330 H       1  UNL1        0.0860
     15 N         -10.6830    9.9530   70.9830 N.am    1  UNL1       -0.3430
     16 C         -10.2360    8.6580   71.5000 C.2     1  UNL1        0.2730
     17 O         -10.9430    7.7140   71.4240 O.2     1  UNL1       -0.2660
     18 H         -10.0870   10.7660   71.0460 H       1  UNL1        0.1630
     19 C          -8.8480    8.5240   72.1450 C.ar    1  UNL1        0.1540
     20 C          -8.5220    7.8450   73.3620 C.ar    1  UNL1       -0.0170
     21 C          -7.1270    8.0140   73.5100 C.ar    1  UNL1        0.0770
     22 H          -9.1940    7.3110   74.0340 H       1  UNL1        0.0910
     23 O          -6.7110    8.7100   72.4920 O.2     1  UNL1       -0.2180
     24 N          -7.6970    9.0200   71.6820 N.ar    1  UNL1       -0.1230
     25 C          -6.2700    7.4800   74.6500 C.3     1  UNL1       -0.0290
     26 H          -6.5170    8.0110   75.5700 H       1  UNL1        0.0360
     27 H          -6.4630    6.4160   74.7820 H       1  UNL1        0.0360
     28 H          -5.2160    7.6320   74.4150 H       1  UNL1        0.0360
     29 C         -13.0310   10.3730   71.4280 C.3     1  UNL1       -0.0490
     30 H         -12.6810   11.1950   72.0520 H       1  UNL1        0.0300
     31 H         -13.9680   10.6550   70.9470 H       1  UNL1        0.0300
     32 H         -13.1910    9.4900   72.0470 H       1  UNL1        0.0300
     33 C         -11.8360   15.0330   69.5010 C.3     1  UNL1       -0.0330
     34 H         -12.2330   15.7660   68.7980 H       1  UNL1        0.0420
     35 C         -12.8090   14.9770   70.7200 C.3     1  UNL1       -0.0710
     36 H         -13.1490   15.9850   70.9600 H       1  UNL1        0.0280
     37 H         -13.6670   14.3540   70.4710 H       1  UNL1        0.0280
     38 H         -12.2900   14.5550   71.5800 H       1  UNL1        0.0280
     39 C         -10.4100   15.5040   69.9350 C.3     1  UNL1       -0.0710
     40 H         -10.3810   15.6210   71.0180 H       1  UNL1        0.0280
     41 H          -9.6730   14.7600   69.6300 H       1  UNL1        0.0280
     42 H         -10.1830   16.4580   69.4600 H       1  UNL1        0.0280
     43 C          -7.9660   11.1530   67.1780 C.2     1  UNL1        0.2400
     44 O          -6.9970   10.5330   67.4780 O.2     1  UNL1       -0.2710
     45 N          -9.0190   10.5200   66.3340 N.am    1  UNL1       -0.3550
     46 H          -9.8480   11.0350   66.0760 H       1  UNL1        0.1620
     47 C          -8.8460    9.1270   65.8690 C.3     1  UNL1        0.0130
     48 H          -7.9400    8.7300   66.3270 H       1  UNL1        0.0720
     49 C          -8.7120    9.1160   64.3630 C.3     1  UNL1       -0.0380
     50 H          -8.5900    8.0680   64.0860 H       1  UNL1        0.0360
     51 H          -9.5630    9.6840   63.9870 H       1  UNL1        0.0360
     52 C          -7.4450    9.8480   63.8690 C.3     1  UNL1        0.0180
     53 H          -7.6150   10.0510   62.8110 H       1  UNL1        0.0480
     54 H          -7.2920   10.6740   64.5640 H       1  UNL1        0.0480
     55 C          -6.1550    8.9850   63.9380 C.2     1  UNL1        0.2590
     56 O          -5.3960    9.1070   64.8440 O.2     1  UNL1       -0.2650
     57 O          -5.8830    8.0550   62.8970 O.3     1  UNL1       -0.3170
     58 C          -5.5350    6.7470   63.3620 C.3     1  UNL1        0.0520
     59 H          -5.1280    6.2250   62.4960 H       1  UNL1        0.0820
     60 H          -4.9160    6.9020   64.2450 H       1  UNL1        0.0820
     61 C          -6.8410    6.0310   63.7980 C.ar    1  UNL1       -0.0340
     62 C          -7.0540    5.7240   65.1380 C.ar    1  UNL1       -0.0750
     63 C          -8.2260    5.0810   65.5300 C.ar    1  UNL1       -0.0820
     64 H          -6.3010    5.9880   65.8810 H       1  UNL1        0.0840
     65 C          -9.1890    4.7420   64.5750 C.ar    1  UNL1       -0.0830
     66 H          -8.3910    4.8440   66.5810 H       1  UNL1        0.0830
     67 C          -8.9710    5.0470   63.2380 C.ar    1  UNL1       -0.0820
     68 H         -10.1090    4.2390   64.8720 H       1  UNL1        0.0830
     69 C          -7.8010    5.6920   62.8420 C.ar    1  UNL1       -0.0750
     70 H          -9.7230    4.7790   62.4950 H       1  UNL1        0.0830
     71 H          -7.6380    5.9290   61.7910 H       1  UNL1        0.0840
     72 C         -10.0570    8.2920   66.2790 C.3     1  UNL1       -0.0390
     73 H         -10.9250    8.9200   66.0770 H       1  UNL1        0.0360
     74 H          -9.9420    7.3400   65.7610 H       1  UNL1        0.0360
     75 C         -10.0560    7.9780   67.8500 C.3     1  UNL1       -0.0010
     76 C          -8.5430    7.5540   68.3350 C.3     1  UNL1       -0.0350
     77 C          -8.6160    6.3890   69.0230 C.3     1  UNL1        0.0850
     78 H          -7.9310    7.3020   67.4710 H       1  UNL1        0.0360
     79 H          -8.1750    8.2640   69.0760 H       1  UNL1        0.0360
     80 N          -9.9880    5.8130   68.7710 N.4     1  UNL1       -0.0490
     81 H          -7.8680    5.7370   68.5710 H       1  UNL1        0.0750
     82 H          -8.5350    6.6660   70.0740 H       1  UNL1        0.0750
     83 C         -10.8630    7.0110   68.1340 C.3     1  UNL1        0.1930
     84 H          -9.8730    5.0930   68.0720 H       1  UNL1        0.2800
     85 H         -10.3720    5.5810   69.6760 H       1  UNL1        0.2800
     86 H         -11.6010    7.5390   68.7380 H       1  UNL1        0.1290
     87 H         -10.5630    8.7520   68.4260 H       1  UNL1        0.0460
     88 O         -11.5730    6.5460   66.9850 O.3     1  UNL1       -0.3690
     89 H         -11.3780    5.6170   66.8430 H       1  UNL1        0.2120
     90 C          -6.9640   12.9870   68.5760 C.3     1  UNL1       -0.0350
     91 H          -7.0870   12.3810   69.4740 H       1  UNL1        0.0370
     92 H          -6.0750   12.8690   67.9560 H       1  UNL1        0.0370
     93 C          -6.9800   14.4780   69.0430 C.3     1  UNL1       -0.0590
     94 H          -7.9610   14.6780   69.4750 H       1  UNL1        0.0380
     95 C          -5.9080   14.7620   70.1440 C.3     1  UNL1       -0.0730
     96 H          -5.4110   15.7080   69.9300 H       1  UNL1        0.0280
     97 H          -6.3940   14.8180   71.1180 H       1  UNL1        0.0280
     98 H          -5.1730   13.9580   70.1500 H       1  UNL1        0.0280
     99 C          -6.8050   15.4250   67.8540 C.3     1  UNL1       -0.0730
    100 H          -5.8470   15.2300   67.3710 H       1  UNL1        0.0280
    101 H          -7.6120   15.2640   67.1390 H       1  UNL1        0.0280
    102 H          -6.8320   16.4570   68.2040 H       1  UNL1        0.0280
@<TRIPOS>BOND
     1    71    69    1
     2    70    67    1
     3    59    58    1
     4    53    52    1
     5    69    67   ar
     6    69    61   ar
     7    57    58    1
     8    57    55    1
     9    67    65   ar
    10    58    61    1
    11    58    60    1
    12    61    62   ar
    13    52    55    1
    14    52    49    1
    15    52    54    1
    16    55    56    2
    17    51    49    1
    18    50    49    1
    19    49    47    1
    20    65    68    1
    21    65    63   ar
    22    62    63   ar
    23    62    64    1
    24    63    66    1
    25    74    72    1
    26    47    72    1
    27    47    48    1
    28    47    45    1
    29    46    45    1
    30    73    72    1
    31    72    75    1
    32    45    43   am
    33    89    88    1
    34     2     1    1
    35     5     4    2
    36    88    83    1
    37   101    99    1
    38    43    44    2
    39    43     1    1
    40   100    99    1
    41    78    76    1
    42     1     3    1
    43     1    90    1
    44    75    83    1
    45    75    76    1
    46    75    87    1
    47    99   102    1
    48    99    93    1
    49    92    90    1
    50     4     3   am
    51     4     7    1
    52    84    80    1
    53     8     7    1
    54    83    86    1
    55    83    80    1
    56    11    10    2
    57    76    77    1
    58    76    79    1
    59     3     6    1
    60    81    77    1
    61    90    93    1
    62    90    91    1
    63     7    33    1
    64     7     9    1
    65    80    77    1
    66    80    85    1
    67    34    33    1
    68    77    82    1
    69    93    94    1
    70    93    95    1
    71    10     9   am
    72    10    13    1
    73    42    39    1
    74    33    39    1
    75    33    35    1
    76    41    39    1
    77     9    12    1
    78    96    95    1
    79    14    13    1
    80    39    40    1
    81    95    98    1
    82    95    97    1
    83    13    15    1
    84    13    29    1
    85    37    35    1
    86    35    36    1
    87    35    38    1
    88    31    29    1
    89    15    18    1
    90    15    16   am
    91    17    16    2
    92    29    32    1
    93    29    30    1
    94    16    19    1
    95    24    19   ar
    96    24    23   ar
    97    19    20   ar
    98    23    21   ar
    99    20    21   ar
   100    20    22    1
   101    21    25    1
   102    28    25    1
   103    25    27    1
   104    25    26    1
@<TRIPOS>MOLECULE
crystal_redock_e32_er3_1.pdbqt
 102 104 0 0 0
SMALL
GASTEIGER

@<TRIPOS>ATOM
      1 C          -8.3290    8.2200   62.7580 C.3     1  UNL1        0.0890
      2 H          -8.9700    8.2350   61.8770 H       1  UNL1        0.0870
      3 N          -8.9800    9.0160   63.7880 N.am    1  UNL1       -0.3460
      4 C          -9.4880   10.4000   63.4730 C.2     1  UNL1        0.2410
      5 O          -9.3580   10.8540   62.3840 O.2     1  UNL1       -0.2710
      6 H          -9.0790    8.6120   64.7090 H       1  UNL1        0.1630
      7 C         -10.1650   11.2070   64.5500 C.3     1  UNL1        0.0920
      8 H         -10.9500   10.6060   65.0090 H       1  UNL1        0.0880
      9 N          -9.1960   11.5310   65.6010 N.am    1  UNL1       -0.3460
     10 C          -9.0560   10.6630   66.7440 C.2     1  UNL1        0.2400
     11 O          -9.7160    9.7010   66.8350 O.2     1  UNL1       -0.2710
     12 H          -8.6210   12.3590   65.5370 H       1  UNL1        0.1630
     13 C          -8.0250   11.0150   67.8610 C.3     1  UNL1        0.0860
     14 H          -8.5000   11.2890   68.8020 H       1  UNL1        0.0860
     15 N          -7.2070    9.8450   68.1330 N.am    1  UNL1       -0.3430
     16 C          -7.4850    9.0290   69.3170 C.2     1  UNL1        0.2730
     17 O          -8.3680    9.3250   70.0460 O.2     1  UNL1       -0.2660
     18 H          -6.4530    9.6010   67.5060 H       1  UNL1        0.1630
     19 C          -6.6300    7.7880   69.6160 C.ar    1  UNL1        0.1540
     20 C          -7.0890    6.5080   70.0620 C.ar    1  UNL1       -0.0170
     21 C          -5.9190    5.7260   70.1850 C.ar    1  UNL1        0.0770
     22 H          -8.1130    6.1960   70.2650 H       1  UNL1        0.0910
     23 O          -4.9130    6.4770   69.8460 O.2     1  UNL1       -0.2180
     24 N          -5.3020    7.6850   69.5100 N.ar    1  UNL1       -0.1230
     25 C          -5.8510    4.2710   70.6320 C.3     1  UNL1       -0.0290
     26 H          -6.2720    3.6320   69.8550 H       1  UNL1        0.0360
     27 H          -4.8110    3.9940   70.8070 H       1  UNL1        0.0360
     28 H          -6.4200    4.1460   71.5530 H       1  UNL1        0.0360
     29 C          -7.1550   12.1580   67.4030 C.3     1  UNL1       -0.0490
     30 H          -7.2890   12.3110   66.3330 H       1  UNL1        0.0300
     31 H          -7.4360   13.0650   67.9390 H       1  UNL1        0.0300
     32 H          -6.1100   11.9240   67.6080 H       1  UNL1        0.0300
     33 C         -10.7220   12.5260   63.9370 C.3     1  UNL1       -0.0330
     34 H         -10.1810   12.7100   63.0080 H       1  UNL1        0.0420
     35 C         -12.2350   12.3920   63.5790 C.3     1  UNL1       -0.0710
     36 H         -12.3450   12.2840   62.5000 H       1  UNL1        0.0280
     37 H         -12.6490   11.5150   64.0760 H       1  UNL1        0.0280
     38 H         -12.7660   13.2830   63.9120 H       1  UNL1        0.0280
     39 C         -10.4700   13.7370   64.8910 C.3     1  UNL1       -0.0710
     40 H          -9.4740   14.1410   64.7100 H       1  UNL1        0.0280
     41 H         -11.2160   14.5090   64.7040 H       1  UNL1        0.0280
     42 H         -10.5440   13.4040   65.9270 H       1  UNL1        0.0280
     43 C          -8.1160    6.7800   63.3060 C.2     1  UNL1        0.2400
     44 O          -7.5530    5.9720   62.6400 O.2     1  UNL1       -0.2710
     45 N          -8.6060    6.4100   64.6640 N.am    1  UNL1       -0.3550
     46 H          -9.0810    7.0890   65.2400 H       1  UNL1        0.1620
     47 C          -8.3950    5.0370   65.1710 C.3     1  UNL1        0.0130
     48 H          -7.9800    4.4400   64.3590 H       1  UNL1        0.0720
     49 C          -9.7190    4.4580   65.6130 C.3     1  UNL1       -0.0380
     50 H         -10.4830    5.0490   65.1080 H       1  UNL1        0.0360
     51 H          -9.6480    3.3860   65.4280 H       1  UNL1        0.0360
     52 C          -9.9700    4.6240   67.1280 C.3     1  UNL1        0.0180
     53 H         -10.5780    3.7680   67.4220 H       1  UNL1        0.0480
     54 H          -8.9870    4.7740   67.5750 H       1  UNL1        0.0480
     55 C         -10.8020    5.8850   67.4900 C.2     1  UNL1        0.2590
     56 O         -11.1710    6.6290   66.6400 O.2     1  UNL1       -0.2650
     57 O         -11.1100    6.1480   68.8540 O.3     1  UNL1       -0.3170
     58 C         -10.5240    5.2210   69.7720 C.3     1  UNL1        0.0520
     59 H         -11.2000    4.3670   69.8000 H       1  UNL1        0.0820
     60 H          -9.4940    5.0900   69.4430 H       1  UNL1        0.0820
     61 C         -10.5100    5.8820   71.1760 C.ar    1  UNL1       -0.0340
     62 C         -10.9190    7.2030   71.3290 C.ar    1  UNL1       -0.0750
     63 C         -10.9060    7.7980   72.5900 C.ar    1  UNL1       -0.0820
     64 H         -11.2500    7.7730   70.4600 H       1  UNL1        0.0840
     65 C         -10.4800    7.0660   73.7010 C.ar    1  UNL1       -0.0830
     66 H         -11.2300    8.8320   72.7060 H       1  UNL1        0.0830
     67 C         -10.0700    5.7490   73.5440 C.ar    1  UNL1       -0.0820
     68 H         -10.4680    7.5220   74.6910 H       1  UNL1        0.0830
     69 C         -10.0830    5.1510   72.2860 C.ar    1  UNL1       -0.0750
     70 H          -9.7360    5.1810   74.4130 H       1  UNL1        0.0830
     71 H          -9.7600    4.1150   72.1710 H       1  UNL1        0.0840
     72 C          -7.4300    5.0660   66.3540 C.3     1  UNL1       -0.0390
     73 H          -7.5680    6.0440   66.8170 H       1  UNL1        0.0360
     74 H          -7.6410    4.1600   66.9230 H       1  UNL1        0.0360
     75 C          -5.9030    4.9800   65.8770 C.3     1  UNL1       -0.0010
     76 C          -5.1190    3.8040   66.7170 C.3     1  UNL1       -0.0350
     77 C          -3.9810    4.3230   67.2360 C.3     1  UNL1        0.0850
     78 H          -5.6970    3.5250   67.5980 H       1  UNL1        0.0360
     79 H          -4.7590    3.0330   66.0350 H       1  UNL1        0.0360
     80 N          -4.0800    5.8240   67.1030 N.4     1  UNL1       -0.0490
     81 H          -3.9950    4.0590   68.2940 H       1  UNL1        0.0750
     82 H          -3.1770    3.9630   66.5950 H       1  UNL1        0.0750
     83 C          -5.2890    6.0990   66.0700 C.3     1  UNL1        0.1930
     84 H          -4.3470    6.1750   68.0120 H       1  UNL1        0.2800
     85 H          -3.2170    6.1310   66.6770 H       1  UNL1        0.2800
     86 H          -5.0820    6.3920   65.0410 H       1  UNL1        0.1290
     87 H          -5.8110    4.9590   64.7910 H       1  UNL1        0.0460
     88 O          -6.1580    7.1090   66.5870 O.3     1  UNL1       -0.3690
     89 H          -5.6380    7.7860   67.0250 H       1  UNL1        0.2120
     90 C          -6.9830    8.8450   62.4260 C.3     1  UNL1       -0.0350
     91 H          -6.5520    8.2090   61.6520 H       1  UNL1        0.0370
     92 H          -7.1960    9.8930   62.2130 H       1  UNL1        0.0370
     93 C          -5.9750    8.8320   63.6180 C.3     1  UNL1       -0.0590
     94 H          -6.4020    8.2120   64.4060 H       1  UNL1        0.0380
     95 C          -4.5970    8.2130   63.2190 C.3     1  UNL1       -0.0730
     96 H          -4.2140    7.6160   64.0470 H       1  UNL1        0.0280
     97 H          -4.7250    7.5790   62.3420 H       1  UNL1        0.0280
     98 H          -3.8920    9.0130   62.9900 H       1  UNL1        0.0280
     99 C          -5.7930   10.2390   64.1950 C.3     1  UNL1       -0.0730
    100 H          -5.5070   10.1670   65.2450 H       1  UNL1        0.0280
    101 H          -5.0120   10.7600   63.6410 H       1  UNL1        0.0280
    102 H          -6.7290   10.7900   64.1100 H       1  UNL1        0.0280
@<TRIPOS>BOND
     1    91    90    1
     2     2     1    1
     3    92    90    1
     4    97    95    1
     5     5     4    2
     6    90     1    1
     7    90    93    1
     8    36    35    1
     9    44    43    2
    10     1    43    1
    11     1     3    1
    12    98    95    1
    13    34    33    1
    14    95    93    1
    15    95    96    1
    16    43    45   am
    17     4     3   am
    18     4     7    1
    19    35    38    1
    20    35    33    1
    21    35    37    1
    22    93    99    1
    23    93    94    1
    24   101    99    1
    25     3     6    1
    26    33     7    1
    27    33    39    1
    28   102    99    1
    29    99   100    1
    30    48    47    1
    31     7     8    1
    32     7     9    1
    33    45    47    1
    34    45    46    1
    35    41    39    1
    36    40    39    1
    37    87    75    1
    38    39    42    1
    39    86    83    1
    40    50    49    1
    41    47    49    1
    42    47    72    1
    43    51    49    1
    44    12     9    1
    45     9    10   am
    46    49    52    1
    47    75    83    1
    48    75    72    1
    49    75    76    1
    50    79    76    1
    51    83    88    1
    52    83    80    1
    53    30    29    1
    54    72    73    1
    55    72    74    1
    56    88    89    1
    57    82    77    1
    58    56    55    2
    59    85    80    1
    60    76    77    1
    61    76    78    1
    62    10    11    2
    63    10    13    1
    64    80    77    1
    65    80    84    1
    66    52    53    1
    67    52    55    1
    68    52    54    1
    69    77    81    1
    70    29    32    1
    71    29    13    1
    72    29    31    1
    73    55    57    1
    74    18    15    1
    75    13    15    1
    76    13    14    1
    77    15    16   am
    78    57    58    1
    79    16    19    1
    80    16    17    2
    81    60    58    1
    82    24    19   ar
    83    24    23   ar
    84    19    20   ar
    85    58    59    1
    86    58    61    1
    87    23    21   ar
    88    26    25    1
    89    20    21   ar
    90    20    22    1
    91    21    25    1
    92    64    62    1
    93    25    27    1
    94    25    28    1
    95    61    62   ar
    96    61    69   ar
    97    62    63   ar
    98    71    69    1
    99    69    67   ar
   100    63    66    1
   101    63    65   ar
   102    67    65   ar
   103    67    70    1
   104    65    68    1
@<TRIPOS>MOLECULE
crystal_redock_e32_er3_1.pdbqt
 102 104 0 0 0
SMALL
GASTEIGER

@<TRIPOS>ATOM
      1 C         -10.5030    7.6640   68.1320 C.3     1  UNL1        0.0890
      2 H         -11.4300    7.1480   67.8810 H       1  UNL1        0.0870
      3 N          -9.4000    6.8100   67.7160 N.am    1  UNL1       -0.3460
      4 C          -9.6610    5.5750   66.8920 C.2     1  UNL1        0.2410
      5 O         -10.7690    5.2880   66.5760 O.2     1  UNL1       -0.2710
      6 H          -8.4650    7.0710   67.9970 H       1  UNL1        0.1630
      7 C          -8.5070    4.7060   66.4660 C.3     1  UNL1        0.0920
      8 H          -8.8660    3.9520   65.7660 H       1  UNL1        0.0880
      9 N          -7.5170    5.5210   65.7560 N.am    1  UNL1       -0.3460
     10 C          -7.6900    5.8030   64.3520 C.2     1  UNL1        0.2400
     11 O          -8.6190    5.3820   63.7780 O.2     1  UNL1       -0.2710
     12 H          -6.7100    5.8900   66.2370 H       1  UNL1        0.1630
     13 C          -6.6310    6.6690   63.6010 C.3     1  UNL1        0.0860
     14 H          -7.0470    7.1910   62.7390 H       1  UNL1        0.0860
     15 N          -6.1310    7.6910   64.5050 N.am    1  UNL1       -0.3430
     16 C          -6.7160    9.0330   64.4700 C.2     1  UNL1        0.2730
     17 O          -7.5870    9.2810   63.7100 O.2     1  UNL1       -0.2660
     18 H          -5.3850    7.4720   65.1500 H       1  UNL1        0.1630
     19 C          -6.1990   10.1240   65.4210 C.ar    1  UNL1        0.1540
     20 C          -6.6450   10.3920   66.7540 C.ar    1  UNL1       -0.0170
     21 C          -5.8580   11.4820   67.1890 C.ar    1  UNL1        0.0770
     22 H          -7.4210    9.8750   67.3190 H       1  UNL1        0.0910
     23 O          -5.0560   11.7940   66.2130 O.2     1  UNL1       -0.2180
     24 N          -5.2360   11.0160   65.1710 N.ar    1  UNL1       -0.1230
     25 C          -5.9340   12.1630   68.5490 C.3     1  UNL1       -0.0290
     26 H          -6.2330   11.4360   69.3040 H       1  UNL1        0.0360
     27 H          -4.9570   12.5720   68.8050 H       1  UNL1        0.0360
     28 H          -6.6670   12.9700   68.5110 H       1  UNL1        0.0360
     29 C          -5.4970    5.7900   63.1380 C.3     1  UNL1       -0.0490
     30 H          -4.6080    5.9980   63.7340 H       1  UNL1        0.0300
     31 H          -5.7770    4.7430   63.2550 H       1  UNL1        0.0300
     32 H          -5.2840    5.9940   62.0890 H       1  UNL1        0.0300
     33 C          -7.8460    4.0700   67.7240 C.3     1  UNL1       -0.0330
     34 H          -7.4520    4.8820   68.3340 H       1  UNL1        0.0420
     35 C          -8.8920    3.2990   68.5880 C.3     1  UNL1       -0.0710
     36 H          -9.7710    3.9270   68.7390 H       1  UNL1        0.0280
     37 H          -9.1850    2.3840   68.0730 H       1  UNL1        0.0280
     38 H          -8.4530    3.0500   69.5530 H       1  UNL1        0.0280
     39 C          -6.6530    3.1450   67.3210 C.3     1  UNL1       -0.0710
     40 H          -6.9510    2.5090   66.4870 H       1  UNL1        0.0280
     41 H          -5.8020    3.7580   67.0230 H       1  UNL1        0.0280
     42 H          -6.3730    2.5230   68.1710 H       1  UNL1        0.0280
     43 C         -10.3750    9.0300   67.3980 C.2     1  UNL1        0.2400
     44 O         -10.2350    9.0570   66.2180 O.2     1  UNL1       -0.2710
     45 N         -10.4350   10.3060   68.1660 N.am    1  UNL1       -0.3550
     46 H         -10.5590   10.2970   69.1680 H       1  UNL1        0.1620
     47 C         -10.3140   11.5970   67.4540 C.3     1  UNL1        0.0130
     48 H          -9.8070   11.4110   66.5070 H       1  UNL1        0.0720
     49 C          -9.5030   12.5570   68.2940 C.3     1  UNL1       -0.0380
     50 H         -10.1680   12.8840   69.0930 H       1  UNL1        0.0360
     51 H          -8.5790   12.0290   68.5350 H       1  UNL1        0.0360
     52 C          -9.0900   13.8290   67.5220 C.3     1  UNL1        0.0180
     53 H          -8.0700   14.0490   67.8380 H       1  UNL1        0.0480
     54 H          -9.3020   13.6190   66.4730 H       1  UNL1        0.0480
     55 C          -9.9320   15.0830   67.8860 C.2     1  UNL1        0.2590
     56 O         -10.3050   15.8260   67.0370 O.2     1  UNL1       -0.2650
     57 O         -10.2420   15.3420   69.2490 O.3     1  UNL1       -0.3170
     58 C         -11.5420   15.9030   69.4550 C.3     1  UNL1        0.0520
     59 H         -11.3750   16.8640   69.9410 H       1  UNL1        0.0820
     60 H         -12.0370   15.8620   68.4850 H       1  UNL1        0.0820
     61 C         -12.3110   14.9820   70.4380 C.ar    1  UNL1       -0.0340
     62 C         -12.0590   13.6130   70.4530 C.ar    1  UNL1       -0.0750
     63 C         -12.7500   12.7850   71.3360 C.ar    1  UNL1       -0.0820
     64 H         -11.3190   13.1900   69.7730 H       1  UNL1        0.0840
     65 C         -13.6990   13.3300   72.2060 C.ar    1  UNL1       -0.0830
     66 H         -12.5480   11.7140   71.3470 H       1  UNL1        0.0830
     67 C         -13.9490   14.6950   72.1850 C.ar    1  UNL1       -0.0820
     68 H         -14.2430   12.6900   72.9000 H       1  UNL1        0.0830
     69 C         -13.2590   15.5270   71.3060 C.ar    1  UNL1       -0.0750
     70 H         -14.6920   15.1170   72.8630 H       1  UNL1        0.0830
     71 H         -13.4610   16.5980   71.2960 H       1  UNL1        0.0840
     72 C         -11.7020   12.1830   67.2060 C.3     1  UNL1       -0.0390
     73 H         -12.4030   11.4400   67.5860 H       1  UNL1        0.0360
     74 H         -11.6770   13.1820   67.6430 H       1  UNL1        0.0360
     75 C         -12.0010   12.3580   65.6420 C.3     1  UNL1       -0.0010
     76 C         -10.6060   12.2040   64.7850 C.3     1  UNL1       -0.0350
     77 C         -10.4830   13.2690   63.9560 C.3     1  UNL1        0.0850
     78 H          -9.7470   12.2970   65.4490 H       1  UNL1        0.0360
     79 H         -10.6790   11.3570   64.1020 H       1  UNL1        0.0360
     80 N         -11.4950   14.2950   64.4040 N.4     1  UNL1       -0.0490
     81 H          -9.4800   13.6590   64.1310 H       1  UNL1        0.0750
     82 H         -10.7610   12.9020   62.9690 H       1  UNL1        0.0750
     83 C         -12.5090   13.5180   65.3910 C.3     1  UNL1        0.1930
     84 H         -10.9870   14.9830   64.9410 H       1  UNL1        0.2800
     85 H         -12.0040   14.5750   63.5770 H       1  UNL1        0.2800
     86 H         -13.5030   13.2290   65.0480 H       1  UNL1        0.1290
     87 H         -12.8530   11.7620   65.3150 H       1  UNL1        0.0460
     88 O         -12.7230   14.2830   66.5790 O.3     1  UNL1       -0.3690
     89 H         -11.8850   14.4190   67.0260 H       1  UNL1        0.2120
     90 C         -10.4230    7.8820   69.6340 C.3     1  UNL1       -0.0350
     91 H         -10.5990    8.9480   69.7810 H       1  UNL1        0.0370
     92 H         -11.1070    7.1520   70.0680 H       1  UNL1        0.0370
     93 C          -9.0150    7.5800   70.2380 C.3     1  UNL1       -0.0590
     94 H          -8.3990    7.1550   69.4450 H       1  UNL1        0.0380
     95 C          -8.3040    8.8730   70.7520 C.3     1  UNL1       -0.0730
     96 H          -7.6870    9.2890   69.9550 H       1  UNL1        0.0280
     97 H          -9.0550    9.6050   71.0500 H       1  UNL1        0.0280
     98 H          -7.6760    8.6260   71.6080 H       1  UNL1        0.0280
     99 C          -9.1100    6.5320   71.3500 C.3     1  UNL1       -0.0730
    100 H         -10.0100    5.9330   71.2090 H       1  UNL1        0.0280
    101 H          -8.2330    5.8840   71.3140 H       1  UNL1        0.0280
    102 H          -9.1520    7.0320   72.3170 H       1  UNL1        0.0280
@<TRIPOS>BOND
     1    32    29    1
     2    14    13    1
     3    82    77    1
     4    29    31    1
     5    29    13    1
     6    29    30    1
     7    85    80    1
     8    13    10    1
     9    13    15    1
    10    17    16    2
    11    11    10    2
    12    77    81    1
    13    77    80    1
    14    77    76    1
    15    79    76    1
    16    10     9   am
    17    80    84    1
    18    80    83    1
    19    16    15   am
    20    16    19    1
    21    15    18    1
    22    76    78    1
    23    76    75    1
    24    86    83    1
    25    24    19   ar
    26    24    23   ar
    27    87    75    1
    28    83    75    1
    29    83    88    1
    30    19    20   ar
    31    75    72    1
    32     9    12    1
    33     9     7    1
    34     8     7    1
    35    23    21   ar
    36    44    43    2
    37     7     4    1
    38     7    33    1
    39    54    52    1
    40    40    39    1
    41    48    47    1
    42     5     4    2
    43    88    89    1
    44    20    21   ar
    45    20    22    1
    46     4     3   am
    47    41    39    1
    48    56    55    2
    49    21    25    1
    50    72    47    1
    51    72    73    1
    52    72    74    1
    53    39    33    1
    54    39    42    1
    55    43     1    1
    56    43    45   am
    57    47    45    1
    58    47    49    1
    59    52    53    1
    60    52    55    1
    61    52    49    1
    62     3     6    1
    63     3     1    1
    64    33    34    1
    65    33    35    1
    66     2     1    1
    67    55    57    1
    68    37    35    1
    69     1    90    1
    70    45    46    1
    71    49    51    1
    72    49    50    1
    73    60    58    1
    74    28    25    1
    75    25    27    1
    76    25    26    1
    77    35    36    1
    78    35    38    1
    79    57    58    1
    80    94    93    1
    81    58    59    1
    82    58    61    1
    83    90    91    1
    84    90    92    1
    85    90    93    1
    86    64    62    1
    87    96    95    1
    88    93    95    1
    89    93    99    1
    90    61    62   ar
    91    61    69   ar
    92    62    63   ar
    93    95    97    1
    94    95    98    1
    95   100    99    1
    96    71    69    1
    97    69    67   ar
    98   101    99    1
    99    63    66    1
   100    63    65   ar
   101    99   102    1
   102    67    65   ar
   103    67    70    1
   104    65    68    1
