@<TRIPOS>MOLECULE
crystal_redock_e24_er3_1.pdbqt
 102 104 0 0 0
SMALL
GASTEIGER

@<TRIPOS>ATOM
      1 C1        -11.9690   13.8700   69.7240 C.3     1  UNL1        0.0890
      2 H1        -12.9380   13.3770   69.6380 H       1  UNL1        0.0870
      3 N1        -10.9430   12.8550   69.5300 N.am    1  UNL1       -0.3460
      4 C2        -11.2990   11.5160   68.9370 C.2     1  UNL1        0.2410
      5 O1        -12.4200   11.2760   68.6260 O.2     1  UNL1       -0.2710
      6 H2         -9.9960   13.0790   69.8030 H       1  UNL1        0.1630
      7 C3        -10.2240   10.4800   68.7370 C.3     1  UNL1        0.0920
      8 H3        -10.1100   10.2830   67.6710 H       1  UNL1        0.0880
      9 N2         -8.9440   11.0050   69.2210 N.am    1  UNL1       -0.3460
     10 C4         -7.8700   11.2550   68.2900 C.2     1  UNL1        0.2400
     11 O2         -8.0200   11.0390   67.1500 O.2     1  UNL1       -0.2710
     12 H4         -8.8000   11.1950   70.2020 H       1  UNL1        0.1630
     13 C5         -6.5090   11.8110   68.8110 C.3     1  UNL1        0.0860
     14 H5         -5.6770   11.5810   68.1450 H       1  UNL1        0.0860
     15 N3         -6.5900   13.2600   68.8890 N.am    1  UNL1       -0.3430
     16 C6         -5.7280   14.0780   68.0340 C.2     1  UNL1        0.2730
     17 O3         -4.9700   13.5610   67.2890 O.2     1  UNL1       -0.2660
     18 H6         -7.2390   13.6940   69.5310 H       1  UNL1        0.1630
     19 C7         -5.8040   15.6120   68.1050 C.ar    1  UNL1        0.1540
     20 C8         -5.1080   16.5510   67.2800 C.ar    1  UNL1       -0.0170
     21 C9         -5.5210   17.8200   67.7470 C.ar    1  UNL1        0.0770
     22 H7         -4.4110   16.3450   66.4680 H       1  UNL1        0.0910
     23 O4         -6.3560   17.6200   68.7240 O.2     1  UNL1       -0.2180
     24 N4         -6.5370   16.3400   68.9520 N.ar    1  UNL1       -0.1230
     25 C10        -5.0710   19.1700   67.2050 C.3     1  UNL1       -0.0290
     26 H8         -5.3220   19.2390   66.1460 H       1  UNL1        0.0360
     27 H9         -5.5750   19.9670   67.7510 H       1  UNL1        0.0360
     28 H10        -3.9920   19.2700   67.3290 H       1  UNL1        0.0360
     29 C11        -6.2160   11.2360   70.1730 C.3     1  UNL1       -0.0490
     30 H11        -6.7860   10.3160   70.3100 H       1  UNL1        0.0300
     31 H12        -5.1510   11.0190   70.2550 H       1  UNL1        0.0300
     32 H13        -6.5010   11.9560   70.9400 H       1  UNL1        0.0300
     33 C12       -10.5890    9.1940   69.5350 C.3     1  UNL1       -0.0330
     34 H14       -11.5650    8.8570   69.1870 H       1  UNL1        0.0420
     35 C13        -9.5700    8.0450   69.2580 C.3     1  UNL1       -0.0710
     36 H15        -9.9890    7.3570   68.5230 H       1  UNL1        0.0280
     37 H16        -8.6430    8.4680   68.8710 H       1  UNL1        0.0280
     38 H17        -9.3660    7.5090   70.1840 H       1  UNL1        0.0280
     39 C14       -10.6990    9.4960   71.0640 C.3     1  UNL1       -0.0710
     40 H18        -9.7440    9.8710   71.4300 H       1  UNL1        0.0280
     41 H19       -11.4720   10.2480   71.2310 H       1  UNL1        0.0280
     42 H20       -10.9600    8.5820   71.5970 H       1  UNL1        0.0280
     43 C15       -11.7770   14.9800   68.6520 C.2     1  UNL1        0.2400
     44 O5        -12.2500   16.0570   68.8250 O.2     1  UNL1       -0.2710
     45 N5        -10.9950   14.7040   67.4130 N.am    1  UNL1       -0.3550
     46 H21       -10.5840   13.7950   67.2580 H       1  UNL1        0.1620
     47 C16       -10.8200   15.7710   66.4040 C.3     1  UNL1        0.0130
     48 H22       -11.7150   16.3930   66.4150 H       1  UNL1        0.0720
     49 C17       -10.6430   15.1440   65.0400 C.3     1  UNL1       -0.0380
     50 H23       -10.5520   15.9770   64.3420 H       1  UNL1        0.0360
     51 H24        -9.8250   14.4320   65.1480 H       1  UNL1        0.0360
     52 C18       -11.8750   14.3300   64.5900 C.3     1  UNL1        0.0180
     53 H25       -12.4690   14.1720   65.4900 H       1  UNL1        0.0480
     54 H26       -12.2980   14.8760   63.7460 H       1  UNL1        0.0480
     55 C19       -11.5270   12.9140   64.0520 C.2     1  UNL1        0.2590
     56 O6        -12.2820   12.3380   63.3380 O.2     1  UNL1       -0.2650
     57 O7        -10.2990   12.3060   64.4320 O.3     1  UNL1       -0.3170
     58 C20       -10.3360   10.8760   64.4450 C.3     1  UNL1        0.0520
     59 H27       -10.0280   10.5820   65.4480 H       1  UNL1        0.0820
     60 H28       -11.3240   10.6040   64.0760 H       1  UNL1        0.0820
     61 C21        -9.2760   10.3610   63.4350 C.ar    1  UNL1       -0.0340
     62 C22        -8.8550   11.1770   62.3900 C.ar    1  UNL1       -0.0750
     63 C23        -7.9030   10.7140   61.4830 C.ar    1  UNL1       -0.0820
     64 H29        -9.2710   12.1780   62.2810 H       1  UNL1        0.0840
     65 C24        -7.3730    9.4280   61.6230 C.ar    1  UNL1       -0.0830
     66 H30        -7.5740   11.3560   60.6660 H       1  UNL1        0.0830
     67 C25        -7.7980    8.6170   62.6660 C.ar    1  UNL1       -0.0820
     68 H31        -6.6280    9.0590   60.9180 H       1  UNL1        0.0830
     69 C26        -8.7480    9.0760   63.5760 C.ar    1  UNL1       -0.0750
     70 H32        -7.3840    7.6140   62.7710 H       1  UNL1        0.0830
     71 H33        -9.0760    8.4330   64.3930 H       1  UNL1        0.0840
     72 C27        -9.5890   16.6080   66.7450 C.3     1  UNL1       -0.0390
     73 H34        -9.1420   16.1260   67.6150 H       1  UNL1        0.0360
     74 H35        -9.0240   16.6850   65.8160 H       1  UNL1        0.0360
     75 C28        -9.9860   18.0970   67.1820 C.3     1  UNL1       -0.0010
     76 C29        -9.0930   19.1870   66.3340 C.3     1  UNL1       -0.0350
     77 C30        -8.5230   20.0550   67.2040 C.3     1  UNL1        0.0850
     78 H36        -8.2400   18.6910   65.8710 H       1  UNL1        0.0360
     79 H37        -9.7470   19.8200   65.7340 H       1  UNL1        0.0360
     80 N6         -8.6780   19.4630   68.5840 N.4     1  UNL1       -0.0490
     81 H38        -7.4640   20.0750   66.9430 H       1  UNL1        0.0750
     82 H39        -9.1180   20.9650   67.1390 H       1  UNL1        0.0750
     83 C31        -9.7750   18.2870   68.4420 C.3     1  UNL1        0.1930
     84 H40        -7.7880   19.0460   68.8180 H       1  UNL1        0.2800
     85 H41        -9.0630   20.1920   69.1660 H       1  UNL1        0.2800
     86 H42       -10.7960   18.4360   68.7940 H       1  UNL1        0.1290
     87 H43       -11.0660   18.2480   67.2010 H       1  UNL1        0.0460
     88 O8         -9.3150   17.1020   69.0960 O.3     1  UNL1       -0.3690
     89 H44        -8.3900   17.2050   69.3300 H       1  UNL1        0.2120
     90 C32       -11.8170   14.4680   71.1140 C.3     1  UNL1       -0.0350
     91 H45       -10.9800   13.9370   71.5670 H       1  UNL1        0.0370
     92 H46       -11.7590   15.5460   70.9590 H       1  UNL1        0.0370
     93 C33       -13.0500   14.2220   72.0400 C.3     1  UNL1       -0.0590
     94 H47       -12.7590   14.4900   73.0560 H       1  UNL1        0.0380
     95 C34       -14.2720   15.1100   71.6440 C.3     1  UNL1       -0.0730
     96 H48       -14.0790   15.5860   70.6820 H       1  UNL1        0.0280
     97 H49       -15.1640   14.4890   71.5690 H       1  UNL1        0.0280
     98 H50       -14.4260   15.8760   72.4040 H       1  UNL1        0.0280
     99 C35       -13.4360   12.7400   72.0540 C.3     1  UNL1       -0.0730
    100 H51       -14.1810   12.5660   72.8300 H       1  UNL1        0.0280
    101 H52       -13.8500   12.4640   71.0840 H       1  UNL1        0.0280
    102 H53       -12.5520   12.1360   72.2560 H       1  UNL1        0.0280
@<TRIPOS>BOND
     1    66    63    1
     2    68    65    1
     3    63    65   ar
     4    63    62   ar
     5    65    67   ar
     6    64    62    1
     7    62    61   ar
     8    67    70    1
     9    67    69   ar
    10    56    55    2
    11    61    69   ar
    12    61    58    1
    13    69    71    1
    14    54    52    1
    15    55    57    1
    16    55    52    1
    17    60    58    1
    18    50    49    1
    19    57    58    1
    20    58    59    1
    21    52    49    1
    22    52    53    1
    23    49    51    1
    24    49    47    1
    25    79    76    1
    26    74    72    1
    27    78    76    1
    28    26    25    1
    29    76    75    1
    30    76    77    1
    31    47    48    1
    32    47    72    1
    33    47    45    1
    34    22    20    1
    35    72    75    1
    36    72    73    1
    37    81    77    1
    38    82    77    1
    39    11    10    2
    40    75    87    1
    41    75    83    1
    42    77    80    1
    43    25    28    1
    44    25    21    1
    45    25    27    1
    46    46    45    1
    47    20    21   ar
    48    20    19   ar
    49    17    16    2
    50    45    43   am
    51     8     7    1
    52    21    23   ar
    53    16    19    1
    54    16    15   am
    55    19    24   ar
    56    14    13    1
    57    10    13    1
    58    10     9   am
    59    83    80    1
    60    83    86    1
    61    83    88    1
    62    36    35    1
    63    80    84    1
    64    80    85    1
    65     5     4    2
    66    43    44    2
    67    43     1    1
    68    23    24   ar
    69     7     4    1
    70     7     9    1
    71     7    33    1
    72    13    15    1
    73    13    29    1
    74    37    35    1
    75    15    18    1
    76     4     3   am
    77    88    89    1
    78    34    33    1
    79     9    12    1
    80    35    33    1
    81    35    38    1
    82     3     1    1
    83     3     6    1
    84    33    39    1
    85     2     1    1
    86     1    90    1
    87    29    31    1
    88    29    30    1
    89    29    32    1
    90    96    95    1
    91    92    90    1
    92    39    41    1
    93    39    40    1
    94    39    42    1
    95   101    99    1
    96    90    91    1
    97    90    93    1
    98    97    95    1
    99    95    93    1
   100    95    98    1
   101    93    99    1
   102    93    94    1
   103    99   102    1
   104    99   100    1
@<TRIPOS>MOLECULE
crystal_redock_e24_er3_1.pdbqt
 102 104 0 0 0
SMALL
GASTEIGER

@<TRIPOS>ATOM
      1 C         -12.1580   13.9750   69.5080 C.3     1  UNL1        0.0890
      2 H         -13.1100   13.7560   69.0240 H       1  UNL1        0.0870
      3 N         -11.6660   12.7350   70.0890 N.am    1  UNL1       -0.3460
      4 C         -11.7110   11.4520   69.2980 C.2     1  UNL1        0.2410
      5 O         -12.1500   11.4420   68.1950 O.2     1  UNL1       -0.2710
      6 H         -11.2990   12.7640   71.0300 H       1  UNL1        0.1630
      7 C         -11.1930   10.1790   69.9130 C.3     1  UNL1        0.0920
      8 H         -11.3180    9.3610   69.2030 H       1  UNL1        0.0880
      9 N          -9.7570   10.3110   70.1740 N.am    1  UNL1       -0.3460
     10 C          -8.8040    9.9650   69.1480 C.2     1  UNL1        0.2400
     11 O          -9.1750    9.5780   68.1080 O.2     1  UNL1       -0.2710
     12 H          -9.4220   10.6410   71.0670 H       1  UNL1        0.1630
     13 C          -7.2760   10.1050   69.4330 C.3     1  UNL1        0.0860
     14 H          -6.6600    9.7990   68.5880 H       1  UNL1        0.0860
     15 N          -6.9700   11.5030   69.6870 N.am    1  UNL1       -0.3430
     16 C          -6.5250   12.3560   68.5830 C.2     1  UNL1        0.2730
     17 O          -6.4140   11.9080   67.4950 O.2     1  UNL1       -0.2660
     18 H          -7.0640   11.8770   70.6210 H       1  UNL1        0.1630
     19 C          -6.1990   13.8360   68.8360 C.ar    1  UNL1        0.1540
     20 C          -5.3710   14.6880   68.0390 C.ar    1  UNL1       -0.0170
     21 C          -5.3970   15.9390   68.6960 C.ar    1  UNL1        0.0770
     22 H          -4.8330   14.4370   67.1250 H       1  UNL1        0.0910
     23 O          -6.1560   15.8100   69.7450 O.2     1  UNL1       -0.2180
     24 N          -6.6350   14.5920   69.8480 N.ar    1  UNL1       -0.1230
     25 C          -4.6720   17.2040   68.2560 C.3     1  UNL1       -0.0290
     26 H          -4.6230   17.2350   67.1670 H       1  UNL1        0.0360
     27 H          -5.2110   18.0770   68.6210 H       1  UNL1        0.0360
     28 H          -3.6610   17.2040   68.6650 H       1  UNL1        0.0360
     29 C          -6.9070    9.2690   70.6330 C.3     1  UNL1       -0.0490
     30 H          -7.5770    9.5050   71.4600 H       1  UNL1        0.0300
     31 H          -6.9970    8.2130   70.3810 H       1  UNL1        0.0300
     32 H          -5.8800    9.4870   70.9250 H       1  UNL1        0.0300
     33 C         -11.9390    9.9100   71.2530 C.3     1  UNL1       -0.0330
     34 H         -11.8000   10.7850   71.8880 H       1  UNL1        0.0420
     35 C         -13.4730    9.7350   71.0250 C.3     1  UNL1       -0.0710
     36 H         -13.9700    9.6040   71.9870 H       1  UNL1        0.0280
     37 H         -13.8690   10.6200   70.5290 H       1  UNL1        0.0280
     38 H         -13.6490    8.8590   70.4020 H       1  UNL1        0.0280
     39 C         -11.3320    8.6750   71.9930 C.3     1  UNL1       -0.0710
     40 H         -10.3870    8.9570   72.4580 H       1  UNL1        0.0280
     41 H         -12.0260    8.3330   72.7610 H       1  UNL1        0.0280
     42 H         -11.1580    7.8720   71.2760 H       1  UNL1        0.0280
     43 C         -11.0960   14.5050   68.5020 C.2     1  UNL1        0.2400
     44 O         -10.0610   14.9290   68.9030 O.2     1  UNL1       -0.2710
     45 N         -11.3670   14.4760   67.0360 N.am    1  UNL1       -0.3550
     46 H         -12.2410   14.1140   66.6830 H       1  UNL1        0.1620
     47 C         -10.3470   14.9820   66.0920 C.3     1  UNL1        0.0130
     48 H          -9.3690   14.8500   66.5530 H       1  UNL1        0.0720
     49 C         -10.5980   16.4490   65.8250 C.3     1  UNL1       -0.0380
     50 H         -10.5130   16.5710   64.7450 H       1  UNL1        0.0360
     51 H         -11.5370   16.6840   66.3280 H       1  UNL1        0.0360
     52 C          -9.5260   17.3650   66.4540 C.3     1  UNL1        0.0180
     53 H          -8.8550   16.7020   67.0010 H       1  UNL1        0.0480
     54 H          -9.1410   17.9740   65.6360 H       1  UNL1        0.0480
     55 C         -10.0910   18.3630   67.5020 C.2     1  UNL1        0.2590
     56 O         -11.0090   18.0580   68.1920 O.2     1  UNL1       -0.2650
     57 O          -9.5060   19.6550   67.6210 O.3     1  UNL1       -0.3170
     58 C          -8.2950   19.8160   66.8760 C.3     1  UNL1        0.0520
     59 H          -8.0970   18.8450   66.4210 H       1  UNL1        0.0820
     60 H          -8.4510   20.6910   66.2460 H       1  UNL1        0.0820
     61 C          -7.1540   20.1300   67.8800 C.ar    1  UNL1       -0.0340
     62 C          -7.2440   19.6900   69.1970 C.ar    1  UNL1       -0.0750
     63 C          -6.2190   19.9720   70.0990 C.ar    1  UNL1       -0.0820
     64 H          -8.1170   19.1230   69.5220 H       1  UNL1        0.0840
     65 C          -5.1020   20.7000   69.6810 C.ar    1  UNL1       -0.0830
     66 H          -6.2920   19.6240   71.1290 H       1  UNL1        0.0830
     67 C          -5.0190   21.1410   68.3670 C.ar    1  UNL1       -0.0820
     68 H          -4.2960   20.9250   70.3790 H       1  UNL1        0.0830
     69 C          -6.0390   20.8590   67.4610 C.ar    1  UNL1       -0.0750
     70 H          -4.1470   21.7100   68.0440 H       1  UNL1        0.0830
     71 H          -5.9660   21.2070   66.4310 H       1  UNL1        0.0840
     72 C         -10.4260   14.2040   64.7810 C.3     1  UNL1       -0.0390
     73 H         -11.0830   14.7890   64.1360 H       1  UNL1        0.0360
     74 H          -9.3920   14.0260   64.4870 H       1  UNL1        0.0360
     75 C         -11.1140   12.7720   64.9820 C.3     1  UNL1       -0.0010
     76 C          -9.9690   11.5920   64.9540 C.3     1  UNL1       -0.0350
     77 C         -10.3450   10.6390   64.0670 C.3     1  UNL1        0.0850
     78 H          -9.0420   11.9800   64.5330 H       1  UNL1        0.0360
     79 H          -9.9550   11.0620   65.9070 H       1  UNL1        0.0360
     80 N         -11.4750   11.2180   63.2500 N.4     1  UNL1       -0.0490
     81 H          -9.4810   10.4850   63.4200 H       1  UNL1        0.0750
     82 H         -10.7290    9.8160   64.6700 H       1  UNL1        0.0750
     83 C         -11.9730   12.5300   64.0480 C.3     1  UNL1        0.1930
     84 H         -11.0720   11.5100   62.3710 H       1  UNL1        0.2800
     85 H         -12.2180   10.5340   63.2630 H       1  UNL1        0.2800
     86 H         -12.8960   12.5090   64.6280 H       1  UNL1        0.1290
     87 H         -11.8140   12.7640   65.8170 H       1  UNL1        0.0460
     88 O         -12.1140   13.6310   63.1480 O.3     1  UNL1       -0.3690
     89 H         -11.2620   13.8340   62.7560 H       1  UNL1        0.2120
     90 C         -12.3650   14.9940   70.6170 C.3     1  UNL1       -0.0350
     91 H         -11.3800   15.1440   71.0590 H       1  UNL1        0.0370
     92 H         -12.8840   15.8310   70.1470 H       1  UNL1        0.0370
     93 C         -13.2940   14.4900   71.7660 C.3     1  UNL1       -0.0590
     94 H         -13.3080   13.4010   71.7260 H       1  UNL1        0.0380
     95 C         -12.7660   14.9070   73.1760 C.3     1  UNL1       -0.0730
     96 H         -11.8140   15.4260   73.0690 H       1  UNL1        0.0280
     97 H         -13.4890   15.5700   73.6530 H       1  UNL1        0.0280
     98 H         -12.6290   14.0180   73.7910 H       1  UNL1        0.0280
     99 C         -14.7320   14.9710   71.5590 C.3     1  UNL1       -0.0730
    100 H         -15.0600   15.5280   72.4370 H       1  UNL1        0.0280
    101 H         -14.7760   15.6170   70.6810 H       1  UNL1        0.0280
    102 H         -15.3850   14.1110   71.4080 H       1  UNL1        0.0280
@<TRIPOS>BOND
     1    84    80    1
     2    89    88    1
     3    88    83    1
     4    80    85    1
     5    80    83    1
     6    80    77    1
     7    81    77    1
     8    83    86    1
     9    83    75    1
    10    77    82    1
    11    77    76    1
    12    73    72    1
    13    74    72    1
    14    78    76    1
    15    50    49    1
    16    72    75    1
    17    72    47    1
    18    76    75    1
    19    76    79    1
    20    75    87    1
    21    54    52    1
    22    49    47    1
    23    49    51    1
    24    49    52    1
    25    47    48    1
    26    47    45    1
    27    60    58    1
    28    59    58    1
    29    71    69    1
    30    52    53    1
    31    52    55    1
    32    46    45    1
    33    58    57    1
    34    58    61    1
    35    45    43   am
    36    22    20    1
    37    26    25    1
    38    69    61   ar
    39    69    67   ar
    40    17    16    2
    41    55    57    1
    42    55    56    2
    43    61    62   ar
    44    20    21   ar
    45    20    19   ar
    46    70    67    1
    47    11    10    2
    48     5     4    2
    49    25    27    1
    50    25    28    1
    51    25    21    1
    52    67    65   ar
    53    43    44    2
    54    43     1    1
    55    16    19    1
    56    16    15   am
    57    14    13    1
    58    21    23   ar
    59    19    24   ar
    60     2     1    1
    61    10    13    1
    62    10     9   am
    63    62    64    1
    64    62    63   ar
    65     8     7    1
    66     4     7    1
    67     4     3   am
    68    13    15    1
    69    13    29    1
    70     1     3    1
    71     1    90    1
    72    65    63   ar
    73    65    68    1
    74    15    18    1
    75    23    24   ar
    76     7     9    1
    77     7    33    1
    78     3     6    1
    79    63    66    1
    80    92    90    1
    81     9    12    1
    82    31    29    1
    83    38    35    1
    84    37    35    1
    85    90    91    1
    86    90    93    1
    87    29    32    1
    88    29    30    1
    89   101    99    1
    90    35    33    1
    91    35    36    1
    92    33    34    1
    93    33    39    1
    94    42    39    1
    95   102    99    1
    96    99    93    1
    97    99   100    1
    98    94    93    1
    99    93    95    1
   100    39    40    1
   101    39    41    1
   102    96    95    1
   103    95    97    1
   104    95    98    1
@<TRIPOS>MOLECULE
crystal_redock_e24_er3_1.pdbqt
 102 104 0 0 0
SMALL
GASTEIGER

@<TRIPOS>ATOM
      1 C          -6.7900   14.6690   67.8500 C.3     1  UNL1        0.0890
      2 H          -6.0800   15.0160   67.0980 H       1  UNL1        0.0870
      3 N          -8.0620   15.3270   67.5880 N.am    1  UNL1       -0.3460
      4 C          -8.1310   16.5040   66.6480 C.2     1  UNL1        0.2410
      5 O          -7.1490   16.9070   66.1170 O.2     1  UNL1       -0.2710
      6 H          -8.8850   14.9700   68.0520 H       1  UNL1        0.1630
      7 C          -9.4570   17.1690   66.3840 C.3     1  UNL1        0.0920
      8 H          -9.5610   17.3490   65.3140 H       1  UNL1        0.0880
      9 N         -10.5430   16.2670   66.7790 N.am    1  UNL1       -0.3460
     10 C         -10.6570   14.9660   66.1690 C.2     1  UNL1        0.2400
     11 O          -9.8850   14.6280   65.3570 O.2     1  UNL1       -0.2710
     12 H         -11.2180   16.5450   67.4770 H       1  UNL1        0.1630
     13 C         -11.8180   14.0120   66.5910 C.3     1  UNL1        0.0860
     14 H         -11.4770   12.9950   66.7870 H       1  UNL1        0.0860
     15 N         -12.4030   14.5010   67.8280 N.am    1  UNL1       -0.3430
     16 C         -11.6370   14.4100   69.0730 C.2     1  UNL1        0.2730
     17 O         -10.5530   13.9410   69.0700 O.2     1  UNL1       -0.2660
     18 H         -13.3320   14.8980   67.8230 H       1  UNL1        0.1630
     19 C         -12.2430   14.9250   70.3890 C.ar    1  UNL1        0.1540
     20 C         -11.5530   15.1850   71.6150 C.ar    1  UNL1       -0.0170
     21 C         -12.5520   15.6370   72.5060 C.ar    1  UNL1        0.0770
     22 H         -10.4900   15.0650   71.8260 H       1  UNL1        0.0910
     23 O         -13.6800   15.6340   71.8560 O.2     1  UNL1       -0.2180
     24 N         -13.5250   15.2220   70.6190 N.ar    1  UNL1       -0.1230
     25 C         -12.3470   16.0510   73.9560 C.3     1  UNL1       -0.0290
     26 H         -13.2950   16.3880   74.3770 H       1  UNL1        0.0360
     27 H         -11.9770   15.2000   74.5280 H       1  UNL1        0.0360
     28 H         -11.6200   16.8630   74.0030 H       1  UNL1        0.0360
     29 C         -12.8620   13.9750   65.5050 C.3     1  UNL1       -0.0490
     30 H         -12.4010   13.6640   64.5670 H       1  UNL1        0.0300
     31 H         -13.6450   13.2670   65.7770 H       1  UNL1        0.0300
     32 H         -13.2950   14.9670   65.3830 H       1  UNL1        0.0300
     33 C          -9.5510   18.4840   67.2120 C.3     1  UNL1       -0.0330
     34 H          -8.5590   18.9340   67.2290 H       1  UNL1        0.0420
     35 C         -10.5190   19.5090   66.5410 C.3     1  UNL1       -0.0710
     36 H         -11.4370   19.0010   66.2440 H       1  UNL1        0.0280
     37 H         -10.7560   20.3020   67.2510 H       1  UNL1        0.0280
     38 H         -10.0400   19.9390   65.6620 H       1  UNL1        0.0280
     39 C          -9.9730   18.1880   68.6870 C.3     1  UNL1       -0.0710
     40 H         -11.0590   18.2300   68.7690 H       1  UNL1        0.0280
     41 H          -9.6250   17.1950   68.9720 H       1  UNL1        0.0280
     42 H          -9.5300   18.9330   69.3480 H       1  UNL1        0.0280
     43 C          -7.0060   13.1300   67.7880 C.2     1  UNL1        0.2400
     44 O          -6.1370   12.3970   68.1330 O.2     1  UNL1       -0.2710
     45 N          -8.3010   12.5700   67.3060 N.am    1  UNL1       -0.3550
     46 H          -9.0480   13.1830   67.0140 H       1  UNL1        0.1620
     47 C          -8.4910   11.1040   67.2540 C.3     1  UNL1        0.0130
     48 H          -7.8140   10.6520   67.9790 H       1  UNL1        0.0720
     49 C          -8.1670   10.6070   65.8640 C.3     1  UNL1       -0.0380
     50 H          -7.8770   11.4900   65.2950 H       1  UNL1        0.0360
     51 H          -7.4580    9.7900   66.0010 H       1  UNL1        0.0360
     52 C          -9.3920   10.0040   65.1420 C.3     1  UNL1        0.0180
     53 H          -9.2060    8.9310   65.0910 H       1  UNL1        0.0480
     54 H         -10.2640   10.3820   65.6760 H       1  UNL1        0.0480
     55 C          -9.5500   10.4820   63.6720 C.2     1  UNL1        0.2590
     56 O         -10.0070   11.5530   63.4310 O.2     1  UNL1       -0.2650
     57 O          -9.1540    9.6200   62.6120 O.3     1  UNL1       -0.3170
     58 C          -7.7670    9.7140   62.2720 C.3     1  UNL1        0.0520
     59 H          -7.7370    9.8350   61.1900 H       1  UNL1        0.0820
     60 H          -7.3570   10.4900   62.9190 H       1  UNL1        0.0820
     61 C          -7.0920    8.3650   62.6350 C.ar    1  UNL1       -0.0340
     62 C          -7.8670    7.2220   62.8060 C.ar    1  UNL1       -0.0750
     63 C          -7.2610    6.0100   63.1320 C.ar    1  UNL1       -0.0820
     64 H          -8.9490    7.2760   62.6840 H       1  UNL1        0.0840
     65 C          -5.8740    5.9430   63.2910 C.ar    1  UNL1       -0.0830
     66 H          -7.8710    5.1160   63.2630 H       1  UNL1        0.0830
     67 C          -5.1050    7.0870   63.1220 C.ar    1  UNL1       -0.0820
     68 H          -5.3920    5.0000   63.5450 H       1  UNL1        0.0830
     69 C          -5.7070    8.3000   62.7940 C.ar    1  UNL1       -0.0750
     70 H          -4.0240    7.0330   63.2490 H       1  UNL1        0.0830
     71 H          -5.0960    9.1940   62.6630 H       1  UNL1        0.0840
     72 C          -9.9390   10.7590   67.5950 C.3     1  UNL1       -0.0390
     73 H         -10.5150   11.6540   67.3560 H       1  UNL1        0.0360
     74 H         -10.1450    9.8240   67.0730 H       1  UNL1        0.0360
     75 C         -10.1290   10.4780   69.1600 C.3     1  UNL1       -0.0010
     76 C          -9.4790    9.0190   69.5510 C.3     1  UNL1       -0.0350
     77 C         -10.4020    8.2990   70.2330 C.3     1  UNL1        0.0850
     78 H          -9.3130    8.4310   68.6490 H       1  UNL1        0.0360
     79 H          -8.6740    9.1500   70.2730 H       1  UNL1        0.0360
     80 N         -11.7270    9.0020   70.0600 N.4     1  UNL1       -0.0490
     81 H         -10.4450    7.3310   69.7330 H       1  UNL1        0.0750
     82 H         -10.1030    8.3590   71.2790 H       1  UNL1        0.0750
     83 C         -11.3790   10.4700   69.4860 C.3     1  UNL1        0.1930
     84 H         -12.2320    8.4900   69.3500 H       1  UNL1        0.2800
     85 H         -12.1200    9.1040   70.9850 H       1  UNL1        0.2800
     86 H         -11.4210   11.3430   70.1370 H       1  UNL1        0.1290
     87 H          -9.8350   11.3320   69.7720 H       1  UNL1        0.0460
     88 O         -12.2260   10.7790   68.3770 O.3     1  UNL1       -0.3690
     89 H         -13.1390   10.8110   68.6720 H       1  UNL1        0.2120
     90 C          -6.3050   15.0620   69.2360 C.3     1  UNL1       -0.0350
     91 H          -7.1960   15.3900   69.7720 H       1  UNL1        0.0370
     92 H          -5.7370   14.2040   69.5970 H       1  UNL1        0.0370
     93 C          -5.3200   16.2740   69.2350 C.3     1  UNL1       -0.0590
     94 H          -4.9130   16.3690   68.2280 H       1  UNL1        0.0380
     95 C          -6.0380   17.6170   69.5860 C.3     1  UNL1       -0.0730
     96 H          -7.1100   17.5080   69.4250 H       1  UNL1        0.0280
     97 H          -5.8500   17.8660   70.6310 H       1  UNL1        0.0280
     98 H          -5.6520   18.4130   68.9480 H       1  UNL1        0.0280
     99 C          -4.1420   16.0230   70.1800 C.3     1  UNL1       -0.0730
    100 H          -4.5140   15.8870   71.1960 H       1  UNL1        0.0280
    101 H          -3.6090   15.1250   69.8650 H       1  UNL1        0.0280
    102 H          -3.4650   16.8760   70.1510 H       1  UNL1        0.0280
@<TRIPOS>BOND
     1    59    58    1
     2    58    57    1
     3    58    61    1
     4    58    60    1
     5    57    55    1
     6    61    69   ar
     7    61    62   ar
     8    71    69    1
     9    64    62    1
    10    69    67   ar
    11    62    63   ar
    12    67    70    1
    13    67    65   ar
    14    63    66    1
    15    63    65   ar
    16    65    68    1
    17    56    55    2
    18    55    52    1
    19    30    29    1
    20    53    52    1
    21    52    54    1
    22    52    49    1
    23    50    49    1
    24     8     7    1
    25    11    10    2
    26    32    29    1
    27    29    31    1
    28    29    13    1
    29    38    35    1
    30    49    51    1
    31    49    47    1
    32     5     4    2
    33    10    13    1
    34    10     9   am
    35    36    35    1
    36     7     4    1
    37     7     9    1
    38     7    33    1
    39    35    33    1
    40    35    37    1
    41    13    14    1
    42    13    15    1
    43     4     3   am
    44     9    12    1
    45    46    45    1
    46    74    72    1
    47     2     1    1
    48    33    34    1
    49    33    39    1
    50    47    45    1
    51    47    72    1
    52    47    48    1
    53    45    43   am
    54    73    72    1
    55     3     1    1
    56     3     6    1
    57    72    75    1
    58    43     1    1
    59    43    44    2
    60    18    15    1
    61    15    16   am
    62     1    90    1
    63    94    93    1
    64    88    89    1
    65    88    83    1
    66    78    76    1
    67    39    40    1
    68    39    41    1
    69    39    42    1
    70    98    95    1
    71    17    16    2
    72    16    19    1
    73    75    83    1
    74    75    76    1
    75    75    87    1
    76    93    90    1
    77    93    95    1
    78    93    99    1
    79    90    92    1
    80    90    91    1
    81    84    80    1
    82    96    95    1
    83    83    80    1
    84    83    86    1
    85    76    77    1
    86    76    79    1
    87    95    97    1
    88    81    77    1
    89   101    99    1
    90    80    77    1
    91    80    85    1
    92   102    99    1
    93    99   100    1
    94    77    82    1
    95    19    24   ar
    96    19    20   ar
    97    24    23   ar
    98    20    22    1
    99    20    21   ar
   100    23    21   ar
   101    21    25    1
   102    25    28    1
   103    25    26    1
   104    25    27    1
@<TRIPOS>MOLECULE
crystal_redock_e24_er3_1.pdbqt
 102 104 0 0 0
SMALL
GASTEIGER

@<TRIPOS>ATOM
      1 C         -12.2010   13.8550   70.1820 C.3     1  UNL1        0.0890
      2 H         -13.2490   13.8130   69.8850 H       1  UNL1        0.0870
      3 N         -11.7600   12.4900   70.4280 N.am    1  UNL1       -0.3460
      4 C         -11.7950   11.4660   69.3210 C.2     1  UNL1        0.2410
      5 O         -12.1840   11.7640   68.2400 O.2     1  UNL1       -0.2710
      6 H         -11.4350   12.2560   71.3560 H       1  UNL1        0.1630
      7 C         -11.3300   10.0600   69.5930 C.3     1  UNL1        0.0920
      8 H         -11.9400    9.3630   69.0170 H       1  UNL1        0.0880
      9 N          -9.9460    9.9050   69.1360 N.am    1  UNL1       -0.3460
     10 C          -9.6670    9.1960   67.9110 C.2     1  UNL1        0.2400
     11 O         -10.5440    8.7410   67.2830 O.2     1  UNL1       -0.2710
     12 H          -9.1790   10.2900   69.6680 H       1  UNL1        0.1630
     13 C          -8.1910    9.0320   67.4310 C.3     1  UNL1        0.0860
     14 H          -8.1090    8.9240   66.3500 H       1  UNL1        0.0860
     15 N          -7.4440   10.2260   67.7880 N.am    1  UNL1       -0.3430
     16 C          -6.6400   10.9050   66.7700 C.2     1  UNL1        0.2730
     17 O          -6.5990   10.4820   65.6670 O.2     1  UNL1       -0.2660
     18 H          -7.4830   10.5800   68.7340 H       1  UNL1        0.1630
     19 C          -5.8460   12.1700   67.1330 C.ar    1  UNL1        0.1540
     20 C          -6.2940   13.2750   67.9250 C.ar    1  UNL1       -0.0170
     21 C          -5.1990   14.1660   67.9590 C.ar    1  UNL1        0.0770
     22 H          -7.2650   13.4090   68.4020 H       1  UNL1        0.0910
     23 O          -4.2390   13.6260   67.2660 O.2     1  UNL1       -0.2180
     24 N          -4.5930   12.4610   66.7740 N.ar    1  UNL1       -0.1230
     25 C          -5.1500   15.5090   68.6750 C.3     1  UNL1       -0.0290
     26 H          -4.5390   16.2060   68.1010 H       1  UNL1        0.0360
     27 H          -6.1610   15.9060   68.7710 H       1  UNL1        0.0360
     28 H          -4.7170   15.3770   69.6670 H       1  UNL1        0.0360
     29 C          -7.5770    7.8220   68.0890 C.3     1  UNL1       -0.0490
     30 H          -7.7910    7.8410   69.1580 H       1  UNL1        0.0300
     31 H          -7.9980    6.9170   67.6500 H       1  UNL1        0.0300
     32 H          -6.4990    7.8340   67.9350 H       1  UNL1        0.0300
     33 C         -11.4030    9.7760   71.1220 C.3     1  UNL1       -0.0330
     34 H         -11.2280   10.7180   71.6400 H       1  UNL1        0.0420
     35 C         -12.8180    9.2670   71.5390 C.3     1  UNL1       -0.0710
     36 H         -13.4280   10.1120   71.8600 H       1  UNL1        0.0280
     37 H         -13.2940    8.7790   70.6880 H       1  UNL1        0.0280
     38 H         -12.7220    8.5560   72.3590 H       1  UNL1        0.0280
     39 C         -10.2890    8.7710   71.5580 C.3     1  UNL1       -0.0710
     40 H          -9.7810    9.1520   72.4430 H       1  UNL1        0.0280
     41 H         -10.7400    7.8040   71.7860 H       1  UNL1        0.0280
     42 H          -9.5690    8.6530   70.7480 H       1  UNL1        0.0280
     43 C         -11.3010   14.4730   69.0730 C.2     1  UNL1        0.2400
     44 O         -10.1420   14.6380   69.2770 O.2     1  UNL1       -0.2710
     45 N         -11.8830   14.8520   67.7550 N.am    1  UNL1       -0.3550
     46 H         -12.8660   14.7130   67.5680 H       1  UNL1        0.1620
     47 C         -11.0140   15.4370   66.7110 C.3     1  UNL1        0.0130
     48 H         -11.6540   15.8070   65.9100 H       1  UNL1        0.0720
     49 C         -10.0840   14.3700   66.1790 C.3     1  UNL1       -0.0380
     50 H          -9.0980   14.8340   66.1350 H       1  UNL1        0.0360
     51 H         -10.2480   13.4960   66.8100 H       1  UNL1        0.0360
     52 C         -10.4290   13.9390   64.7370 C.3     1  UNL1        0.0180
     53 H         -10.8840   14.8120   64.2680 H       1  UNL1        0.0480
     54 H          -9.5110   13.5170   64.3280 H       1  UNL1        0.0480
     55 C         -11.4920   12.8080   64.6590 C.2     1  UNL1        0.2590
     56 O         -12.5370   12.9230   65.2130 O.2     1  UNL1       -0.2650
     57 O         -11.1970   11.6250   63.9270 O.3     1  UNL1       -0.3170
     58 C         -10.2190   10.7850   64.5470 C.3     1  UNL1        0.0520
     59 H          -9.6760   11.4270   65.2400 H       1  UNL1        0.0820
     60 H         -10.7680    9.9200   64.9210 H       1  UNL1        0.0820
     61 C          -9.2350   10.3030   63.4480 C.ar    1  UNL1       -0.0340
     62 C          -8.8070   11.1850   62.4610 C.ar    1  UNL1       -0.0750
     63 C          -7.9240   10.7530   61.4730 C.ar    1  UNL1       -0.0820
     64 H          -9.1640   12.2160   62.4620 H       1  UNL1        0.0840
     65 C          -7.4690    9.4310   61.4730 C.ar    1  UNL1       -0.0830
     66 H          -7.5880   11.4480   60.7030 H       1  UNL1        0.0830
     67 C          -7.9020    8.5540   62.4580 C.ar    1  UNL1       -0.0820
     68 H          -6.7780    9.0850   60.7050 H       1  UNL1        0.0830
     69 C          -8.7840    8.9820   63.4480 C.ar    1  UNL1       -0.0750
     70 H          -7.5480    7.5220   62.4540 H       1  UNL1        0.0830
     71 H          -9.1180    8.2870   64.2190 H       1  UNL1        0.0840
     72 C         -10.1930   16.5800   67.3040 C.3     1  UNL1       -0.0390
     73 H         -10.8790   17.1240   67.9540 H       1  UNL1        0.0360
     74 H          -9.3030   16.1110   67.7230 H       1  UNL1        0.0360
     75 C          -9.7000   17.6040   66.1740 C.3     1  UNL1       -0.0010
     76 C          -8.0600   17.7230   66.2020 C.3     1  UNL1       -0.0350
     77 C          -7.7190   19.0320   66.2590 C.3     1  UNL1        0.0850
     78 H          -7.6720   17.3180   67.1370 H       1  UNL1        0.0360
     79 H          -7.6450   17.3920   65.2500 H       1  UNL1        0.0360
     80 N          -8.9710   19.8010   66.6020 N.4     1  UNL1       -0.0490
     81 H          -7.0130   19.1140   67.0870 H       1  UNL1        0.0750
     82 H          -7.4060   19.2950   65.2490 H       1  UNL1        0.0750
     83 C         -10.1990   18.7810   66.3610 C.3     1  UNL1        0.1930
     84 H          -8.9170   20.0120   67.5880 H       1  UNL1        0.2800
     85 H          -9.0400   20.5510   65.9290 H       1  UNL1        0.2800
     86 H         -10.8290   18.8720   65.4760 H       1  UNL1        0.1290
     87 H         -10.1670   17.4100   65.2090 H       1  UNL1        0.0460
     88 O         -11.0950   18.8170   67.4730 O.3     1  UNL1       -0.3690
     89 H         -10.8280   19.5130   68.0770 H       1  UNL1        0.2120
     90 C         -12.0600   14.6610   71.4630 C.3     1  UNL1       -0.0350
     91 H         -11.9020   13.9240   72.2510 H       1  UNL1        0.0370
     92 H         -11.2940   15.4070   71.2520 H       1  UNL1        0.0370
     93 C         -13.3500   15.4510   71.8510 C.3     1  UNL1       -0.0590
     94 H         -13.4050   16.3300   71.2090 H       1  UNL1        0.0380
     95 C         -14.6480   14.6120   71.6200 C.3     1  UNL1       -0.0730
     96 H         -15.4560   15.0200   72.2260 H       1  UNL1        0.0280
     97 H         -14.9250   14.6540   70.5660 H       1  UNL1        0.0280
     98 H         -14.4650   13.5760   71.9070 H       1  UNL1        0.0280
     99 C         -13.2730   15.9480   73.2970 C.3     1  UNL1       -0.0730
    100 H         -12.2890   16.3810   73.4800 H       1  UNL1        0.0280
    101 H         -14.0400   16.7060   73.4610 H       1  UNL1        0.0280
    102 H         -13.4360   15.1130   73.9770 H       1  UNL1        0.0280
@<TRIPOS>BOND
     1    66    63    1
     2    68    65    1
     3    65    63   ar
     4    65    67   ar
     5    63    62   ar
     6    70    67    1
     7    67    69   ar
     8    62    64    1
     9    62    61   ar
    10    69    61   ar
    11    69    71    1
    12    61    58    1
    13    57    58    1
    14    57    55    1
    15    53    52    1
    16    54    52    1
    17    58    60    1
    18    58    59    1
    19    55    52    1
    20    55    56    2
    21    52    49    1
    22    87    75    1
    23    82    77    1
    24    79    76    1
    25    86    83    1
    26    17    16    2
    27    48    47    1
    28    85    80    1
    29    50    49    1
    30    75    76    1
    31    75    83    1
    32    75    72    1
    33    49    47    1
    34    49    51    1
    35    76    77    1
    36    76    78    1
    37    77    80    1
    38    77    81    1
    39    14    13    1
    40    83    80    1
    41    83    88    1
    42    80    84    1
    43    47    72    1
    44    47    45    1
    45    16    19    1
    46    16    15   am
    47    24    19   ar
    48    24    23   ar
    49    19    20   ar
    50    23    21   ar
    51    11    10    2
    52    72    74    1
    53    72    73    1
    54    13    15    1
    55    13    10    1
    56    13    29    1
    57    88    89    1
    58    46    45    1
    59    31    29    1
    60    45    43   am
    61    15    18    1
    62    10     9   am
    63    20    21   ar
    64    20    22    1
    65    32    29    1
    66    21    25    1
    67    29    30    1
    68    26    25    1
    69     5     4    2
    70    25    27    1
    71    25    28    1
    72     8     7    1
    73    43    44    2
    74    43     1    1
    75     9     7    1
    76     9    12    1
    77     4     7    1
    78     4     3   am
    79     7    33    1
    80     2     1    1
    81     1     3    1
    82     1    90    1
    83     3     6    1
    84    97    95    1
    85    37    35    1
    86    42    39    1
    87    33    35    1
    88    33    39    1
    89    33    34    1
    90    94    93    1
    91    92    90    1
    92    90    93    1
    93    90    91    1
    94    35    36    1
    95    35    38    1
    96    39    41    1
    97    39    40    1
    98    95    93    1
    99    95    98    1
   100    95    96    1
   101    93    99    1
   102    99   101    1
   103    99   100    1
   104    99   102    1
@<TRIPOS>MOLECULE
crystal_redock_e24_er3_1.pdbqt
 102 104 0 0 0
SMALL
GASTEIGER

@<TRIPOS>ATOM
      1 C         -12.3130   13.9210   70.1480 C.3     1  UNL1        0.0890
      2 H         -13.3870   13.7370   70.1210 H       1  UNL1        0.0870
      3 N         -11.6450   12.6420   69.9620 N.am    1  UNL1       -0.3460
      4 C         -12.2020   11.3920   70.5950 C.2     1  UNL1        0.2410
      5 O         -13.1890   11.4410   71.2520 O.2     1  UNL1       -0.2710
      6 H         -10.8050   12.6220   69.4010 H       1  UNL1        0.1630
      7 C         -11.5010   10.0750   70.3870 C.3     1  UNL1        0.0920
      8 H         -11.9240    9.5770   69.5140 H       1  UNL1        0.0880
      9 N         -10.0830   10.3160   70.1020 N.am    1  UNL1       -0.3460
     10 C          -9.5770   10.1390   68.7630 C.2     1  UNL1        0.2400
     11 O         -10.2960    9.8020   67.9030 O.2     1  UNL1       -0.2710
     12 H          -9.4500   10.6060   70.8340 H       1  UNL1        0.1630
     13 C          -8.0660   10.3950   68.4670 C.3     1  UNL1        0.0860
     14 H          -7.9060   10.9660   67.5530 H       1  UNL1        0.0860
     15 N          -7.4990   11.1770   69.5520 N.am    1  UNL1       -0.3430
     16 C          -6.3640   12.0640   69.2850 C.2     1  UNL1        0.2730
     17 O          -5.9140   12.1390   68.1950 O.2     1  UNL1       -0.2660
     18 H          -7.8880   11.1060   70.4810 H       1  UNL1        0.1630
     19 C          -5.7550   12.8990   70.4220 C.ar    1  UNL1        0.1540
     20 C          -4.7330   12.4960   71.3380 C.ar    1  UNL1       -0.0170
     21 C          -4.5330   13.6160   72.1760 C.ar    1  UNL1        0.0770
     22 H          -4.2140   11.5390   71.3880 H       1  UNL1        0.0910
     23 O          -5.3500   14.5480   71.7780 O.2     1  UNL1       -0.2180
     24 N          -6.0740   14.1530   70.7560 N.ar    1  UNL1       -0.1230
     25 C          -3.5450   13.7150   73.3300 C.3     1  UNL1       -0.0290
     26 H          -4.0850   13.6740   74.2770 H       1  UNL1        0.0360
     27 H          -2.8420   12.8830   73.2780 H       1  UNL1        0.0360
     28 H          -2.9990   14.6560   73.2630 H       1  UNL1        0.0360
     29 C          -7.3450    9.0760   68.3490 C.3     1  UNL1       -0.0490
     30 H          -6.3870    9.1380   68.8660 H       1  UNL1        0.0300
     31 H          -7.9500    8.2890   68.7980 H       1  UNL1        0.0300
     32 H          -7.1740    8.8490   67.2970 H       1  UNL1        0.0300
     33 C         -11.6280    9.2100   71.6750 C.3     1  UNL1       -0.0330
     34 H         -11.9510    9.8680   72.4820 H       1  UNL1        0.0420
     35 C         -12.7150    8.1020   71.5100 C.3     1  UNL1       -0.0710
     36 H         -12.2430    7.1210   71.5550 H       1  UNL1        0.0280
     37 H         -13.4470    8.1900   72.3130 H       1  UNL1        0.0280
     38 H         -13.2130    8.2230   70.5480 H       1  UNL1        0.0280
     39 C         -10.2490    8.5960   72.0750 C.3     1  UNL1       -0.0710
     40 H          -9.6880    8.3450   71.1750 H       1  UNL1        0.0280
     41 H          -9.6850    9.3200   72.6640 H       1  UNL1        0.0280
     42 H         -10.4110    7.6940   72.6650 H       1  UNL1        0.0280
     43 C         -11.8540   14.8890   69.0200 C.2     1  UNL1        0.2400
     44 O         -12.0320   16.0580   69.1360 O.2     1  UNL1       -0.2710
     45 N         -11.1850   14.3580   67.7980 N.am    1  UNL1       -0.3550
     46 H         -11.0250   13.3670   67.6910 H       1  UNL1        0.1620
     47 C         -10.7540   15.2910   66.7350 C.3     1  UNL1        0.0130
     48 H         -11.2290   16.2540   66.9210 H       1  UNL1        0.0720
     49 C         -11.1880   14.7520   65.3910 C.3     1  UNL1       -0.0380
     50 H         -12.1500   15.2210   65.1810 H       1  UNL1        0.0360
     51 H         -10.3440   14.9160   64.7210 H       1  UNL1        0.0360
     52 C         -11.4400   13.2280   65.4090 C.3     1  UNL1        0.0180
     53 H         -10.5000   12.7770   65.7280 H       1  UNL1        0.0480
     54 H         -12.3430   13.0850   66.0040 H       1  UNL1        0.0480
     55 C         -11.7510   12.6280   64.0090 C.2     1  UNL1        0.2590
     56 O         -12.2870   13.2850   63.1770 O.2     1  UNL1       -0.2650
     57 O         -11.3980   11.2770   63.7370 O.3     1  UNL1       -0.3170
     58 C         -10.2400   10.8240   64.4440 C.3     1  UNL1        0.0520
     59 H          -9.8280   11.7070   64.9320 H       1  UNL1        0.0820
     60 H         -10.5730    9.9760   65.0420 H       1  UNL1        0.0820
     61 C          -9.2110   10.3140   63.4000 C.ar    1  UNL1       -0.0340
     62 C          -8.7640   11.1620   62.3910 C.ar    1  UNL1       -0.0750
     63 C          -7.8400   10.7050   61.4530 C.ar    1  UNL1       -0.0820
     64 H          -9.1370   12.1850   62.3360 H       1  UNL1        0.0840
     65 C          -7.3640    9.3920   61.5240 C.ar    1  UNL1       -0.0830
     66 H          -7.4900   11.3720   60.6650 H       1  UNL1        0.0830
     67 C          -7.8150    8.5490   62.5310 C.ar    1  UNL1       -0.0820
     68 H          -6.6410    9.0270   60.7960 H       1  UNL1        0.0830
     69 C          -8.7370    9.0030   63.4720 C.ar    1  UNL1       -0.0750
     70 H          -7.4440    7.5250   62.5820 H       1  UNL1        0.0830
     71 H          -9.0860    8.3350   64.2600 H       1  UNL1        0.0840
     72 C          -9.2340   15.4350   66.7600 C.3     1  UNL1       -0.0390
     73 H          -8.8650   14.5310   67.2460 H       1  UNL1        0.0360
     74 H          -8.9460   15.6560   65.7320 H       1  UNL1        0.0360
     75 C          -8.7710   16.6780   67.6580 C.3     1  UNL1       -0.0010
     76 C          -7.5970   17.5260   66.8780 C.3     1  UNL1       -0.0350
     77 C          -6.5470   17.6900   67.7180 C.3     1  UNL1        0.0850
     78 H          -7.1820   16.9290   66.0660 H       1  UNL1        0.0360
     79 H          -7.9350   18.5450   66.6900 H       1  UNL1        0.0360
     80 N          -6.7620   16.7550   68.8830 N.4     1  UNL1       -0.0490
     81 H          -5.6710   17.3640   67.1570 H       1  UNL1        0.0750
     82 H          -6.6160   18.7190   68.0720 H       1  UNL1        0.0750
     83 C          -8.3040   16.2840   68.7960 C.3     1  UNL1        0.1930
     84 H          -6.1720   15.9520   68.7190 H       1  UNL1        0.2800
     85 H          -6.6420   17.3070   69.7200 H       1  UNL1        0.2800
     86 H          -9.0500   16.7030   69.4710 H       1  UNL1        0.1290
     87 H          -9.6170   17.2450   68.0460 H       1  UNL1        0.0460
     88 O          -8.3970   14.8680   68.9560 O.3     1  UNL1       -0.3690
     89 H          -7.6060   14.4540   68.6040 H       1  UNL1        0.2120
     90 C         -11.9220   14.4930   71.5020 C.3     1  UNL1       -0.0350
     91 H         -11.2250   13.7710   71.9300 H       1  UNL1        0.0370
     92 H         -11.5950   15.5130   71.3010 H       1  UNL1        0.0370
     93 C         -13.1150   14.6020   72.5040 C.3     1  UNL1       -0.0590
     94 H         -13.2490   13.6240   72.9660 H       1  UNL1        0.0380
     95 C         -12.8350   15.6330   73.6440 C.3     1  UNL1       -0.0730
     96 H         -12.6010   16.6030   73.2060 H       1  UNL1        0.0280
     97 H         -13.7180   15.7240   74.2770 H       1  UNL1        0.0280
     98 H         -11.9910   15.2920   74.2430 H       1  UNL1        0.0280
     99 C         -14.4160   14.9400   71.7710 C.3     1  UNL1       -0.0730
    100 H         -15.0320   15.5820   72.4010 H       1  UNL1        0.0280
    101 H         -14.1840   15.4580   70.8400 H       1  UNL1        0.0280
    102 H         -14.9570   14.0210   71.5490 H       1  UNL1        0.0280
@<TRIPOS>BOND
     1    66    63    1
     2    68    65    1
     3    63    65   ar
     4    63    62   ar
     5    65    67   ar
     6    64    62    1
     7    62    61   ar
     8    67    70    1
     9    67    69   ar
    10    56    55    2
    11    61    69   ar
    12    61    58    1
    13    69    71    1
    14    57    55    1
    15    57    58    1
    16    55    52    1
    17    58    59    1
    18    58    60    1
    19    51    49    1
    20    50    49    1
    21    49    52    1
    22    49    47    1
    23    52    53    1
    24    52    54    1
    25    74    72    1
    26    78    76    1
    27    79    76    1
    28    47    72    1
    29    47    48    1
    30    47    45    1
    31    72    73    1
    32    72    75    1
    33    76    75    1
    34    76    77    1
    35    81    77    1
    36    32    29    1
    37    14    13    1
    38    75    87    1
    39    75    83    1
    40    46    45    1
    41    77    82    1
    42    77    80    1
    43    45    43   am
    44    11    10    2
    45    17    16    2
    46    29    13    1
    47    29    31    1
    48    29    30    1
    49    13    10    1
    50    13    15    1
    51    89    88    1
    52    84    80    1
    53    10     9   am
    54    83    80    1
    55    83    88    1
    56    83    86    1
    57    80    85    1
    58    43    44    2
    59    43     1    1
    60    16    15   am
    61    16    19    1
    62     6     3    1
    63     8     7    1
    64    15    18    1
    65     3     1    1
    66     3     4   am
    67     9     7    1
    68     9    12    1
    69     2     1    1
    70     1    90    1
    71     7     4    1
    72     7    33    1
    73    19    24   ar
    74    19    20   ar
    75    38    35    1
    76     4     5    2
    77    24    23   ar
    78   101    99    1
    79    40    39    1
    80    92    90    1
    81    20    22    1
    82    20    21   ar
    83    90    91    1
    84    90    93    1
    85    35    36    1
    86    35    33    1
    87    35    37    1
    88   102    99    1
    89    33    39    1
    90    33    34    1
    91    99   100    1
    92    99    93    1
    93    23    21   ar
    94    39    41    1
    95    39    42    1
    96    21    25    1
    97    93    94    1
    98    93    95    1
    99    96    95    1
   100    28    25    1
   101    27    25    1
   102    25    26    1
   103    95    98    1
   104    95    97    1
@<TRIPOS>MOLECULE
crystal_redock_e24_er3_1.pdbqt
 102 104 0 0 0
SMALL
GASTEIGER

@<TRIPOS>ATOM
      1 C         -10.4290   10.8390   68.7760 C.3     1  UNL1        0.0890
      2 H          -9.5060   10.7350   69.3480 H       1  UNL1        0.0870
      3 N         -11.1460    9.5760   68.8670 N.am    1  UNL1       -0.3460
      4 C         -10.7870    8.5720   69.9340 C.2     1  UNL1        0.2410
      5 O          -9.9160    8.8020   70.7060 O.2     1  UNL1       -0.2710
      6 H         -11.8820    9.3980   68.1990 H       1  UNL1        0.1630
      7 C         -11.5440    7.2720   70.0170 C.3     1  UNL1        0.0920
      8 H         -12.4080    7.3170   69.3540 H       1  UNL1        0.0880
      9 N         -10.6900    6.1780   69.5430 N.am    1  UNL1       -0.3460
     10 C         -10.5990    5.8950   68.1320 C.2     1  UNL1        0.2400
     11 O         -11.2080    6.5350   67.3640 O.2     1  UNL1       -0.2710
     12 H         -10.1610    5.6160   70.1940 H       1  UNL1        0.1630
     13 C          -9.6920    4.7270   67.6340 C.3     1  UNL1        0.0860
     14 H         -10.1810    4.1010   66.8880 H       1  UNL1        0.0860
     15 N          -8.5110    5.2870   66.9970 N.am    1  UNL1       -0.3430
     16 C          -8.3950    5.2540   65.5380 C.2     1  UNL1        0.2730
     17 O          -9.2550    4.7730   64.8850 O.2     1  UNL1       -0.2660
     18 H          -7.7790    5.6940   67.5630 H       1  UNL1        0.1630
     19 C          -7.1530    5.8440   64.8510 C.ar    1  UNL1        0.1540
     20 C          -7.0920    7.0160   64.0320 C.ar    1  UNL1       -0.0170
     21 C          -5.7360    7.1230   63.6520 C.ar    1  UNL1        0.0770
     22 H          -7.9070    7.6850   63.7560 H       1  UNL1        0.0910
     23 O          -5.1010    6.1260   64.1950 O.2     1  UNL1       -0.2180
     24 N          -5.9060    5.3660   64.9000 N.ar    1  UNL1       -0.1230
     25 C          -5.1300    8.2070   62.7690 C.3     1  UNL1       -0.0290
     26 H          -5.4410    8.0510   61.7360 H       1  UNL1        0.0360
     27 H          -5.4720    9.1840   63.1080 H       1  UNL1        0.0360
     28 H          -4.0420    8.1610   62.8320 H       1  UNL1        0.0360
     29 C          -9.2880    3.8660   68.8040 C.3     1  UNL1       -0.0490
     30 H          -9.0490    4.5010   69.6570 H       1  UNL1        0.0300
     31 H         -10.1110    3.2010   69.0660 H       1  UNL1        0.0300
     32 H          -8.4130    3.2750   68.5350 H       1  UNL1        0.0300
     33 C         -11.9530    7.0040   71.4950 C.3     1  UNL1       -0.0330
     34 H         -11.5850    7.8360   72.0940 H       1  UNL1        0.0420
     35 C         -13.5050    6.9600   71.6560 C.3     1  UNL1       -0.0710
     36 H         -13.8400    7.8530   72.1850 H       1  UNL1        0.0280
     37 H         -13.9710    6.9250   70.6720 H       1  UNL1        0.0280
     38 H         -13.7860    6.0740   72.2240 H       1  UNL1        0.0280
     39 C         -11.2910    5.6930   72.0300 C.3     1  UNL1       -0.0710
     40 H         -11.3190    4.9290   71.2530 H       1  UNL1        0.0280
     41 H         -10.2550    5.8950   72.3040 H       1  UNL1        0.0280
     42 H         -11.8370    5.3420   72.9050 H       1  UNL1        0.0280
     43 C         -11.3420   11.9680   69.3350 C.2     1  UNL1        0.2400
     44 O         -12.3510   11.6880   69.8970 O.2     1  UNL1       -0.2710
     45 N         -10.9530   13.3980   69.1760 N.am    1  UNL1       -0.3550
     46 H         -10.0960   13.6480   68.7040 H       1  UNL1        0.1620
     47 C         -11.8310   14.4600   69.7140 C.3     1  UNL1        0.0130
     48 H         -12.8570   14.0910   69.6920 H       1  UNL1        0.0720
     49 C         -11.7090   15.6950   68.8500 C.3     1  UNL1       -0.0380
     50 H         -12.0290   15.3910   67.8540 H       1  UNL1        0.0360
     51 H         -12.2480   16.4800   69.3810 H       1  UNL1        0.0360
     52 C         -10.2510   16.1850   68.7090 C.3     1  UNL1        0.0180
     53 H         -10.1150   16.9350   69.4900 H       1  UNL1        0.0480
     54 H          -9.6360   15.2850   68.7050 H       1  UNL1        0.0480
     55 C          -9.9610   16.9090   67.3650 C.2     1  UNL1        0.2590
     56 O          -9.4330   17.9730   67.3550 O.2     1  UNL1       -0.2650
     57 O         -10.3460   16.2900   66.1440 O.3     1  UNL1       -0.3170
     58 C          -9.5690   15.1380   65.8040 C.3     1  UNL1        0.0520
     59 H          -8.8940   15.4610   65.0110 H       1  UNL1        0.0820
     60 H          -9.1660   14.7660   66.7460 H       1  UNL1        0.0820
     61 C         -10.5300   14.0660   65.2250 C.ar    1  UNL1       -0.0340
     62 C         -10.0710   13.1590   64.2750 C.ar    1  UNL1       -0.0750
     63 C         -10.9340   12.1960   63.7550 C.ar    1  UNL1       -0.0820
     64 H          -9.0350   13.2020   63.9390 H       1  UNL1        0.0840
     65 C         -12.2630   12.1430   64.1860 C.ar    1  UNL1       -0.0830
     66 H         -10.5710   11.4850   63.0120 H       1  UNL1        0.0830
     67 C         -12.7170   13.0520   65.1310 C.ar    1  UNL1       -0.0820
     68 H         -12.9440   11.3930   63.7840 H       1  UNL1        0.0830
     69 C         -11.8570   14.0150   65.6560 C.ar    1  UNL1       -0.0750
     70 H         -13.7550   13.0100   65.4640 H       1  UNL1        0.0830
     71 H         -12.2220   14.7250   66.3990 H       1  UNL1        0.0840
     72 C         -11.4190   14.7960   71.1450 C.3     1  UNL1       -0.0390
     73 H         -10.6110   14.1030   71.3840 H       1  UNL1        0.0360
     74 H         -11.2340   15.8700   71.1500 H       1  UNL1        0.0360
     75 C         -12.6050   14.5160   72.1850 C.3     1  UNL1       -0.0010
     76 C         -14.0020   14.2140   71.3730 C.3     1  UNL1       -0.0350
     77 C         -14.9760   15.0150   71.8670 C.3     1  UNL1        0.0850
     78 H         -13.9090   14.5370   70.3360 H       1  UNL1        0.0360
     79 H         -14.3580   13.2090   71.6010 H       1  UNL1        0.0360
     80 N         -14.2980   16.0630   72.7160 N.4     1  UNL1       -0.0490
     81 H         -15.4260   15.4970   70.9990 H       1  UNL1        0.0750
     82 H         -15.5810   14.3750   72.5100 H       1  UNL1        0.0750
     83 C         -12.7940   15.5290   72.9630 C.3     1  UNL1        0.1930
     84 H         -14.2530   16.9010   72.1540 H       1  UNL1        0.2800
     85 H         -14.7840   16.0740   73.6010 H       1  UNL1        0.2800
     86 H         -12.5100   15.0980   73.9230 H       1  UNL1        0.1290
     87 H         -12.3170   13.8030   72.9580 H       1  UNL1        0.0460
     88 O         -11.8530   16.5770   72.7210 O.3     1  UNL1       -0.3690
     89 H         -11.0300   16.2000   72.4040 H       1  UNL1        0.2120
     90 C         -10.1020   11.1200   67.3180 C.3     1  UNL1       -0.0350
     91 H         -11.0390   10.9730   66.7790 H       1  UNL1        0.0370
     92 H          -9.6190   12.0970   67.3140 H       1  UNL1        0.0370
     93 C          -9.0760   10.1170   66.7020 C.3     1  UNL1       -0.0590
     94 H          -8.7530    9.4440   67.4960 H       1  UNL1        0.0380
     95 C          -9.7100    9.2470   65.5690 C.3     1  UNL1       -0.0730
     96 H          -9.4470    8.2010   65.7240 H       1  UNL1        0.0280
     97 H         -10.7950    9.3570   65.5900 H       1  UNL1        0.0280
     98 H          -9.3310    9.5790   64.6020 H       1  UNL1        0.0280
     99 C          -7.8320   10.8500   66.1940 C.3     1  UNL1       -0.0730
    100 H          -7.9570   11.0900   65.1370 H       1  UNL1        0.0280
    101 H          -7.6960   11.7710   66.7620 H       1  UNL1        0.0280
    102 H          -6.9570   10.2130   66.3210 H       1  UNL1        0.0280
@<TRIPOS>BOND
     1    26    25    1
     2    25    28    1
     3    25    27    1
     4    25    21    1
     5    66    63    1
     6    21    20   ar
     7    21    23   ar
     8    63    65   ar
     9    63    62   ar
    10    22    20    1
    11    68    65    1
    12    64    62    1
    13    20    19   ar
    14    65    67   ar
    15    23    24   ar
    16    62    61   ar
    17    98    95    1
    18    19    24   ar
    19    19    16    1
    20    17    16    2
    21    59    58    1
    22    67    70    1
    23    67    69   ar
    24   100    99    1
    25    61    69   ar
    26    61    58    1
    27    16    15   am
    28    95    97    1
    29    95    96    1
    30    95    93    1
    31    69    71    1
    32    58    57    1
    33    58    60    1
    34    57    55    1
    35    99   102    1
    36    99    93    1
    37    99   101    1
    38    93    90    1
    39    93    94    1
    40    91    90    1
    41    14    13    1
    42    15    18    1
    43    15    13    1
    44    92    90    1
    45    90     1    1
    46    56    55    2
    47    11    10    2
    48    55    52    1
    49    13    10    1
    50    13    29    1
    51    50    49    1
    52    10     9   am
    53     6     3    1
    54    32    29    1
    55    46    45    1
    56    54    52    1
    57    52    49    1
    58    52    53    1
    59     1     3    1
    60     1    43    1
    61     1     2    1
    62    29    31    1
    63    29    30    1
    64    49    51    1
    65    49    47    1
    66     3     4   am
    67    45    43   am
    68    45    47    1
    69    43    44    2
    70     8     7    1
    71     9     7    1
    72     9    12    1
    73    48    47    1
    74    47    72    1
    75     4     7    1
    76     4     5    2
    77     7    33    1
    78    78    76    1
    79    37    35    1
    80    81    77    1
    81    72    74    1
    82    72    73    1
    83    72    75    1
    84    40    39    1
    85    76    79    1
    86    76    77    1
    87    76    75    1
    88    33    35    1
    89    33    39    1
    90    33    34    1
    91    35    36    1
    92    35    38    1
    93    77    82    1
    94    77    80    1
    95    39    41    1
    96    39    42    1
    97    84    80    1
    98    75    87    1
    99    75    83    1
   100    89    88    1
   101    80    83    1
   102    80    85    1
   103    88    83    1
   104    83    86    1
@<TRIPOS>MOLECULE
crystal_redock_e24_er3_1.pdbqt
 102 104 0 0 0
SMALL
GASTEIGER

@<TRIPOS>ATOM
      1 C          -8.2490    8.3560   62.8720 C.3     1  UNL1        0.0890
      2 H          -8.7130    8.3280   61.8860 H       1  UNL1        0.0870
      3 N          -9.1580    9.0600   63.7640 N.am    1  UNL1       -0.3460
      4 C          -9.6020   10.4650   63.4450 C.2     1  UNL1        0.2410
      5 O          -9.2120   11.0100   62.4650 O.2     1  UNL1       -0.2710
      6 H          -9.4760    8.5800   64.5940 H       1  UNL1        0.1630
      7 C         -10.5470   11.1770   64.3770 C.3     1  UNL1        0.0920
      8 H         -11.2510   10.4560   64.7920 H       1  UNL1        0.0880
      9 N          -9.7940   11.7440   65.4990 N.am    1  UNL1       -0.3460
     10 C          -9.8200   11.0930   66.7860 C.2     1  UNL1        0.2400
     11 O         -10.4430   10.1130   66.9360 O.2     1  UNL1       -0.2710
     12 H          -9.2530   12.5890   65.3860 H       1  UNL1        0.1630
     13 C          -9.0180   11.7020   67.9780 C.3     1  UNL1        0.0860
     14 H          -8.2730   12.4300   67.6570 H       1  UNL1        0.0860
     15 N          -9.9380   12.4080   68.8530 N.am    1  UNL1       -0.3430
     16 C         -10.3460   13.7750   68.5200 C.2     1  UNL1        0.2730
     17 O          -9.9260   14.2980   67.5460 O.2     1  UNL1       -0.2660
     18 H         -10.2910   11.9540   69.6840 H       1  UNL1        0.1630
     19 C         -11.3200   14.5330   69.4350 C.ar    1  UNL1        0.1540
     20 C         -12.2260   13.9690   70.3890 C.ar    1  UNL1       -0.0170
     21 C         -12.8860   15.0790   70.9630 C.ar    1  UNL1        0.0770
     22 H         -12.3800   12.9170   70.6290 H       1  UNL1        0.0910
     23 O         -12.4080   16.1490   70.3980 O.2     1  UNL1       -0.2180
     24 N         -11.4930   15.8560   69.5030 N.ar    1  UNL1       -0.1230
     25 C         -13.9590   15.0300   72.0420 C.3     1  UNL1       -0.0290
     26 H         -13.7120   14.2530   72.7660 H       1  UNL1        0.0360
     27 H         -14.0090   15.9940   72.5480 H       1  UNL1        0.0360
     28 H         -14.9250   14.8090   71.5870 H       1  UNL1        0.0360
     29 C          -8.3260   10.5990   68.7380 C.3     1  UNL1       -0.0490
     30 H          -8.9700    9.7200   68.7700 H       1  UNL1        0.0300
     31 H          -7.3900   10.3460   68.2400 H       1  UNL1        0.0300
     32 H          -8.1180   10.9330   69.7540 H       1  UNL1        0.0300
     33 C         -11.2680   12.3230   63.6080 C.3     1  UNL1       -0.0330
     34 H         -10.7150   12.4980   62.6850 H       1  UNL1        0.0420
     35 C         -12.7220   11.9170   63.2150 C.3     1  UNL1       -0.0710
     36 H         -13.1310   12.6550   62.5230 H       1  UNL1        0.0280
     37 H         -12.7090   10.9390   62.7350 H       1  UNL1        0.0280
     38 H         -13.3420   11.8760   64.1100 H       1  UNL1        0.0280
     39 C         -11.2540   13.6480   64.4380 C.3     1  UNL1       -0.0710
     40 H         -11.2770   14.5010   63.7600 H       1  UNL1        0.0280
     41 H         -12.1280   13.6770   65.0890 H       1  UNL1        0.0280
     42 H         -10.3480   13.6880   65.0420 H       1  UNL1        0.0280
     43 C          -7.9990    6.9310   63.4430 C.2     1  UNL1        0.2400
     44 O          -7.3890    6.1360   62.8040 O.2     1  UNL1       -0.2710
     45 N          -8.5120    6.5600   64.7930 N.am    1  UNL1       -0.3550
     46 H          -9.0280    7.2280   65.3470 H       1  UNL1        0.1620
     47 C          -8.2650    5.2010   65.3220 C.3     1  UNL1        0.0130
     48 H          -7.9470    4.5700   64.4930 H       1  UNL1        0.0720
     49 C          -9.5420    4.6590   65.9240 C.3     1  UNL1       -0.0380
     50 H         -10.1550    4.3440   65.0790 H       1  UNL1        0.0360
     51 H          -9.2290    3.9310   66.6720 H       1  UNL1        0.0360
     52 C         -10.3550    5.7360   66.6750 C.3     1  UNL1        0.0180
     53 H          -9.7820    6.6590   66.5790 H       1  UNL1        0.0480
     54 H         -11.3660    5.6780   66.2710 H       1  UNL1        0.0480
     55 C         -10.4870    5.4700   68.2000 C.2     1  UNL1        0.2590
     56 O          -9.8000    4.6600   68.7330 O.2     1  UNL1       -0.2650
     57 O         -11.4500    6.1970   68.9540 O.3     1  UNL1       -0.3170
     58 C         -11.1090    6.3580   70.3330 C.3     1  UNL1        0.0520
     59 H         -11.5950    5.5350   70.8560 H       1  UNL1        0.0820
     60 H         -10.0230    6.4550   70.3600 H       1  UNL1        0.0820
     61 C         -11.7320    7.6910   70.8280 C.ar    1  UNL1       -0.0340
     62 C         -12.8090    7.6720   71.7090 C.ar    1  UNL1       -0.0750
     63 C         -13.3690    8.8680   72.1530 C.ar    1  UNL1       -0.0820
     64 H         -13.2140    6.7190   72.0500 H       1  UNL1        0.0840
     65 C         -12.8490   10.0880   71.7120 C.ar    1  UNL1       -0.0830
     66 H         -14.2110    8.8500   72.8450 H       1  UNL1        0.0830
     67 C         -11.7760   10.1020   70.8310 C.ar    1  UNL1       -0.0820
     68 H         -13.2800   11.0280   72.0550 H       1  UNL1        0.0830
     69 C         -11.2120    8.9090   70.3860 C.ar    1  UNL1       -0.0750
     70 H         -11.3740   11.0560   70.4870 H       1  UNL1        0.0830
     71 H         -10.3690    8.9280   69.6950 H       1  UNL1        0.0840
     72 C          -7.1790    5.2550   66.3950 C.3     1  UNL1       -0.0390
     73 H          -7.1940    6.2780   66.7720 H       1  UNL1        0.0360
     74 H          -7.3940    4.4240   67.0670 H       1  UNL1        0.0360
     75 C          -5.7230    5.0000   65.7770 C.3     1  UNL1       -0.0010
     76 C          -5.1450    3.5470   66.2870 C.3     1  UNL1       -0.0350
     77 C          -3.9040    3.7260   66.7990 C.3     1  UNL1        0.0850
     78 H          -5.7240    3.1930   67.1400 H       1  UNL1        0.0360
     79 H          -4.9760    2.8910   65.4330 H       1  UNL1        0.0360
     80 N          -3.7140    5.2120   66.9850 N.4     1  UNL1       -0.0490
     81 H          -3.9200    3.2450   67.7770 H       1  UNL1        0.0750
     82 H          -3.2180    3.3740   66.0290 H       1  UNL1        0.0750
     83 C          -4.8930    5.9200   66.1400 C.3     1  UNL1        0.1930
     84 H          -3.8630    5.3990   67.9660 H       1  UNL1        0.2800
     85 H          -2.8290    5.4430   66.5560 H       1  UNL1        0.2800
     86 H          -4.6820    6.3870   65.1780 H       1  UNL1        0.1290
     87 H          -5.6880    5.1990   64.7060 H       1  UNL1        0.0460
     88 O          -5.5230    6.9330   66.9270 O.3     1  UNL1       -0.3690
     89 H          -6.2230    6.5410   67.4530 H       1  UNL1        0.2120
     90 C          -6.9340    9.1160   62.8010 C.3     1  UNL1       -0.0350
     91 H          -6.4440    8.7610   61.8950 H       1  UNL1        0.0370
     92 H          -7.2040   10.1680   62.8980 H       1  UNL1        0.0370
     93 C          -5.9630    8.7990   63.9820 C.3     1  UNL1       -0.0590
     94 H          -6.3610    7.9360   64.5150 H       1  UNL1        0.0380
     95 C          -4.5290    8.4320   63.4830 C.3     1  UNL1       -0.0730
     96 H          -4.5400    8.3160   62.4000 H       1  UNL1        0.0280
     97 H          -3.8340    9.2260   63.7570 H       1  UNL1        0.0280
     98 H          -4.2120    7.4970   63.9460 H       1  UNL1        0.0280
     99 C          -5.9120    9.9630   64.9760 C.3     1  UNL1       -0.0730
    100 H          -4.8980   10.3620   65.0170 H       1  UNL1        0.0280
    101 H          -6.5980   10.7460   64.6530 H       1  UNL1        0.0280
    102 H          -6.2040    9.6090   65.9650 H       1  UNL1        0.0280
@<TRIPOS>BOND
     1     2     1    1
     2    91    90    1
     3    96    95    1
     4     5     4    2
     5    36    35    1
     6    34    33    1
     7    37    35    1
     8    90     1    1
     9    90    92    1
    10    90    93    1
    11    44    43    2
    12     1    43    1
    13     1     3    1
    14    35    33    1
    15    35    38    1
    16    43    45   am
    17     4     3   am
    18     4     7    1
    19    95    97    1
    20    95    98    1
    21    95    93    1
    22    33     7    1
    23    33    39    1
    24    40    39    1
    25     3     6    1
    26    93    94    1
    27    93    99    1
    28     7     8    1
    29     7     9    1
    30    39    42    1
    31    39    41    1
    32    48    47    1
    33   101    99    1
    34    87    75    1
    35    45    47    1
    36    45    46    1
    37    99   100    1
    38    99   102    1
    39    50    49    1
    40    86    83    1
    41    47    49    1
    42    47    72    1
    43    12     9    1
    44    79    76    1
    45     9    10   am
    46    75    83    1
    47    75    76    1
    48    75    72    1
    49    49    51    1
    50    49    52    1
    51    82    77    1
    52    83    88    1
    53    83    80    1
    54    54    52    1
    55    76    77    1
    56    76    78    1
    57    72    73    1
    58    72    74    1
    59    85    80    1
    60    53    52    1
    61    52    55    1
    62    10    11    2
    63    10    13    1
    64    77    80    1
    65    77    81    1
    66    88    89    1
    67    80    84    1
    68    17    16    2
    69    14    13    1
    70    13    29    1
    71    13    15    1
    72    55    56    2
    73    55    57    1
    74    31    29    1
    75    16    15   am
    76    16    19    1
    77    29    30    1
    78    29    32    1
    79    15    18    1
    80    57    58    1
    81    19    24   ar
    82    19    20   ar
    83    24    23   ar
    84    71    69    1
    85    58    60    1
    86    58    61    1
    87    58    59    1
    88    69    61   ar
    89    69    67   ar
    90    20    22    1
    91    20    21   ar
    92    23    21   ar
    93    70    67    1
    94    61    62   ar
    95    67    65   ar
    96    21    25    1
    97    28    25    1
    98    62    64    1
    99    62    63   ar
   100    65    68    1
   101    65    63   ar
   102    25    27    1
   103    25    26    1
   104    63    66    1
@<TRIPOS>MOLECULE
crystal_redock_e24_er3_1.pdbqt
 102 104 0 0 0
SMALL
GASTEIGER

@<TRIPOS>ATOM
      1 C         -11.7360   14.9580   70.1280 C.3     1  UNL1        0.0890
      2 H         -12.7710   14.8840   69.7920 H       1  UNL1        0.0870
      3 N         -11.2020   13.6060   70.2030 N.am    1  UNL1       -0.3460
      4 C         -11.4660   12.6200   69.0920 C.2     1  UNL1        0.2410
      5 O         -12.1130   12.9370   68.1500 O.2     1  UNL1       -0.2710
      6 H         -10.6550   13.3550   71.0150 H       1  UNL1        0.1630
      7 C         -10.9000   11.2270   69.1830 C.3     1  UNL1        0.0920
      8 H         -10.0700   11.2230   69.8900 H       1  UNL1        0.0880
      9 N         -11.9220   10.3180   69.7090 N.am    1  UNL1       -0.3460
     10 C         -11.6370    9.5030   70.8650 C.2     1  UNL1        0.2400
     11 O         -10.5890    9.5660   71.3830 O.2     1  UNL1       -0.2710
     12 H         -12.8300   10.2510   69.2720 H       1  UNL1        0.1630
     13 C         -12.7280    8.5350   71.4180 C.3     1  UNL1        0.0860
     14 H         -13.2760    8.0220   70.6280 H       1  UNL1        0.0860
     15 N         -12.0830    7.5030   72.2140 N.am    1  UNL1       -0.3430
     16 C         -11.5440    6.3130   71.5520 C.2     1  UNL1        0.2730
     17 O         -11.6360    6.1940   70.3790 O.2     1  UNL1       -0.2660
     18 H         -12.0110    7.6120   73.2150 H       1  UNL1        0.1630
     19 C         -10.8580    5.2160   72.3800 C.ar    1  UNL1        0.1540
     20 C         -10.8520    5.0850   73.8050 C.ar    1  UNL1       -0.0170
     21 C         -10.0910    3.9220   74.0610 C.ar    1  UNL1        0.0770
     22 H         -11.3270    5.7340   74.5420 H       1  UNL1        0.0910
     23 O          -9.7110    3.4480   72.9100 O.2     1  UNL1       -0.2180
     24 N         -10.1460    4.1860   71.9150 N.ar    1  UNL1       -0.1230
     25 C          -9.7760    3.3340   75.4290 C.3     1  UNL1       -0.0290
     26 H          -8.7220    3.4950   75.6610 H       1  UNL1        0.0360
     27 H         -10.3920    3.8200   76.1850 H       1  UNL1        0.0360
     28 H          -9.9870    2.2640   75.4220 H       1  UNL1        0.0360
     29 C         -13.7050    9.3070   72.2670 C.3     1  UNL1       -0.0490
     30 H         -13.7660    8.8520   73.2560 H       1  UNL1        0.0300
     31 H         -13.3680   10.3390   72.3610 H       1  UNL1        0.0300
     32 H         -14.6880    9.2870   71.7980 H       1  UNL1        0.0300
     33 C         -10.4650   10.7510   67.7670 C.3     1  UNL1       -0.0330
     34 H         -11.0260   11.3340   67.0370 H       1  UNL1        0.0420
     35 C          -8.9480   11.0210   67.5170 C.3     1  UNL1       -0.0710
     36 H          -8.3630   10.5830   68.3260 H       1  UNL1        0.0280
     37 H          -8.6510   10.5720   66.5700 H       1  UNL1        0.0280
     38 H          -8.7720   12.0960   67.4810 H       1  UNL1        0.0280
     39 C         -10.8140    9.2430   67.5520 C.3     1  UNL1       -0.0710
     40 H         -10.3300    8.8840   66.6440 H       1  UNL1        0.0280
     41 H         -10.4630    8.6630   68.4060 H       1  UNL1        0.0280
     42 H         -11.8940    9.1310   67.4560 H       1  UNL1        0.0280
     43 C         -10.8570   15.7840   69.1470 C.2     1  UNL1        0.2400
     44 O          -9.9250   16.3960   69.5590 O.2     1  UNL1       -0.2710
     45 N         -11.1730   15.8070   67.6900 N.am    1  UNL1       -0.3550
     46 H         -11.9590   15.2880   67.3270 H       1  UNL1        0.1620
     47 C         -10.3270   16.5960   66.7690 C.3     1  UNL1        0.0130
     48 H          -9.3310   16.6690   67.2070 H       1  UNL1        0.0720
     49 C         -10.9210   17.9770   66.6040 C.3     1  UNL1       -0.0380
     50 H         -11.4190   17.9700   65.6350 H       1  UNL1        0.0360
     51 H         -11.4960   18.1590   67.5120 H       1  UNL1        0.0360
     52 C          -9.8490   19.0870   66.5370 C.3     1  UNL1        0.0180
     53 H          -9.8720   19.4570   65.5120 H       1  UNL1        0.0480
     54 H         -10.0690   19.7610   67.3650 H       1  UNL1        0.0480
     55 C          -8.4010   18.5740   66.7750 C.2     1  UNL1        0.2590
     56 O          -7.6930   18.3200   65.8550 O.2     1  UNL1       -0.2650
     57 O          -7.9340   18.4000   68.1070 O.3     1  UNL1       -0.3170
     58 C          -7.6030   19.6220   68.7720 C.3     1  UNL1        0.0520
     59 H          -7.8270   20.4160   68.0600 H       1  UNL1        0.0820
     60 H          -8.1220   19.5860   69.7300 H       1  UNL1        0.0820
     61 C          -6.0740   19.6210   69.0420 C.ar    1  UNL1       -0.0340
     62 C          -5.4470   18.4640   69.4920 C.ar    1  UNL1       -0.0750
     63 C          -4.0740   18.4630   69.7340 C.ar    1  UNL1       -0.0820
     64 H          -6.0300   17.5580   69.6540 H       1  UNL1        0.0840
     65 C          -3.3280   19.6270   69.5280 C.ar    1  UNL1       -0.0830
     66 H          -3.5850   17.5540   70.0850 H       1  UNL1        0.0830
     67 C          -3.9600   20.7800   69.0820 C.ar    1  UNL1       -0.0820
     68 H          -2.2550   19.6350   69.7140 H       1  UNL1        0.0830
     69 C          -5.3310   20.7850   68.8360 C.ar    1  UNL1       -0.0750
     70 H          -3.3760   21.6870   68.9240 H       1  UNL1        0.0830
     71 H          -5.8200   21.6940   68.4850 H       1  UNL1        0.0840
     72 C         -10.2580   15.9050   65.4090 C.3     1  UNL1       -0.0390
     73 H         -10.5610   16.6610   64.6840 H       1  UNL1        0.0360
     74 H          -9.2620   15.4670   65.3560 H       1  UNL1        0.0360
     75 C         -11.3100   14.7010   65.3030 C.3     1  UNL1       -0.0010
     76 C         -10.5200   13.2940   64.9870 C.3     1  UNL1       -0.0350
     77 C         -11.1030   12.6960   63.9200 C.3     1  UNL1        0.0850
     78 H          -9.5080   13.5030   64.6410 H       1  UNL1        0.0360
     79 H         -10.6840   12.5830   65.7980 H       1  UNL1        0.0360
     80 N         -12.0060   13.7220   63.2780 N.4     1  UNL1       -0.0490
     81 H         -10.2860   12.4630   63.2350 H       1  UNL1        0.0750
     82 H         -11.7140   11.8940   64.3330 H       1  UNL1        0.0750
     83 C         -12.1660   14.9100   64.3590 C.3     1  UNL1        0.1930
     84 H         -11.5070   14.0810   62.4770 H       1  UNL1        0.2800
     85 H         -12.9040   13.2760   63.1560 H       1  UNL1        0.2800
     86 H         -13.0830   15.0090   64.9410 H       1  UNL1        0.1290
     87 H         -12.0180   14.6970   66.1310 H       1  UNL1        0.0460
     88 O         -11.9750   16.1780   63.7290 O.3     1  UNL1       -0.3690
     89 H         -11.0540   16.2740   63.4760 H       1  UNL1        0.2120
     90 C         -11.6880   15.5870   71.5110 C.3     1  UNL1       -0.0350
     91 H         -10.7290   15.2840   71.9330 H       1  UNL1        0.0370
     92 H         -11.9050   16.6440   71.3550 H       1  UNL1        0.0370
     93 C         -12.7870   15.0500   72.4830 C.3     1  UNL1       -0.0590
     94 H         -12.7810   13.9620   72.4190 H       1  UNL1        0.0380
     95 C         -12.5030   15.4420   73.9680 C.3     1  UNL1       -0.0730
     96 H         -12.7270   14.5950   74.6160 H       1  UNL1        0.0280
     97 H         -11.4530   15.7150   74.0770 H       1  UNL1        0.0280
     98 H         -13.1300   16.2890   74.2470 H       1  UNL1        0.0280
     99 C         -14.1770   15.5230   72.0510 C.3     1  UNL1       -0.0730
    100 H         -14.1200   16.5590   71.7150 H       1  UNL1        0.0280
    101 H         -14.5380   14.8950   71.2360 H       1  UNL1        0.0280
    102 H         -14.8630   15.4520   72.8950 H       1  UNL1        0.0280
@<TRIPOS>BOND
     1    84    80    1
     2    85    80    1
     3    81    77    1
     4    80    77    1
     5    80    83    1
     6    89    88    1
     7    88    83    1
     8    77    82    1
     9    77    76    1
    10    83    86    1
    11    83    75    1
    12    78    76    1
    13    73    72    1
    14    76    75    1
    15    76    79    1
    16    75    72    1
    17    75    87    1
    18    74    72    1
    19    72    47    1
    20    53    52    1
    21    50    49    1
    22    56    55    2
    23    52    49    1
    24    52    55    1
    25    52    54    1
    26    37    35    1
    27    49    47    1
    28    49    51    1
    29    40    39    1
    30    47    48    1
    31    47    45    1
    32    55    57    1
    33    34    33    1
    34    46    45    1
    35    42    39    1
    36    38    35    1
    37    35    33    1
    38    35    36    1
    39    39    33    1
    40    39    41    1
    41    45    43   am
    42    33     7    1
    43    59    58    1
    44    57    58    1
    45     5     4    2
    46    71    69    1
    47    58    61    1
    48    58    60    1
    49    69    61   ar
    50    69    67   ar
    51    70    67    1
    52    61    62   ar
    53    67    65   ar
    54     4     7    1
    55     4     3   am
    56    43    44    2
    57    43     1    1
    58     7     9    1
    59     7     8    1
    60    12     9    1
    61    62    64    1
    62    62    63   ar
    63    65    68    1
    64    65    63   ar
    65     9    10   am
    66    63    66    1
    67     2     1    1
    68     1     3    1
    69     1    90    1
    70     3     6    1
    71    17    16    2
    72    14    13    1
    73    10    11    2
    74    10    13    1
    75   101    99    1
    76    92    90    1
    77    13    15    1
    78    13    29    1
    79    90    91    1
    80    90    93    1
    81    16    15   am
    82    16    19    1
    83   100    99    1
    84    32    29    1
    85    24    19   ar
    86    24    23   ar
    87    99    93    1
    88    99   102    1
    89    15    18    1
    90    29    31    1
    91    29    30    1
    92    19    20   ar
    93    94    93    1
    94    93    95    1
    95    23    21   ar
    96    20    21   ar
    97    20    22    1
    98    95    97    1
    99    95    98    1
   100    95    96    1
   101    21    25    1
   102    28    25    1
   103    25    26    1
   104    25    27    1
@<TRIPOS>MOLECULE
crystal_redock_e24_er3_1.pdbqt
 102 104 0 0 0
SMALL
GASTEIGER

@<TRIPOS>ATOM
      1 C         -11.6710   12.9820   68.8620 C.3     1  UNL1        0.0890
      2 H         -12.7450   12.8810   68.7040 H       1  UNL1        0.0870
      3 N         -11.2450   11.8710   69.7000 N.am    1  UNL1       -0.3460
      4 C         -11.4180   10.4500   69.2270 C.2     1  UNL1        0.2410
      5 O         -11.9050   10.2250   68.1680 O.2     1  UNL1       -0.2710
      6 H         -10.8350   12.0830   70.5990 H       1  UNL1        0.1630
      7 C         -10.9670    9.3120   70.1050 C.3     1  UNL1        0.0920
      8 H         -11.2600    8.3680   69.6470 H       1  UNL1        0.0880
      9 N          -9.5030    9.3140   70.1940 N.am    1  UNL1       -0.3460
     10 C          -8.7270    8.4790   69.3110 C.2     1  UNL1        0.2400
     11 O          -9.2630    7.7980   68.5250 O.2     1  UNL1       -0.2710
     12 H          -9.0270    9.8950   70.8690 H       1  UNL1        0.1630
     13 C          -7.1700    8.4830   69.4130 C.3     1  UNL1        0.0860
     14 H          -6.7460    7.4790   69.4410 H       1  UNL1        0.0860
     15 N          -6.6220    9.1330   68.2350 N.am    1  UNL1       -0.3430
     16 C          -6.0420    8.3170   67.1650 C.2     1  UNL1        0.2730
     17 O          -6.0190    7.1400   67.2640 O.2     1  UNL1       -0.2660
     18 H          -6.6430   10.1400   68.1600 H       1  UNL1        0.1630
     19 C          -5.4610    8.9910   65.9120 C.ar    1  UNL1        0.1540
     20 C          -4.6920    8.3730   64.8760 C.ar    1  UNL1       -0.0170
     21 C          -4.4050    9.4140   63.9660 C.ar    1  UNL1        0.0770
     22 H          -4.3880    7.3290   64.7970 H       1  UNL1        0.0910
     23 O          -4.9510   10.4990   64.4330 O.2     1  UNL1       -0.2180
     24 N          -5.5720   10.2770   65.5680 N.ar    1  UNL1       -0.1230
     25 C          -3.6050    9.2890   62.6750 C.3     1  UNL1       -0.0290
     26 H          -4.0140    8.4800   62.0710 H       1  UNL1        0.0360
     27 H          -3.6650   10.2250   62.1190 H       1  UNL1        0.0360
     28 H          -2.5630    9.0750   62.9130 H       1  UNL1        0.0360
     29 C          -6.7470    9.2240   70.6560 C.3     1  UNL1       -0.0490
     30 H          -7.6250    9.6450   71.1450 H       1  UNL1        0.0300
     31 H          -6.2460    8.5360   71.3370 H       1  UNL1        0.0300
     32 H          -6.0640   10.0290   70.3840 H       1  UNL1        0.0300
     33 C         -11.5710    9.4850   71.5290 C.3     1  UNL1       -0.0330
     34 H         -11.1460   10.3930   71.9580 H       1  UNL1        0.0420
     35 C         -13.1190    9.6740   71.4710 C.3     1  UNL1       -0.0710
     36 H         -13.3620   10.4610   70.7560 H       1  UNL1        0.0280
     37 H         -13.5870    8.7410   71.1570 H       1  UNL1        0.0280
     38 H         -13.4880    9.9520   72.4570 H       1  UNL1        0.0280
     39 C         -11.1810    8.2860   72.4520 C.3     1  UNL1       -0.0710
     40 H         -11.1170    8.6280   73.4840 H       1  UNL1        0.0280
     41 H         -11.9380    7.5060   72.3740 H       1  UNL1        0.0280
     42 H         -10.2150    7.8880   72.1400 H       1  UNL1        0.0280
     43 C         -10.8730   12.9300   67.5280 C.2     1  UNL1        0.2400
     44 O          -9.7350   13.2710   67.5060 O.2     1  UNL1       -0.2710
     45 N         -11.5260   12.4460   66.2780 N.am    1  UNL1       -0.3550
     46 H         -12.4900   12.1480   66.2850 H       1  UNL1        0.1620
     47 C         -10.7530   12.4010   65.0180 C.3     1  UNL1        0.0130
     48 H          -9.7610   12.8040   65.2180 H       1  UNL1        0.0720
     49 C         -11.4520   13.2410   63.9730 C.3     1  UNL1       -0.0380
     50 H         -10.6570   13.7260   63.4050 H       1  UNL1        0.0360
     51 H         -12.1480   12.5690   63.4720 H       1  UNL1        0.0360
     52 C         -12.3030   14.3740   64.5870 C.3     1  UNL1        0.0180
     53 H         -13.0920   14.5770   63.8620 H       1  UNL1        0.0480
     54 H         -12.5600   14.0390   65.5920 H       1  UNL1        0.0480
     55 C         -11.5320   15.7110   64.7650 C.2     1  UNL1        0.2590
     56 O         -11.4760   16.4990   63.8770 O.2     1  UNL1       -0.2650
     57 O         -10.8790   15.9790   66.0010 O.3     1  UNL1       -0.3170
     58 C          -9.5060   16.3540   65.8640 C.3     1  UNL1        0.0520
     59 H          -8.9450   15.6520   66.4810 H       1  UNL1        0.0820
     60 H          -9.3190   16.4060   64.7920 H       1  UNL1        0.0820
     61 C          -9.3360   17.7770   66.4610 C.ar    1  UNL1       -0.0340
     62 C         -10.3240   18.7370   66.2650 C.ar    1  UNL1       -0.0750
     63 C         -10.1720   20.0150   66.8010 C.ar    1  UNL1       -0.0820
     64 H         -11.2170   18.4880   65.6920 H       1  UNL1        0.0840
     65 C          -9.0250   20.3320   67.5330 C.ar    1  UNL1       -0.0830
     66 H         -10.9490   20.7640   66.6480 H       1  UNL1        0.0830
     67 C          -8.0400   19.3720   67.7230 C.ar    1  UNL1       -0.0820
     68 H          -8.8980   21.3290   67.9560 H       1  UNL1        0.0830
     69 C          -8.1890   18.0930   67.1910 C.ar    1  UNL1       -0.0750
     70 H          -7.1450   19.6240   68.2930 H       1  UNL1        0.0830
     71 H          -7.4120   17.3440   67.3460 H       1  UNL1        0.0840
     72 C         -10.6500   10.9580   64.5260 C.3     1  UNL1       -0.0390
     73 H         -11.2730   10.3750   65.2050 H       1  UNL1        0.0360
     74 H         -10.8900   10.9960   63.4640 H       1  UNL1        0.0360
     75 C          -9.1560   10.3940   64.6530 C.3     1  UNL1       -0.0010
     76 C          -8.5660   10.0300   63.1620 C.3     1  UNL1       -0.0350
     77 C          -8.0770    8.7670   63.1830 C.3     1  UNL1        0.0850
     78 H          -9.3810    9.9760   62.4410 H       1  UNL1        0.0360
     79 H          -7.6880   10.6390   62.9480 H       1  UNL1        0.0360
     80 N          -8.5740    8.1220   64.4550 N.4     1  UNL1       -0.0490
     81 H          -8.5320    8.2640   62.3290 H       1  UNL1        0.0750
     82 H          -6.9950    8.8740   63.2390 H       1  UNL1        0.0750
     83 C          -9.1190    9.3270   65.3800 C.3     1  UNL1        0.1930
     84 H          -9.3560    7.5380   64.1930 H       1  UNL1        0.2800
     85 H          -7.7660    7.7130   64.9030 H       1  UNL1        0.2800
     86 H          -8.5330    9.6840   66.2270 H       1  UNL1        0.1290
     87 H          -8.5320   11.0180   65.2950 H       1  UNL1        0.0460
     88 O         -10.4010    8.9960   65.9160 O.3     1  UNL1       -0.3690
     89 H         -10.9390    9.7890   65.9720 H       1  UNL1        0.2120
     90 C         -11.3770   14.2880   69.5830 C.3     1  UNL1       -0.0350
     91 H         -10.2930   14.3180   69.6970 H       1  UNL1        0.0370
     92 H         -11.8850   15.0590   69.0020 H       1  UNL1        0.0370
     93 C         -11.9740   14.3560   71.0240 C.3     1  UNL1       -0.0590
     94 H         -11.5530   13.5290   71.5960 H       1  UNL1        0.0380
     95 C         -11.5940   15.6830   71.7570 C.3     1  UNL1       -0.0730
     96 H         -12.4550   16.3520   71.7650 H       1  UNL1        0.0280
     97 H         -11.2980   15.4600   72.7820 H       1  UNL1        0.0280
     98 H         -10.7660   16.1620   71.2350 H       1  UNL1        0.0280
     99 C         -13.4920   14.1640   70.9970 C.3     1  UNL1       -0.0730
    100 H         -13.9650   15.0590   70.5890 H       1  UNL1        0.0280
    101 H         -13.7390   13.3060   70.3710 H       1  UNL1        0.0280
    102 H         -13.8550   13.9910   72.0100 H       1  UNL1        0.0280
@<TRIPOS>BOND
     1    26    25    1
     2    27    25    1
     3    81    77    1
     4    78    76    1
     5    25    28    1
     6    25    21    1
     7    79    76    1
     8    76    77    1
     9    76    75    1
    10    77    82    1
    11    77    80    1
    12    50    49    1
    13    74    72    1
    14    51    49    1
    15    53    52    1
    16    56    55    2
    17    21    23   ar
    18    21    20   ar
    19    49    52    1
    20    49    47    1
    21    84    80    1
    22    23    24   ar
    23    80    85    1
    24    80    83    1
    25    72    75    1
    26    72    47    1
    27    72    73    1
    28    52    55    1
    29    52    54    1
    30    75    87    1
    31    75    83    1
    32    55    57    1
    33    60    58    1
    34    22    20    1
    35    20    19   ar
    36    47    48    1
    37    47    45    1
    38    83    88    1
    39    83    86    1
    40    24    19   ar
    41    64    62    1
    42    58    57    1
    43    58    61    1
    44    58    59    1
    45    19    16    1
    46    88    89    1
    47    62    61   ar
    48    62    63   ar
    49    45    46    1
    50    45    43   am
    51    61    69   ar
    52    66    63    1
    53    63    65   ar
    54    16    17    2
    55    16    15   am
    56    69    71    1
    57    69    67   ar
    58    44    43    2
    59    43     1    1
    60    65    67   ar
    61    65    68    1
    62    67    70    1
    63    18    15    1
    64     5     4    2
    65    15    13    1
    66    11    10    2
    67     2     1    1
    68     1    90    1
    69     1     3    1
    70    92    90    1
    71     4     3   am
    72     4     7    1
    73    10    13    1
    74    10     9   am
    75    13    14    1
    76    13    29    1
    77    90    91    1
    78    90    93    1
    79     8     7    1
    80     3     6    1
    81     7     9    1
    82     7    33    1
    83     9    12    1
    84   101    99    1
    85    32    29    1
    86   100    99    1
    87    29    30    1
    88    29    31    1
    89    36    35    1
    90    99    93    1
    91    99   102    1
    92    93    94    1
    93    93    95    1
    94    37    35    1
    95    98    95    1
    96    35    33    1
    97    35    38    1
    98    33    34    1
    99    33    39    1
   100    95    96    1
   101    95    97    1
   102    42    39    1
   103    41    39    1
   104    39    40    1
@<TRIPOS>MOLECULE
crystal_redock_e24_er3_1.pdbqt
 102 104 0 0 0
SMALL
GASTEIGER

@<TRIPOS>ATOM
      1 C         -10.1400    8.5010   68.8800 C.3     1  UNL1        0.0890
      2 H         -11.1940    8.2790   68.7110 H       1  UNL1        0.0870
      3 N          -9.3650    7.6510   67.9900 N.am    1  UNL1       -0.3460
      4 C         -10.0600    6.7580   66.9920 C.2     1  UNL1        0.2410
      5 O         -11.2450    6.7400   66.9260 O.2     1  UNL1       -0.2710
      6 H          -8.3580    7.6790   68.0630 H       1  UNL1        0.1630
      7 C          -9.2410    5.8890   66.0740 C.3     1  UNL1        0.0920
      8 H          -9.8540    5.5870   65.2250 H       1  UNL1        0.0880
      9 N          -8.1150    6.6620   65.5420 N.am    1  UNL1       -0.3460
     10 C          -7.7350    6.5230   64.1580 C.2     1  UNL1        0.2400
     11 O          -8.3240    5.7910   63.4590 O.2     1  UNL1       -0.2710
     12 H          -7.5970    7.2960   66.1340 H       1  UNL1        0.1630
     13 C          -6.5340    7.3470   63.5980 C.3     1  UNL1        0.0860
     14 H          -6.7960    7.9230   62.7110 H       1  UNL1        0.0860
     15 N          -6.1090    8.3040   64.6060 N.am    1  UNL1       -0.3430
     16 C          -5.7860    9.6750   64.2070 C.2     1  UNL1        0.2730
     17 O          -5.8690    9.9980   63.0730 O.2     1  UNL1       -0.2660
     18 H          -6.0380    8.0180   65.5730 H       1  UNL1        0.1630
     19 C          -5.3360   10.6980   65.2620 C.ar    1  UNL1        0.1540
     20 C          -6.0040   11.0310   66.4840 C.ar    1  UNL1       -0.0170
     21 C          -5.1890   12.0140   67.0870 C.ar    1  UNL1        0.0770
     22 H          -6.9360   10.6210   66.8730 H       1  UNL1        0.0910
     23 O          -4.1750   12.2150   66.2980 O.2     1  UNL1       -0.2180
     24 N          -4.2390   11.4590   65.2260 N.ar    1  UNL1       -0.1230
     25 C          -5.4500   12.7100   68.4170 C.3     1  UNL1       -0.0290
     26 H          -4.5830   12.5880   69.0670 H       1  UNL1        0.0360
     27 H          -5.6270   13.7710   68.2430 H       1  UNL1        0.0360
     28 H          -6.3260   12.2690   68.8920 H       1  UNL1        0.0360
     29 C          -5.3980    6.4160   63.2570 C.3     1  UNL1       -0.0490
     30 H          -5.6520    5.8450   62.3640 H       1  UNL1        0.0300
     31 H          -4.4950    6.9980   63.0730 H       1  UNL1        0.0300
     32 H          -5.2280    5.7320   64.0880 H       1  UNL1        0.0300
     33 C          -8.6970    4.6650   66.8680 C.3     1  UNL1       -0.0330
     34 H          -8.6330    3.8260   66.1760 H       1  UNL1        0.0420
     35 C          -7.2590    4.9350   67.4130 C.3     1  UNL1       -0.0710
     36 H          -6.9130    4.0650   67.9710 H       1  UNL1        0.0280
     37 H          -6.5840    5.1220   66.5780 H       1  UNL1        0.0280
     38 H          -7.2770    5.8050   68.0690 H       1  UNL1        0.0280
     39 C          -9.6740    4.2670   68.0210 C.3     1  UNL1       -0.0710
     40 H          -9.2740    4.6160   68.9730 H       1  UNL1        0.0280
     41 H         -10.6480    4.7240   67.8460 H       1  UNL1        0.0280
     42 H          -9.7810    3.1830   68.0470 H       1  UNL1        0.0280
     43 C          -9.7970    9.9860   68.5700 C.2     1  UNL1        0.2400
     44 O          -8.7790   10.4540   68.9690 O.2     1  UNL1       -0.2710
     45 N         -10.7320   10.8240   67.7670 N.am    1  UNL1       -0.3550
     46 H         -11.5970   10.4370   67.4180 H       1  UNL1        0.1620
     47 C         -10.3900   12.2340   67.4800 C.3     1  UNL1        0.0130
     48 H          -9.7410   12.5920   68.2790 H       1  UNL1        0.0720
     49 C         -11.6580   13.0570   67.4370 C.3     1  UNL1       -0.0380
     50 H         -12.2900   12.5870   66.6830 H       1  UNL1        0.0360
     51 H         -12.0000   13.1250   68.4700 H       1  UNL1        0.0360
     52 C         -11.4160   14.5060   66.9610 C.3     1  UNL1        0.0180
     53 H         -11.0670   14.4250   65.9320 H       1  UNL1        0.0480
     54 H         -12.3360   15.0470   67.1840 H       1  UNL1        0.0480
     55 C         -10.2890   15.2410   67.7390 C.2     1  UNL1        0.2590
     56 O          -9.4220   15.8050   67.1540 O.2     1  UNL1       -0.2650
     57 O         -10.2970   15.2210   69.1610 O.3     1  UNL1       -0.3170
     58 C         -11.1140   16.2340   69.7540 C.3     1  UNL1        0.0520
     59 H         -10.4220   16.9740   70.1550 H       1  UNL1        0.0820
     60 H         -11.8330   16.5190   68.9860 H       1  UNL1        0.0820
     61 C         -11.8890   15.5930   70.9360 C.ar    1  UNL1       -0.0340
     62 C         -11.9300   16.2340   72.1700 C.ar    1  UNL1       -0.0750
     63 C         -12.6250   15.6590   73.2330 C.ar    1  UNL1       -0.0820
     64 H         -11.4170   17.1870   72.3050 H       1  UNL1        0.0840
     65 C         -13.2800   14.4360   73.0580 C.ar    1  UNL1       -0.0830
     66 H         -12.6570   16.1640   74.1980 H       1  UNL1        0.0830
     67 C         -13.2330   13.7990   71.8260 C.ar    1  UNL1       -0.0820
     68 H         -13.8260   13.9800   73.8840 H       1  UNL1        0.0830
     69 C         -12.5410   14.3710   70.7610 C.ar    1  UNL1       -0.0750
     70 H         -13.7430   12.8440   71.6940 H       1  UNL1        0.0830
     71 H         -12.5100   13.8650   69.7950 H       1  UNL1        0.0840
     72 C          -9.6760   12.3280   66.1330 C.3     1  UNL1       -0.0390
     73 H          -9.7580   13.3730   65.8330 H       1  UNL1        0.0360
     74 H          -8.6940   11.8840   66.2940 H       1  UNL1        0.0360
     75 C         -10.4110   11.4550   65.0090 C.3     1  UNL1       -0.0010
     76 C          -9.5460   10.0910   64.7050 C.3     1  UNL1       -0.0350
     77 C          -9.3480    9.9880   63.3690 C.3     1  UNL1        0.0850
     78 H          -8.5370   10.1910   65.1050 H       1  UNL1        0.0360
     79 H         -10.1410    9.2090   64.9420 H       1  UNL1        0.0360
     80 N          -9.7150   11.3220   62.7650 N.4     1  UNL1       -0.0490
     81 H          -8.2770    9.8240   63.2440 H       1  UNL1        0.0750
     82 H         -10.0580    9.2370   63.0260 H       1  UNL1        0.0750
     83 C         -10.5320   12.1180   63.9080 C.3     1  UNL1        0.1930
     84 H          -8.8460   11.8080   62.5940 H       1  UNL1        0.2800
     85 H         -10.3430   11.1270   61.9980 H       1  UNL1        0.2800
     86 H         -11.6170   12.2100   63.8500 H       1  UNL1        0.1290
     87 H         -11.4750   11.3330   65.2130 H       1  UNL1        0.0460
     88 O         -10.0410   13.4540   64.0250 O.3     1  UNL1       -0.3690
     89 H         -10.3010   13.8170   64.8750 H       1  UNL1        0.2120
     90 C          -9.7700    8.1810   70.3190 C.3     1  UNL1       -0.0350
     91 H          -9.1030    7.3200   70.2610 H       1  UNL1        0.0370
     92 H          -9.4120    9.1200   70.7410 H       1  UNL1        0.0370
     93 C         -10.9860    7.7380   71.1950 C.3     1  UNL1       -0.0590
     94 H         -10.5930    7.3640   72.1400 H       1  UNL1        0.0380
     95 C         -11.9450    8.9290   71.5160 C.3     1  UNL1       -0.0730
     96 H         -12.4650    9.2310   70.6070 H       1  UNL1        0.0280
     97 H         -12.6740    8.6170   72.2640 H       1  UNL1        0.0280
     98 H         -11.3660    9.7690   71.9000 H       1  UNL1        0.0280
     99 C         -11.7480    6.5880   70.5320 C.3     1  UNL1       -0.0730
    100 H         -12.3050    6.0370   71.2890 H       1  UNL1        0.0280
    101 H         -12.4400    6.9910   69.7910 H       1  UNL1        0.0280
    102 H         -11.0410    5.9190   70.0410 H       1  UNL1        0.0280
@<TRIPOS>BOND
     1    85    80    1
     2    30    29    1
     3    84    80    1
     4    14    13    1
     5    80    77    1
     6    80    83    1
     7    82    77    1
     8    17    16    2
     9    31    29    1
    10    81    77    1
    11    29    13    1
    12    29    32    1
    13    77    76    1
    14    11    10    2
    15    13    10    1
    16    13    15    1
    17    86    83    1
    18    83    88    1
    19    83    75    1
    20    88    89    1
    21    10     9   am
    22    16    15   am
    23    16    19    1
    24    15    18    1
    25    76    79    1
    26    76    75    1
    27    76    78    1
    28    75    87    1
    29    75    72    1
    30     8     7    1
    31    24    19   ar
    32    24    23   ar
    33    19    20   ar
    34     9     7    1
    35     9    12    1
    36    73    72    1
    37    53    52    1
    38     7    33    1
    39     7     4    1
    40    72    74    1
    41    72    47    1
    42    34    33    1
    43    23    21   ar
    44    20    22    1
    45    20    21   ar
    46    37    35    1
    47    50    49    1
    48    33    35    1
    49    33    39    1
    50     5     4    2
    51    52    54    1
    52    52    49    1
    53    52    55    1
    54     4     3   am
    55    21    25    1
    56    56    55    2
    57    35    36    1
    58    35    38    1
    59    46    45    1
    60    49    47    1
    61    49    51    1
    62    47    45    1
    63    47    48    1
    64    55    57    1
    65    45    43   am
    66    41    39    1
    67     3     6    1
    68     3     1    1
    69    39    42    1
    70    39    40    1
    71    27    25    1
    72    25    28    1
    73    25    26    1
    74    43     1    1
    75    43    44    2
    76     2     1    1
    77     1    90    1
    78    60    58    1
    79    57    58    1
    80    58    59    1
    81    58    61    1
    82   101    99    1
    83    71    69    1
    84   102    99    1
    85    91    90    1
    86    90    92    1
    87    90    93    1
    88    99    93    1
    89    99   100    1
    90    96    95    1
    91    69    61   ar
    92    69    67   ar
    93    61    62   ar
    94    93    95    1
    95    93    94    1
    96    95    98    1
    97    95    97    1
    98    70    67    1
    99    67    65   ar
   100    62    64    1
   101    62    63   ar
   102    65    63   ar
   103    65    68    1
   104    63    66    1
@<TRIPOS>MOLECULE
crystal_redock_e24_er3_1.pdbqt
 102 104 0 0 0
SMALL
GASTEIGER

@<TRIPOS>ATOM
      1 C          -6.8300   13.6380   68.1670 C.3     1  UNL1        0.0890
      2 H          -6.0530   13.4860   67.4180 H       1  UNL1        0.0870
      3 N          -7.0720   15.0700   68.2650 N.am    1  UNL1       -0.3460
      4 C          -6.0750   16.0500   67.7020 C.2     1  UNL1        0.2410
      5 O          -5.0830   15.6640   67.1760 O.2     1  UNL1       -0.2710
      6 H          -7.9200   15.3780   68.7180 H       1  UNL1        0.1630
      7 C          -6.3440   17.5290   67.8070 C.3     1  UNL1        0.0920
      8 H          -6.0940   18.0070   66.8590 H       1  UNL1        0.0880
      9 N          -7.7740   17.7500   68.0400 N.am    1  UNL1       -0.3460
     10 C          -8.6630   17.9520   66.9230 C.2     1  UNL1        0.2400
     11 O          -8.2450   17.9400   65.8300 O.2     1  UNL1       -0.2710
     12 H          -8.1490   17.7650   68.9780 H       1  UNL1        0.1630
     13 C         -10.1840   18.1900   67.1780 C.3     1  UNL1        0.0860
     14 H         -10.8160   17.7340   66.4160 H       1  UNL1        0.0860
     15 N         -10.5510   17.5780   68.4440 N.am    1  UNL1       -0.3430
     16 C         -11.2080   16.2690   68.4480 C.2     1  UNL1        0.2730
     17 O         -11.4380   15.7180   67.4280 O.2     1  UNL1       -0.2660
     18 H         -10.3530   18.0570   69.3110 H       1  UNL1        0.1630
     19 C         -11.6000   15.6090   69.7790 C.ar    1  UNL1        0.1540
     20 C         -11.6530   16.2280   71.0690 C.ar    1  UNL1       -0.0170
     21 C         -12.0660   15.2010   71.9480 C.ar    1  UNL1        0.0770
     22 H         -11.4260   17.2620   71.3270 H       1  UNL1        0.0910
     23 O         -12.2300   14.1250   71.2360 O.2     1  UNL1       -0.2180
     24 N         -11.9640   14.3370   69.9680 N.ar    1  UNL1       -0.1230
     25 C         -12.2810   15.3330   73.4490 C.3     1  UNL1       -0.0290
     26 H         -13.0820   16.0480   73.6410 H       1  UNL1        0.0360
     27 H         -12.5530   14.3620   73.8640 H       1  UNL1        0.0360
     28 H         -11.3610   15.6830   73.9190 H       1  UNL1        0.0360
     29 C         -10.4630   19.6710   67.2200 C.3     1  UNL1       -0.0490
     30 H         -10.7800   20.0100   66.2340 H       1  UNL1        0.0300
     31 H         -11.2530   19.8720   67.9440 H       1  UNL1        0.0300
     32 H          -9.5580   20.2030   67.5120 H       1  UNL1        0.0300
     33 C          -5.5290   18.1210   68.9940 C.3     1  UNL1       -0.0330
     34 H          -4.4880   18.1850   68.6790 H       1  UNL1        0.0420
     35 C          -6.0030   19.5660   69.3440 C.3     1  UNL1       -0.0710
     36 H          -5.3780   19.9710   70.1400 H       1  UNL1        0.0280
     37 H          -5.9200   20.1990   68.4610 H       1  UNL1        0.0280
     38 H          -7.0400   19.5370   69.6750 H       1  UNL1        0.0280
     39 C          -5.5990   17.1840   70.2430 C.3     1  UNL1       -0.0710
     40 H          -5.9000   16.1840   69.9300 H       1  UNL1        0.0280
     41 H          -4.6180   17.1360   70.7170 H       1  UNL1        0.0280
     42 H          -6.3270   17.5780   70.9520 H       1  UNL1        0.0280
     43 C          -8.1640   12.9360   67.7800 C.2     1  UNL1        0.2400
     44 O          -9.1990   13.4830   67.9800 O.2     1  UNL1       -0.2710
     45 N          -8.1480   11.5840   67.1510 N.am    1  UNL1       -0.3550
     46 H          -7.2750   11.1120   66.9720 H       1  UNL1        0.1620
     47 C          -9.4250   10.9310   66.7880 C.3     1  UNL1        0.0130
     48 H         -10.2340   11.6250   67.0160 H       1  UNL1        0.0720
     49 C          -9.5860    9.6650   67.5980 C.3     1  UNL1       -0.0380
     50 H         -10.4000    9.1140   67.1250 H       1  UNL1        0.0360
     51 H          -8.5910    9.2240   67.6560 H       1  UNL1        0.0360
     52 C         -10.0290    9.9360   69.0520 C.3     1  UNL1        0.0180
     53 H         -10.1590    8.9550   69.5100 H       1  UNL1        0.0480
     54 H          -9.2970   10.6350   69.4580 H       1  UNL1        0.0480
     55 C         -11.4070   10.6470   69.1650 C.2     1  UNL1        0.2590
     56 O         -11.9820   11.0060   68.1890 O.2     1  UNL1       -0.2650
     57 O         -11.9700   10.8750   70.4510 O.3     1  UNL1       -0.3170
     58 C         -11.5430    9.9420   71.4470 C.3     1  UNL1        0.0520
     59 H         -10.6430    9.4750   71.0480 H       1  UNL1        0.0820
     60 H         -11.4970   10.5060   72.3790 H       1  UNL1        0.0820
     61 C         -12.6410    8.8540   71.5860 C.ar    1  UNL1       -0.0340
     62 C         -12.2980    7.5070   71.5280 C.ar    1  UNL1       -0.0750
     63 C         -13.2840    6.5290   71.6520 C.ar    1  UNL1       -0.0820
     64 H         -11.2570    7.2170   71.3860 H       1  UNL1        0.0840
     65 C         -14.6180    6.9030   71.8320 C.ar    1  UNL1       -0.0830
     66 H         -13.0110    5.4740   71.6090 H       1  UNL1        0.0830
     67 C         -14.9560    8.2480   71.8860 C.ar    1  UNL1       -0.0820
     68 H         -15.3950    6.1450   71.9310 H       1  UNL1        0.0830
     69 C         -13.9740    9.2290   71.7650 C.ar    1  UNL1       -0.0750
     70 H         -15.9990    8.5360   72.0250 H       1  UNL1        0.0830
     71 H         -14.2470   10.2830   71.8090 H       1  UNL1        0.0840
     72 C          -9.4230   10.5870   65.3000 C.3     1  UNL1       -0.0390
     73 H          -8.3730   10.4830   65.0270 H       1  UNL1        0.0360
     74 H         -10.1000    9.7390   65.1970 H       1  UNL1        0.0360
     75 C         -10.0250   11.7800   64.4150 C.3     1  UNL1       -0.0010
     76 C         -11.3300   12.4350   65.1720 C.3     1  UNL1       -0.0350
     77 C         -12.3640   12.4780   64.2990 C.3     1  UNL1        0.0850
     78 H         -11.6840   11.7640   65.9540 H       1  UNL1        0.0360
     79 H         -11.1430   13.4850   65.3980 H       1  UNL1        0.0360
     80 N         -11.9830   11.6150   63.1200 N.4     1  UNL1       -0.0490
     81 H         -13.2050   12.0180   64.8200 H       1  UNL1        0.0750
     82 H         -12.4280   13.5160   63.9730 H       1  UNL1        0.0750
     83 C         -10.3950   11.3590   63.2520 C.3     1  UNL1        0.1930
     84 H         -12.4620   10.7340   63.2440 H       1  UNL1        0.2800
     85 H         -12.1520   12.1700   62.2930 H       1  UNL1        0.2800
     86 H          -9.6930   11.8970   62.6140 H       1  UNL1        0.1290
     87 H          -9.2530   12.4700   64.0720 H       1  UNL1        0.0460
     88 O         -10.1010    9.9740   63.0620 O.3     1  UNL1       -0.3690
     89 H          -9.2520    9.7700   63.4590 H       1  UNL1        0.2120
     90 C          -6.3540   13.1220   69.5150 C.3     1  UNL1       -0.0350
     91 H          -6.4390   13.9700   70.1960 H       1  UNL1        0.0370
     92 H          -6.9320   12.2160   69.6990 H       1  UNL1        0.0370
     93 C          -4.8510   12.6950   69.5270 C.3     1  UNL1       -0.0590
     94 H          -4.7650   11.8050   70.1500 H       1  UNL1        0.0380
     95 C          -4.3310   12.3310   68.1000 C.3     1  UNL1       -0.0730
     96 H          -4.8620   12.9250   67.3570 H       1  UNL1        0.0280
     97 H          -3.2630   12.5420   68.0380 H       1  UNL1        0.0280
     98 H          -4.5030   11.2710   67.9110 H       1  UNL1        0.0280
     99 C          -3.9800   13.7810   70.1640 C.3     1  UNL1       -0.0730
    100 H          -4.6170   14.5660   70.5730 H       1  UNL1        0.0280
    101 H          -3.3820   13.3450   70.9640 H       1  UNL1        0.0280
    102 H          -3.3190   14.2060   69.4080 H       1  UNL1        0.0280
@<TRIPOS>BOND
     1    85    80    1
     2    86    83    1
     3    88    83    1
     4    88    89    1
     5    80    84    1
     6    80    83    1
     7    80    77    1
     8    83    75    1
     9    82    77    1
    10    87    75    1
    11    77    81    1
    12    77    76    1
    13    75    76    1
    14    75    72    1
    15    73    72    1
    16    76    79    1
    17    76    78    1
    18    74    72    1
    19    72    47    1
    20    11    10    2
    21    30    29    1
    22    14    13    1
    23    47    48    1
    24    47    45    1
    25    47    49    1
    26     8     7    1
    27    10    13    1
    28    10     9   am
    29    46    45    1
    30    50    49    1
    31    45    43   am
    32     5     4    2
    33    13    29    1
    34    13    15    1
    35    29    32    1
    36    29    31    1
    37    96    95    1
    38     2     1    1
    39    17    16    2
    40    49    51    1
    41    49    52    1
    42     4     7    1
    43     4     3   am
    44    43    44    2
    45    43     1    1
    46     7     9    1
    47     7    33    1
    48    98    95    1
    49    97    95    1
    50     9    12    1
    51    95    93    1
    52     1     3    1
    53     1    90    1
    54    56    55    2
    55     3     6    1
    56    15    16   am
    57    15    18    1
    58    16    19    1
    59    37    35    1
    60    34    33    1
    61    33    35    1
    62    33    39    1
    63    52    55    1
    64    52    54    1
    65    52    53    1
    66    55    57    1
    67    35    38    1
    68    35    36    1
    69   102    99    1
    70    90    93    1
    71    90    92    1
    72    90    91    1
    73    93    94    1
    74    93    99    1
    75    19    24   ar
    76    19    20   ar
    77    40    39    1
    78    24    23   ar
    79    99   100    1
    80    99   101    1
    81    39    41    1
    82    39    42    1
    83    57    58    1
    84    59    58    1
    85    20    22    1
    86    20    21   ar
    87    23    21   ar
    88    64    62    1
    89    58    61    1
    90    58    60    1
    91    62    61   ar
    92    62    63   ar
    93    61    69   ar
    94    66    63    1
    95    63    65   ar
    96    69    71    1
    97    69    67   ar
    98    65    67   ar
    99    65    68    1
   100    67    70    1
   101    21    25    1
   102    25    26    1
   103    25    27    1
   104    25    28    1
@<TRIPOS>MOLECULE
crystal_redock_e24_er3_1.pdbqt
 102 104 0 0 0
SMALL
GASTEIGER

@<TRIPOS>ATOM
      1 C          -8.7530    9.8590   65.0790 C.3     1  UNL1        0.0890
      2 H          -7.7300   10.1300   65.3390 H       1  UNL1        0.0870
      3 N          -9.0750    8.6300   65.7880 N.am    1  UNL1       -0.3460
      4 C          -7.9900    7.6390   66.1280 C.2     1  UNL1        0.2410
      5 O          -6.8640    7.8520   65.8170 O.2     1  UNL1       -0.2710
      6 H         -10.0390    8.4660   66.0420 H       1  UNL1        0.1630
      7 C          -8.3400    6.3750   66.8670 C.3     1  UNL1        0.0920
      8 H          -7.4940    5.6900   66.8270 H       1  UNL1        0.0880
      9 N          -8.5810    6.6850   68.2800 N.am    1  UNL1       -0.3460
     10 C          -7.6500    6.2320   69.2850 C.2     1  UNL1        0.2400
     11 O          -6.7050    5.6170   68.9750 O.2     1  UNL1       -0.2710
     12 H          -9.3930    7.2140   68.5630 H       1  UNL1        0.1630
     13 C          -7.9130    6.5630   70.7870 C.3     1  UNL1        0.0860
     14 H          -7.3100    7.3960   71.1470 H       1  UNL1        0.0860
     15 N          -9.3030    6.9560   70.9470 N.am    1  UNL1       -0.3430
     16 C          -9.6260    8.3440   71.2870 C.2     1  UNL1        0.2730
     17 O          -8.7600    9.1350   71.4330 O.2     1  UNL1       -0.2660
     18 H         -10.0370    6.2730   70.8230 H       1  UNL1        0.1630
     19 C         -11.0910    8.7740   71.4580 C.ar    1  UNL1        0.1540
     20 C         -12.2030    7.9400   71.8010 C.ar    1  UNL1       -0.0170
     21 C         -13.3150    8.8110   71.8310 C.ar    1  UNL1        0.0770
     22 H         -12.2020    6.8680   71.9990 H       1  UNL1        0.0910
     23 O         -12.8810   10.0020   71.5390 O.2     1  UNL1       -0.2180
     24 N         -11.5870   10.0060   71.3170 N.ar    1  UNL1       -0.1230
     25 C         -14.7530    8.4250   72.1480 C.3     1  UNL1       -0.0290
     26 H         -15.0600    7.6010   71.5030 H       1  UNL1        0.0360
     27 H         -14.8260    8.1170   73.1910 H       1  UNL1        0.0360
     28 H         -15.4060    9.2820   71.9760 H       1  UNL1        0.0360
     29 C          -7.6200    5.3480   71.6300 C.3     1  UNL1       -0.0490
     30 H          -8.3270    5.3010   72.4580 H       1  UNL1        0.0300
     31 H          -7.7130    4.4500   71.0200 H       1  UNL1        0.0300
     32 H          -6.6060    5.4160   72.0240 H       1  UNL1        0.0300
     33 C          -9.6270    5.7530   66.2490 C.3     1  UNL1       -0.0330
     34 H          -9.8290    6.2760   65.3150 H       1  UNL1        0.0420
     35 C          -9.4210    4.2440   65.9070 C.3     1  UNL1       -0.0710
     36 H         -10.1360    3.6430   66.4700 H       1  UNL1        0.0280
     37 H          -9.5780    4.0890   64.8400 H       1  UNL1        0.0280
     38 H          -8.4070    3.9470   66.1730 H       1  UNL1        0.0280
     39 C         -10.8550    5.9570   67.1930 C.3     1  UNL1       -0.0710
     40 H         -10.6950    5.4110   68.1220 H       1  UNL1        0.0280
     41 H         -10.9740    7.0190   67.4110 H       1  UNL1        0.0280
     42 H         -11.7550    5.5840   66.7030 H       1  UNL1        0.0280
     43 C          -9.7750   10.9550   65.4970 C.2     1  UNL1        0.2400
     44 O         -10.8620   10.6410   65.8600 O.2     1  UNL1       -0.2710
     45 N          -9.3950   12.3950   65.4540 N.am    1  UNL1       -0.3550
     46 H          -8.4720   12.6740   65.1520 H       1  UNL1        0.1620
     47 C         -10.3770   13.4250   65.8570 C.3     1  UNL1        0.0130
     48 H         -11.3730   13.0500   65.6180 H       1  UNL1        0.0720
     49 C         -10.1070   14.7000   65.0900 C.3     1  UNL1       -0.0380
     50 H          -9.1380   14.5560   64.6110 H       1  UNL1        0.0360
     51 H         -10.9960   14.8720   64.4830 H       1  UNL1        0.0360
     52 C          -9.9620   15.9320   66.0090 C.3     1  UNL1        0.0180
     53 H         -10.5140   15.6900   66.9180 H       1  UNL1        0.0480
     54 H          -8.8920   16.1380   66.0600 H       1  UNL1        0.0480
     55 C         -10.6180   17.2200   65.4390 C.2     1  UNL1        0.2590
     56 O         -11.2320   17.1840   64.4220 O.2     1  UNL1       -0.2650
     57 O         -10.4670   18.4480   66.1400 O.3     1  UNL1       -0.3170
     58 C         -10.1190   18.2930   67.5190 C.3     1  UNL1        0.0520
     59 H         -10.8950   18.8140   68.0790 H       1  UNL1        0.0820
     60 H          -9.9650   17.2240   67.6660 H       1  UNL1        0.0820
     61 C          -8.7690   19.0200   67.7570 C.ar    1  UNL1       -0.0340
     62 C          -7.9600   18.6550   68.8280 C.ar    1  UNL1       -0.0750
     63 C          -6.7470   19.3080   69.0420 C.ar    1  UNL1       -0.0820
     64 H          -8.2760   17.8560   69.4990 H       1  UNL1        0.0840
     65 C          -6.3450   20.3330   68.1810 C.ar    1  UNL1       -0.0830
     66 H          -6.1150   19.0180   69.8810 H       1  UNL1        0.0830
     67 C          -7.1570   20.6970   67.1150 C.ar    1  UNL1       -0.0820
     68 H          -5.3990   20.8490   68.3410 H       1  UNL1        0.0830
     69 C          -8.3690   20.0450   66.8960 C.ar    1  UNL1       -0.0750
     70 H          -6.8420   21.4980   66.4470 H       1  UNL1        0.0830
     71 H          -9.0010   20.3350   66.0570 H       1  UNL1        0.0840
     72 C         -10.2580   13.6950   67.3550 C.3     1  UNL1       -0.0390
     73 H          -9.5760   12.9340   67.7340 H       1  UNL1        0.0360
     74 H          -9.9970   14.7500   67.4390 H       1  UNL1        0.0360
     75 C         -11.6570   13.4930   68.1070 C.3     1  UNL1       -0.0010
     76 C         -11.9810   14.8010   69.0500 C.3     1  UNL1       -0.0350
     77 C         -12.2800   14.3750   70.3000 C.3     1  UNL1        0.0850
     78 H         -11.0770   15.3930   69.1910 H       1  UNL1        0.0360
     79 H         -12.9010   15.2820   68.7180 H       1  UNL1        0.0360
     80 N         -11.8710   12.9240   70.3820 N.4     1  UNL1       -0.0490
     81 H         -11.6460   14.9610   70.9670 H       1  UNL1        0.0750
     82 H         -13.3640   14.4440   70.3800 H       1  UNL1        0.0750
     83 C         -11.6360   12.4430   68.8590 C.3     1  UNL1        0.1930
     84 H         -10.9850   12.9030   70.8660 H       1  UNL1        0.2800
     85 H         -12.6640   12.4240   70.7580 H       1  UNL1        0.2800
     86 H         -12.3770   11.8230   68.3540 H       1  UNL1        0.1290
     87 H         -12.4450   13.1610   67.4310 H       1  UNL1        0.0460
     88 O         -10.4040   11.7280   68.7520 O.3     1  UNL1       -0.3690
     89 H         -10.5590   10.8860   68.3200 H       1  UNL1        0.2120
     90 C          -8.8550    9.6100   63.5830 C.3     1  UNL1       -0.0350
     91 H          -8.9520    8.5290   63.4760 H       1  UNL1        0.0370
     92 H          -9.6540   10.2650   63.2350 H       1  UNL1        0.0370
     93 C          -7.5720   10.0180   62.7910 C.3     1  UNL1       -0.0590
     94 H          -6.9020   10.5250   63.4850 H       1  UNL1        0.0380
     95 C          -6.8140    8.7780   62.2170 C.3     1  UNL1       -0.0730
     96 H          -5.8560    8.6720   62.7250 H       1  UNL1        0.0280
     97 H          -7.4120    7.8810   62.3770 H       1  UNL1        0.0280
     98 H          -6.6460    8.9170   61.1490 H       1  UNL1        0.0280
     99 C          -7.9110   11.0120   61.6770 C.3     1  UNL1       -0.0730
    100 H          -7.3080   10.7900   60.7960 H       1  UNL1        0.0280
    101 H          -8.9680   10.9290   61.4250 H       1  UNL1        0.0280
    102 H          -7.6970   12.0250   62.0170 H       1  UNL1        0.0280
@<TRIPOS>BOND
     1   100    99    1
     2    98    95    1
     3   101    99    1
     4    99   102    1
     5    99    93    1
     6    95    97    1
     7    95    96    1
     8    95    93    1
     9    93    94    1
    10    93    90    1
    11    92    90    1
    12    91    90    1
    13    90     1    1
    14    56    55    2
    15    51    49    1
    16    50    49    1
    17    37    35    1
    18     1     2    1
    19     1    43    1
    20     1     3    1
    21    49    47    1
    22    49    52    1
    23    46    45    1
    24    34    33    1
    25    55    52    1
    26    55    57    1
    27    45    43   am
    28    45    47    1
    29    43    44    2
    30    48    47    1
    31     3     6    1
    32     3     4   am
    33     5     4    2
    34    47    72    1
    35    35    38    1
    36    35    33    1
    37    35    36    1
    38    52    54    1
    39    52    53    1
    40    71    69    1
    41     4     7    1
    42    57    58    1
    43    33     7    1
    44    33    39    1
    45    70    67    1
    46    42    39    1
    47     8     7    1
    48     7     9    1
    49    69    67   ar
    50    69    61   ar
    51    67    65   ar
    52    39    41    1
    53    39    40    1
    54    72    74    1
    55    72    73    1
    56    72    75    1
    57    87    75    1
    58    58    60    1
    59    58    61    1
    60    58    59    1
    61    61    62   ar
    62    75    83    1
    63    75    76    1
    64    65    68    1
    65    65    63   ar
    66     9    12    1
    67     9    10   am
    68    89    88    1
    69    86    83    1
    70    79    76    1
    71    88    83    1
    72    62    63   ar
    73    62    64    1
    74    83    80    1
    75    11    10    2
    76    63    66    1
    77    76    78    1
    78    76    77    1
    79    10    13    1
    80    77    82    1
    81    77    80    1
    82    77    81    1
    83    80    85    1
    84    80    84    1
    85    13    15    1
    86    13    14    1
    87    13    29    1
    88    18    15    1
    89    15    16   am
    90    31    29    1
    91    16    17    2
    92    16    19    1
    93    24    19   ar
    94    24    23   ar
    95    19    20   ar
    96    26    25    1
    97    23    21   ar
    98    29    32    1
    99    29    30    1
   100    20    21   ar
   101    20    22    1
   102    21    25    1
   103    28    25    1
   104    25    27    1
@<TRIPOS>MOLECULE
crystal_redock_e24_er3_1.pdbqt
 102 104 0 0 0
SMALL
GASTEIGER

@<TRIPOS>ATOM
      1 C         -11.1210    9.5120   69.7590 C.3     1  UNL1        0.0890
      2 H         -11.6490    8.6850   69.2850 H       1  UNL1        0.0870
      3 N          -9.7600    9.5170   69.2420 N.am    1  UNL1       -0.3460
      4 C          -9.1300    8.2400   68.7460 C.2     1  UNL1        0.2410
      5 O          -9.7360    7.2210   68.7750 O.2     1  UNL1       -0.2710
      6 H          -9.2610   10.3950   69.2280 H       1  UNL1        0.1630
      7 C          -7.7220    8.2650   68.2100 C.3     1  UNL1        0.0920
      8 H          -7.4630    7.2730   67.8380 H       1  UNL1        0.0880
      9 N          -7.6480    9.1870   67.0730 N.am    1  UNL1       -0.3460
     10 C          -7.3690    8.6810   65.7520 C.2     1  UNL1        0.2400
     11 O          -7.1990    7.5350   65.5860 O.2     1  UNL1       -0.2710
     12 H          -7.7910   10.1790   67.2010 H       1  UNL1        0.1630
     13 C          -7.2880    9.6680   64.5460 C.3     1  UNL1        0.0860
     14 H          -7.4310    9.1740   63.5860 H       1  UNL1        0.0860
     15 N          -8.3510   10.6520   64.6700 N.am    1  UNL1       -0.3430
     16 C          -9.4210   10.6880   63.6710 C.2     1  UNL1        0.2730
     17 O          -9.4160    9.9230   62.7700 O.2     1  UNL1       -0.2660
     18 H          -8.3460   11.3040   65.4420 H       1  UNL1        0.1630
     19 C         -10.5520   11.7210   63.7900 C.ar    1  UNL1        0.1540
     20 C         -10.4790   13.0170   64.3930 C.ar    1  UNL1       -0.0170
     21 C         -11.7740   13.5610   64.2430 C.ar    1  UNL1        0.0770
     22 H          -9.6180   13.4900   64.8660 H       1  UNL1        0.0910
     23 O         -12.4970   12.6740   63.6250 O.2     1  UNL1       -0.2180
     24 N         -11.8060   11.5920   63.3500 N.ar    1  UNL1       -0.1230
     25 C         -12.2360   14.9330   64.7170 C.3     1  UNL1       -0.0290
     26 H         -11.6450   15.7060   64.2250 H       1  UNL1        0.0360
     27 H         -13.2890   15.0670   64.4690 H       1  UNL1        0.0360
     28 H         -12.1050   15.0070   65.7970 H       1  UNL1        0.0360
     29 C          -5.9460   10.3550   64.5440 C.3     1  UNL1       -0.0490
     30 H          -5.3630   10.0160   65.4010 H       1  UNL1        0.0300
     31 H          -5.4150   10.1140   63.6240 H       1  UNL1        0.0300
     32 H          -6.0900   11.4340   64.6090 H       1  UNL1        0.0300
     33 C          -6.7500    8.7440   69.3270 C.3     1  UNL1       -0.0330
     34 H          -5.7780    8.2890   69.1340 H       1  UNL1        0.0420
     35 C          -6.5590   10.2920   69.2890 C.3     1  UNL1       -0.0710
     36 H          -7.3510   10.7410   68.6900 H       1  UNL1        0.0280
     37 H          -6.6010   10.6880   70.3030 H       1  UNL1        0.0280
     38 H          -5.5910   10.5270   68.8470 H       1  UNL1        0.0280
     39 C          -7.2360    8.2670   70.7340 C.3     1  UNL1       -0.0710
     40 H          -8.0250    7.5260   70.6140 H       1  UNL1        0.0280
     41 H          -6.4000    7.8240   71.2760 H       1  UNL1        0.0280
     42 H          -7.6200    9.1200   71.2930 H       1  UNL1        0.0280
     43 C         -11.7760   10.8870   69.4410 C.2     1  UNL1        0.2400
     44 O         -12.3050   11.0610   68.3910 O.2     1  UNL1       -0.2710
     45 N         -11.7520   11.9840   70.4500 N.am    1  UNL1       -0.3550
     46 H         -11.3110   11.8470   71.3470 H       1  UNL1        0.1620
     47 C         -12.3810   13.2850   70.1330 C.3     1  UNL1        0.0130
     48 H         -12.9810   13.1570   69.2320 H       1  UNL1        0.0720
     49 C         -11.3020   14.3160   69.8930 C.3     1  UNL1       -0.0380
     50 H         -11.6750   15.2410   70.3350 H       1  UNL1        0.0360
     51 H         -10.3800   13.8680   70.2630 H       1  UNL1        0.0360
     52 C         -11.0750   14.6090   68.3940 C.3     1  UNL1        0.0180
     53 H         -11.7460   13.9380   67.8570 H       1  UNL1        0.0480
     54 H         -11.1820   15.6890   68.2850 H       1  UNL1        0.0480
     55 C          -9.6420   14.2680   67.9000 C.2     1  UNL1        0.2590
     56 O          -9.1290   13.2400   68.2010 O.2     1  UNL1       -0.2650
     57 O          -8.9420   15.2060   67.0910 O.3     1  UNL1       -0.3170
     58 C          -8.1930   16.1720   67.8350 C.3     1  UNL1        0.0520
     59 H          -8.4000   15.9610   68.8840 H       1  UNL1        0.0820
     60 H          -7.1730   16.1090   67.4570 H       1  UNL1        0.0820
     61 C          -8.7550   17.5780   67.4960 C.ar    1  UNL1       -0.0340
     62 C          -7.9400   18.7000   67.6090 C.ar    1  UNL1       -0.0750
     63 C          -8.4450   19.9630   67.3050 C.ar    1  UNL1       -0.0820
     64 H          -6.9060   18.5890   67.9350 H       1  UNL1        0.0840
     65 C          -9.7720   20.1030   66.8890 C.ar    1  UNL1       -0.0830
     66 H          -7.8030   20.8400   67.3920 H       1  UNL1        0.0830
     67 C         -10.5830   18.9820   66.7820 C.ar    1  UNL1       -0.0820
     68 H         -10.1740   21.0870   66.6490 H       1  UNL1        0.0830
     69 C         -10.0820   17.7170   67.0820 C.ar    1  UNL1       -0.0750
     70 H         -11.6180   19.0940   66.4590 H       1  UNL1        0.0830
     71 H         -10.7240   16.8400   66.9940 H       1  UNL1        0.0840
     72 C         -13.2630   13.7300   71.2980 C.3     1  UNL1       -0.0390
     73 H         -14.2640   13.8380   70.8790 H       1  UNL1        0.0360
     74 H         -13.0800   13.0070   72.0930 H       1  UNL1        0.0360
     75 C         -12.8260   15.1670   71.8560 C.3     1  UNL1       -0.0010
     76 C         -11.9670   14.9890   73.2470 C.3     1  UNL1       -0.0350
     77 C         -12.5060   15.7890   74.1980 C.3     1  UNL1        0.0850
     78 H         -12.1090   13.9860   73.6480 H       1  UNL1        0.0360
     79 H         -10.9610   15.3880   73.1190 H       1  UNL1        0.0360
     80 N         -13.8480   16.2480   73.6800 N.4     1  UNL1       -0.0490
     81 H         -12.6600   15.1480   75.0660 H       1  UNL1        0.0750
     82 H         -11.8400   16.6490   74.2670 H       1  UNL1        0.0750
     83 C         -13.8560   15.9050   72.1030 C.3     1  UNL1        0.1930
     84 H         -14.5420   15.6740   74.1380 H       1  UNL1        0.2800
     85 H         -13.8700   17.2520   73.7910 H       1  UNL1        0.2800
     86 H         -13.7160   16.6940   71.3640 H       1  UNL1        0.1290
     87 H         -12.3890   15.7960   71.0800 H       1  UNL1        0.0460
     88 O         -15.0800   15.2600   71.7450 O.3     1  UNL1       -0.3690
     89 H         -15.7350   15.4170   72.4280 H       1  UNL1        0.2120
     90 C         -11.0800    9.3020   71.2640 C.3     1  UNL1       -0.0350
     91 H         -10.0660    8.9630   71.4800 H       1  UNL1        0.0370
     92 H         -11.4460   10.2330   71.6960 H       1  UNL1        0.0370
     93 C         -12.0380    8.1750   71.7650 C.3     1  UNL1       -0.0590
     94 H         -12.3050    7.5610   70.9060 H       1  UNL1        0.0380
     95 C         -11.3560    7.2470   72.8210 C.3     1  UNL1       -0.0730
     96 H         -11.8240    6.2630   72.7950 H       1  UNL1        0.0280
     97 H         -10.2950    7.1510   72.5880 H       1  UNL1        0.0280
     98 H         -11.4720    7.6800   73.8140 H       1  UNL1        0.0280
     99 C         -13.3360    8.7690   72.3210 C.3     1  UNL1       -0.0730
    100 H         -13.1800    9.0800   73.3540 H       1  UNL1        0.0280
    101 H         -13.6260    9.6320   71.7210 H       1  UNL1        0.0280
    102 H         -14.1250    8.0180   72.2820 H       1  UNL1        0.0280
@<TRIPOS>BOND
     1    17    16    2
     2    24    23   ar
     3    24    19   ar
     4    14    13    1
     5    31    29    1
     6    23    21   ar
     7    16    19    1
     8    16    15   am
     9    19    20   ar
    10    26    25    1
    11    21    20   ar
    12    21    25    1
    13    20    22    1
    14    27    25    1
    15    29    13    1
    16    29    32    1
    17    29    30    1
    18    13    15    1
    19    13    10    1
    20    15    18    1
    21    25    28    1
    22    11    10    2
    23    10     9   am
    24    70    67    1
    25    68    65    1
    26    67    65   ar
    27    67    69   ar
    28    65    63   ar
    29    71    69    1
    30     9    12    1
    31     9     7    1
    32    69    61   ar
    33    57    58    1
    34    57    55    1
    35    63    66    1
    36    63    62   ar
    37    60    58    1
    38    61    62   ar
    39    61    58    1
    40    62    64    1
    41    58    59    1
    42     8     7    1
    43    53    52    1
    44    55    56    2
    45    55    52    1
    46     7     4    1
    47     7    33    1
    48    54    52    1
    49    44    43    2
    50    52    49    1
    51    36    35    1
    52     4     5    2
    53     4     3   am
    54    38    35    1
    55    34    33    1
    56     6     3    1
    57    48    47    1
    58     3     1    1
    59     2     1    1
    60    35    33    1
    61    35    37    1
    62    33    39    1
    63    43     1    1
    64    43    45   am
    65     1    90    1
    66    49    47    1
    67    49    51    1
    68    49    50    1
    69    47    45    1
    70    47    72    1
    71    45    46    1
    72    40    39    1
    73    39    41    1
    74    39    42    1
    75    73    72    1
    76    94    93    1
    77    87    75    1
    78    90    91    1
    79    90    92    1
    80    90    93    1
    81    72    75    1
    82    72    74    1
    83    86    83    1
    84   101    99    1
    85    88    83    1
    86    88    89    1
    87    93    99    1
    88    93    95    1
    89    75    83    1
    90    75    76    1
    91    83    80    1
    92   102    99    1
    93    99   100    1
    94    97    95    1
    95    96    95    1
    96    95    98    1
    97    79    76    1
    98    76    78    1
    99    76    77    1
   100    80    85    1
   101    80    84    1
   102    80    77    1
   103    77    82    1
   104    77    81    1
@<TRIPOS>MOLECULE
crystal_redock_e24_er3_1.pdbqt
 102 104 0 0 0
SMALL
GASTEIGER

@<TRIPOS>ATOM
      1 C          -8.7790   10.2750   66.0090 C.3     1  UNL1        0.0890
      2 H          -9.4620    9.6720   65.4090 H       1  UNL1        0.0870
      3 N          -9.2720   11.6440   65.9890 N.am    1  UNL1       -0.3460
      4 C         -10.6980   11.9460   66.3770 C.2     1  UNL1        0.2410
      5 O         -11.4310   11.0690   66.6980 O.2     1  UNL1       -0.2710
      6 H          -8.6330   12.3750   65.7110 H       1  UNL1        0.1630
      7 C         -11.1890   13.3690   66.3560 C.3     1  UNL1        0.0920
      8 H         -12.2480   13.3870   66.6160 H       1  UNL1        0.0880
      9 N         -10.4800   14.1460   67.3770 N.am    1  UNL1       -0.3460
     10 C         -11.1200   14.4360   68.6370 C.2     1  UNL1        0.2400
     11 O         -12.2060   14.0520   68.8450 O.2     1  UNL1       -0.2710
     12 H          -9.5430   14.4850   67.2110 H       1  UNL1        0.1630
     13 C         -10.3600   15.2660   69.7180 C.3     1  UNL1        0.0860
     14 H          -9.7280   14.6490   70.3560 H       1  UNL1        0.0860
     15 N          -9.4810   16.2130   69.0530 N.am    1  UNL1       -0.3430
     16 C         -10.0580   17.2770   68.2290 C.2     1  UNL1        0.2730
     17 O         -11.2310   17.3610   68.1050 O.2     1  UNL1       -0.2660
     18 H          -8.4800   16.1330   69.1620 H       1  UNL1        0.1630
     19 C          -9.1410   18.2870   67.5220 C.ar    1  UNL1        0.1540
     20 C          -8.2320   19.2060   68.1350 C.ar    1  UNL1       -0.0170
     21 C          -7.6350   19.9000   67.0580 C.ar    1  UNL1        0.0770
     22 H          -8.0350   19.3480   69.1970 H       1  UNL1        0.0910
     23 O          -8.1470   19.4260   65.9600 O.2     1  UNL1       -0.2180
     24 N          -9.0290   18.4840   66.2050 N.ar    1  UNL1       -0.1230
     25 C          -6.5860   20.9980   67.1640 C.3     1  UNL1       -0.0290
     26 H          -5.5930   20.5500   67.2120 H       1  UNL1        0.0360
     27 H          -6.6490   21.6470   66.2910 H       1  UNL1        0.0360
     28 H          -6.7630   21.5850   68.0660 H       1  UNL1        0.0360
     29 C         -11.3540   16.0010   70.5810 C.3     1  UNL1       -0.0490
     30 H         -11.4790   15.4700   71.5240 H       1  UNL1        0.0300
     31 H         -10.9890   17.0100   70.7760 H       1  UNL1        0.0300
     32 H         -12.3130   16.0550   70.0650 H       1  UNL1        0.0300
     33 C         -10.9200   13.9910   64.9550 C.3     1  UNL1       -0.0330
     34 H          -9.9480   13.6320   64.6170 H       1  UNL1        0.0420
     35 C         -11.9810   13.5210   63.9110 C.3     1  UNL1       -0.0710
     36 H         -11.7230   12.5240   63.5550 H       1  UNL1        0.0280
     37 H         -12.9650   13.4950   64.3800 H       1  UNL1        0.0280
     38 H         -11.9960   14.2150   63.0710 H       1  UNL1        0.0280
     39 C         -10.8580   15.5500   65.0370 C.3     1  UNL1       -0.0710
     40 H          -9.8510   15.8600   65.3140 H       1  UNL1        0.0280
     41 H         -11.1150   15.9760   64.0660 H       1  UNL1        0.0280
     42 H         -11.5670   15.9020   65.7870 H       1  UNL1        0.0280
     43 C          -8.7130    9.7930   67.4860 C.2     1  UNL1        0.2400
     44 O          -8.0160   10.3610   68.2630 O.2     1  UNL1       -0.2710
     45 N          -9.5270    8.6270   67.9350 N.am    1  UNL1       -0.3550
     46 H         -10.1260    8.1390   67.2860 H       1  UNL1        0.1620
     47 C          -9.4540    8.1820   69.3440 C.3     1  UNL1        0.0130
     48 H          -8.9220    8.9470   69.9100 H       1  UNL1        0.0720
     49 C          -8.7050    6.8710   69.4160 C.3     1  UNL1       -0.0380
     50 H          -8.0840    6.8370   68.5200 H       1  UNL1        0.0360
     51 H          -8.2410    6.8510   70.4020 H       1  UNL1        0.0360
     52 C          -9.6380    5.6430   69.3470 C.3     1  UNL1        0.0180
     53 H          -9.2240    4.9170   70.0480 H       1  UNL1        0.0480
     54 H         -10.6470    6.0300   69.4960 H       1  UNL1        0.0480
     55 C          -9.6490    4.9410   67.9610 C.2     1  UNL1        0.2590
     56 O          -9.7300    3.7580   67.8840 O.2     1  UNL1       -0.2650
     57 O          -9.5470    5.7280   66.7800 O.3     1  UNL1       -0.3170
     58 C          -9.5180    4.9640   65.5710 C.3     1  UNL1        0.0520
     59 H          -9.4630    3.9210   65.8830 H       1  UNL1        0.0820
     60 H         -10.3660    5.3130   64.9820 H       1  UNL1        0.0820
     61 C          -8.2130    5.3200   64.8110 C.ar    1  UNL1       -0.0340
     62 C          -7.0260    5.5050   65.5130 C.ar    1  UNL1       -0.0750
     63 C          -5.8540    5.8240   64.8300 C.ar    1  UNL1       -0.0820
     64 H          -7.0150    5.3990   66.5980 H       1  UNL1        0.0840
     65 C          -5.8710    5.9610   63.4390 C.ar    1  UNL1       -0.0830
     66 H          -4.9250    5.9660   65.3820 H       1  UNL1        0.0830
     67 C          -7.0580    5.7780   62.7430 C.ar    1  UNL1       -0.0820
     68 H          -4.9590    6.2100   62.8970 H       1  UNL1        0.0830
     69 C          -8.2320    5.4570   63.4210 C.ar    1  UNL1       -0.0750
     70 H          -7.0690    5.8880   61.6580 H       1  UNL1        0.0830
     71 H          -9.1610    5.3140   62.8680 H       1  UNL1        0.0840
     72 C         -10.8640    7.9950   69.9000 C.3     1  UNL1       -0.0390
     73 H         -11.5350    8.2030   69.0660 H       1  UNL1        0.0360
     74 H         -10.8640    7.0090   70.3660 H       1  UNL1        0.0360
     75 C         -11.1950    9.0610   71.0490 C.3     1  UNL1       -0.0010
     76 C         -12.1350    8.3650   72.2050 C.3     1  UNL1       -0.0350
     77 C         -13.2150    9.1530   72.4210 C.3     1  UNL1        0.0850
     78 H         -12.5660    7.4380   71.8280 H       1  UNL1        0.0360
     79 H         -11.6170    8.3750   73.1640 H       1  UNL1        0.0360
     80 N         -13.2660   10.1520   71.2910 N.4     1  UNL1       -0.0490
     81 H         -14.0780    8.4900   72.3490 H       1  UNL1        0.0750
     82 H         -13.0090    9.6800   73.3520 H       1  UNL1        0.0750
     83 C         -11.8220   10.0830   70.5720 C.3     1  UNL1        0.1930
     84 H         -13.9640    9.8160   70.6430 H       1  UNL1        0.2800
     85 H         -13.3690   11.0620   71.7180 H       1  UNL1        0.2800
     86 H         -11.0830   10.8660   70.7390 H       1  UNL1        0.1290
     87 H         -10.3050    9.5930   71.3870 H       1  UNL1        0.0460
     88 O         -11.9810   10.0050   69.1540 O.3     1  UNL1       -0.3690
     89 H         -11.1260   10.1040   68.7300 H       1  UNL1        0.2120
     90 C          -7.3880   10.2400   65.3970 C.3     1  UNL1       -0.0350
     91 H          -7.2150   11.2460   65.0140 H       1  UNL1        0.0370
     92 H          -6.7400    9.8350   66.1750 H       1  UNL1        0.0370
     93 C          -7.2650    9.2750   64.1750 C.3     1  UNL1       -0.0590
     94 H          -7.0070    8.2870   64.5580 H       1  UNL1        0.0380
     95 C          -8.6090    9.1450   63.3880 C.3     1  UNL1       -0.0730
     96 H          -9.4400    9.1180   64.0930 H       1  UNL1        0.0280
     97 H          -8.7240   10.0010   62.7230 H       1  UNL1        0.0280
     98 H          -8.5990    8.2270   62.8010 H       1  UNL1        0.0280
     99 C          -6.1300    9.7120   63.2450 C.3     1  UNL1       -0.0730
    100 H          -5.2030    9.2220   63.5470 H       1  UNL1        0.0280
    101 H          -6.3720    9.4310   62.2200 H       1  UNL1        0.0280
    102 H          -6.0060   10.7930   63.3060 H       1  UNL1        0.0280
@<TRIPOS>BOND
     1    70    67    1
     2   101    99    1
     3    97    95    1
     4    67    69   ar
     5    67    65   ar
     6    98    95    1
     7    71    69    1
     8    68    65    1
     9    38    35    1
    10    99   102    1
    11    99   100    1
    12    99    93    1
    13    95    96    1
    14    95    93    1
    15    69    61   ar
    16    65    63   ar
    17    36    35    1
    18    35    37    1
    19    35    33    1
    20    41    39    1
    21    93    94    1
    22    93    90    1
    23    34    33    1
    24    61    62   ar
    25    61    58    1
    26    63    66    1
    27    63    62   ar
    28    33    39    1
    29    33     7    1
    30    60    58    1
    31    91    90    1
    32    39    40    1
    33    39    42    1
    34    90     1    1
    35    90    92    1
    36     2     1    1
    37    62    64    1
    38    58    59    1
    39    58    57    1
    40     6     3    1
    41    23    24   ar
    42    23    21   ar
    43     3     1    1
    44     3     4   am
    45     1    43    1
    46    24    19   ar
    47    27    25    1
    48     7     4    1
    49     7     8    1
    50     7     9    1
    51     4     5    2
    52    57    55    1
    53    21    25    1
    54    21    20   ar
    55    25    26    1
    56    25    28    1
    57    12     9    1
    58    46    45    1
    59     9    10   am
    60    43    45   am
    61    43    44    2
    62    19    20   ar
    63    19    16    1
    64    56    55    2
    65    45    47    1
    66    55    52    1
    67    17    16    2
    68    20    22    1
    69    16    15   am
    70    50    49    1
    71    10    11    2
    72    10    13    1
    73    89    88    1
    74    15    18    1
    75    15    13    1
    76    73    72    1
    77    88    83    1
    78    47    49    1
    79    47    72    1
    80    47    48    1
    81    52    49    1
    82    52    54    1
    83    52    53    1
    84    49    51    1
    85    13    14    1
    86    13    29    1
    87    72    74    1
    88    72    75    1
    89    32    29    1
    90    83    86    1
    91    83    75    1
    92    83    80    1
    93    29    31    1
    94    29    30    1
    95    84    80    1
    96    75    87    1
    97    75    76    1
    98    80    85    1
    99    80    77    1
   100    78    76    1
   101    76    77    1
   102    76    79    1
   103    81    77    1
   104    77    82    1
@<TRIPOS>MOLECULE
crystal_redock_e24_er3_1.pdbqt
 102 104 0 0 0
SMALL
GASTEIGER

@<TRIPOS>ATOM
      1 C          -6.8110   13.5310   68.1170 C.3     1  UNL1        0.0890
      2 H          -6.1940   13.4570   67.2220 H       1  UNL1        0.0870
      3 N          -7.0870   14.9420   68.3440 N.am    1  UNL1       -0.3460
      4 C          -6.2490   16.0000   67.6720 C.2     1  UNL1        0.2410
      5 O          -5.3540   15.6910   66.9550 O.2     1  UNL1       -0.2710
      6 H          -7.8510   15.1830   68.9590 H       1  UNL1        0.1630
      7 C          -6.5520   17.4550   67.9130 C.3     1  UNL1        0.0920
      8 H          -6.2450   18.0340   67.0430 H       1  UNL1        0.0880
      9 N          -8.0000   17.6340   68.0640 N.am    1  UNL1       -0.3460
     10 C          -8.8280   17.8180   66.8970 C.2     1  UNL1        0.2400
     11 O          -8.3460   17.8260   65.8300 O.2     1  UNL1       -0.2710
     12 H          -8.4290   17.6310   68.9780 H       1  UNL1        0.1630
     13 C         -10.3670   18.0110   67.0640 C.3     1  UNL1        0.0860
     14 H         -10.9440   17.4700   66.3140 H       1  UNL1        0.0860
     15 N         -10.7710   17.4870   68.3570 N.am    1  UNL1       -0.3430
     16 C         -11.2870   16.1190   68.4520 C.2     1  UNL1        0.2730
     17 O         -11.3760   15.4510   67.4810 O.2     1  UNL1       -0.2660
     18 H         -10.6940   18.0660   69.1820 H       1  UNL1        0.1630
     19 C         -11.7160   15.5510   69.8140 C.ar    1  UNL1        0.1540
     20 C         -11.6890   16.2210   71.0780 C.ar    1  UNL1       -0.0170
     21 C         -12.1810   15.2720   72.0020 C.ar    1  UNL1        0.0770
     22 H         -11.3630   17.2390   71.2910 H       1  UNL1        0.0910
     23 O         -12.4560   14.1890   71.3370 O.2     1  UNL1       -0.2180
     24 N         -12.1930   14.3270   70.0580 N.ar    1  UNL1       -0.1230
     25 C         -12.3560   15.4810   73.5010 C.3     1  UNL1       -0.0290
     26 H         -13.0510   14.7380   73.8930 H       1  UNL1        0.0360
     27 H         -11.3920   15.3750   73.9980 H       1  UNL1        0.0360
     28 H         -12.7510   16.4810   73.6850 H       1  UNL1        0.0360
     29 C         -10.7050   19.4780   66.9730 C.3     1  UNL1       -0.0490
     30 H         -11.6940   19.5960   66.5310 H       1  UNL1        0.0300
     31 H         -10.6980   19.9150   67.9710 H       1  UNL1        0.0300
     32 H          -9.9670   19.9820   66.3500 H       1  UNL1        0.0300
     33 C          -5.8370   17.9260   69.2130 C.3     1  UNL1       -0.0330
     34 H          -6.0890   17.2170   70.0020 H       1  UNL1        0.0420
     35 C          -4.2850   17.9090   69.0460 C.3     1  UNL1       -0.0710
     36 H          -4.0040   17.1200   68.3470 H       1  UNL1        0.0280
     37 H          -3.9510   18.8710   68.6590 H       1  UNL1        0.0280
     38 H          -3.8180   17.7230   70.0120 H       1  UNL1        0.0280
     39 C          -6.3440   19.3370   69.6510 C.3     1  UNL1       -0.0710
     40 H          -5.9240   19.5880   70.6250 H       1  UNL1        0.0280
     41 H          -6.0290   20.0800   68.9180 H       1  UNL1        0.0280
     42 H          -7.4320   19.3280   69.7160 H       1  UNL1        0.0280
     43 C          -8.1640   12.7800   67.9620 C.2     1  UNL1        0.2400
     44 O          -9.1630   13.2680   68.3820 O.2     1  UNL1       -0.2710
     45 N          -8.2160   11.4550   67.2800 N.am    1  UNL1       -0.3550
     46 H          -7.3750   11.0320   66.9150 H       1  UNL1        0.1620
     47 C          -9.5110   10.7540   67.1390 C.3     1  UNL1        0.0130
     48 H         -10.2970   11.4300   67.4760 H       1  UNL1        0.0720
     49 C          -9.5000    9.5070   67.9940 C.3     1  UNL1       -0.0380
     50 H         -10.4290    8.9840   67.7640 H       1  UNL1        0.0360
     51 H          -8.5410    9.0270   67.8010 H       1  UNL1        0.0360
     52 C          -9.5370    9.8170   69.5060 C.3     1  UNL1        0.0180
     53 H          -8.6570    9.3330   69.9290 H       1  UNL1        0.0480
     54 H          -9.6540   10.8990   69.5830 H       1  UNL1        0.0480
     55 C         -10.7600    9.2020   70.2420 C.2     1  UNL1        0.2590
     56 O         -11.7760    9.8090   70.3360 O.2     1  UNL1       -0.2650
     57 O         -10.6470    7.9050   70.8160 O.3     1  UNL1       -0.3170
     58 C         -11.6090    6.9660   70.3270 C.3     1  UNL1        0.0520
     59 H         -11.8750    6.3440   71.1810 H       1  UNL1        0.0820
     60 H         -12.3730    7.5600   69.8260 H       1  UNL1        0.0820
     61 C         -10.9100    6.0720   69.2670 C.ar    1  UNL1       -0.0340
     62 C         -10.0790    5.0330   69.6720 C.ar    1  UNL1       -0.0750
     63 C          -9.4510    4.2300   68.7210 C.ar    1  UNL1       -0.0820
     64 H          -9.9190    4.8470   70.7340 H       1  UNL1        0.0840
     65 C          -9.6550    4.4720   67.3590 C.ar    1  UNL1       -0.0830
     66 H          -8.8020    3.4150   69.0410 H       1  UNL1        0.0830
     67 C         -10.4830    5.5130   66.9600 C.ar    1  UNL1       -0.0820
     68 H          -9.1680    3.8490   66.6090 H       1  UNL1        0.0830
     69 C         -11.1140    6.3160   67.9080 C.ar    1  UNL1       -0.0750
     70 H         -10.6380    5.7000   65.8980 H       1  UNL1        0.0830
     71 H         -11.7630    7.1310   67.5870 H       1  UNL1        0.0840
     72 C          -9.7330   10.3690   65.6780 C.3     1  UNL1       -0.0390
     73 H          -8.7680   10.0030   65.3250 H       1  UNL1        0.0360
     74 H         -10.5980    9.7060   65.6810 H       1  UNL1        0.0360
     75 C         -10.1140   11.6400   64.7810 C.3     1  UNL1       -0.0010
     76 C         -11.4710   12.3560   65.3720 C.3     1  UNL1       -0.0350
     77 C         -12.3580   12.5130   64.3610 C.3     1  UNL1        0.0850
     78 H         -11.9820   11.6800   66.0570 H       1  UNL1        0.0360
     79 H         -11.2510   13.3790   65.6790 H       1  UNL1        0.0360
     80 N         -11.8630   11.6760   63.2060 N.4     1  UNL1       -0.0490
     81 H         -13.2960   12.0940   64.7280 H       1  UNL1        0.0750
     82 H         -12.3030   13.5660   64.0860 H       1  UNL1        0.0750
     83 C         -10.3330   11.2980   63.5550 C.3     1  UNL1        0.1930
     84 H         -12.4130   10.8290   63.2100 H       1  UNL1        0.2800
     85 H         -11.8690   12.2770   62.3940 H       1  UNL1        0.2800
     86 H          -9.5090   11.8090   63.0560 H       1  UNL1        0.1290
     87 H          -9.2560   12.2840   64.5920 H       1  UNL1        0.0460
     88 O         -10.1070    9.9050   63.3350 O.3     1  UNL1       -0.3690
     89 H         -10.7670    9.3950   63.8110 H       1  UNL1        0.2120
     90 C          -6.0530   12.9760   69.3130 C.3     1  UNL1       -0.0350
     91 H          -6.8130   12.5370   69.9590 H       1  UNL1        0.0370
     92 H          -5.2680   12.3480   68.8900 H       1  UNL1        0.0370
     93 C          -5.3320   14.0710   70.1610 C.3     1  UNL1       -0.0590
     94 H          -5.7270   15.0400   69.8550 H       1  UNL1        0.0380
     95 C          -5.6060   13.9070   71.6910 C.3     1  UNL1       -0.0730
     96 H          -4.8350   13.2770   72.1320 H       1  UNL1        0.0280
     97 H          -5.5940   14.8870   72.1690 H       1  UNL1        0.0280
     98 H          -6.5820   13.4440   71.8370 H       1  UNL1        0.0280
     99 C          -3.8280   14.0820   69.8760 C.3     1  UNL1       -0.0730
    100 H          -3.6570   13.8670   68.8210 H       1  UNL1        0.0280
    101 H          -3.4200   15.0640   70.1170 H       1  UNL1        0.0280
    102 H          -3.3370   13.3250   70.4860 H       1  UNL1        0.0280
@<TRIPOS>BOND
     1    85    80    1
     2    86    83    1
     3    80    84    1
     4    80    83    1
     5    80    77    1
     6    88    83    1
     7    88    89    1
     8    83    75    1
     9    82    77    1
    10    77    81    1
    11    77    76    1
    12    87    75    1
    13    75    76    1
    14    75    72    1
    15    73    72    1
    16    76    79    1
    17    76    78    1
    18    72    74    1
    19    72    47    1
    20    11    10    2
    21    70    67    1
    22    14    13    1
    23    32    29    1
    24    30    29    1
    25    68    65    1
    26    10    13    1
    27    10     9   am
    28    46    45    1
    29     5     4    2
    30    67    65   ar
    31    67    69   ar
    32    29    13    1
    33    29    31    1
    34     8     7    1
    35    13    15    1
    36    47    45    1
    37    47    48    1
    38    47    49    1
    39     2     1    1
    40    45    43   am
    41    65    63   ar
    42    17    16    2
    43    71    69    1
    44     4     7    1
    45     4     3   am
    46    50    49    1
    47    51    49    1
    48    69    61   ar
    49     7     9    1
    50     7    33    1
    51    43     1    1
    52    43    44    2
    53    49    52    1
    54     9    12    1
    55     1     3    1
    56     1    90    1
    57     3     6    1
    58    36    35    1
    59    15    16   am
    60    15    18    1
    61    16    19    1
    62    37    35    1
    63    63    66    1
    64    63    62   ar
    65   100    99    1
    66    92    90    1
    67    41    39    1
    68    35    33    1
    69    35    38    1
    70    33    39    1
    71    33    34    1
    72    61    62   ar
    73    61    58    1
    74    90    91    1
    75    90    93    1
    76    52    54    1
    77    52    53    1
    78    52    55    1
    79    39    42    1
    80    39    40    1
    81    62    64    1
    82    19    24   ar
    83    19    20   ar
    84    60    58    1
    85    94    93    1
    86    99   101    1
    87    99    93    1
    88    99   102    1
    89    24    23   ar
    90    93    95    1
    91    55    56    2
    92    55    57    1
    93    58    57    1
    94    58    59    1
    95    20    22    1
    96    20    21   ar
    97    23    21   ar
    98    95    98    1
    99    95    96    1
   100    95    97    1
   101    21    25    1
   102    25    28    1
   103    25    26    1
   104    25    27    1
@<TRIPOS>MOLECULE
crystal_redock_e24_er3_1.pdbqt
 102 104 0 0 0
SMALL
GASTEIGER

@<TRIPOS>ATOM
      1 C         -11.6430   15.2280   70.1740 C.3     1  UNL1        0.0890
      2 H         -12.6550   15.4830   69.8590 H       1  UNL1        0.0870
      3 N         -11.4180   13.8300   69.8350 N.am    1  UNL1       -0.3460
      4 C         -11.8450   13.2940   68.4920 C.2     1  UNL1        0.2410
      5 O         -12.3710   14.0060   67.7010 O.2     1  UNL1       -0.2710
      6 H         -10.9710   13.2410   70.5230 H       1  UNL1        0.1630
      7 C         -11.5990   11.8470   68.1550 C.3     1  UNL1        0.0920
      8 H         -12.5310   11.3930   67.8190 H       1  UNL1        0.0880
      9 N         -10.6480   11.7580   67.0430 N.am    1  UNL1       -0.3460
     10 C         -11.1280   11.7490   65.6830 C.2     1  UNL1        0.2400
     11 O         -12.2770   11.8110   65.4660 O.2     1  UNL1       -0.2710
     12 H          -9.6540   11.7020   67.2150 H       1  UNL1        0.1630
     13 C         -10.1120   11.6510   64.5040 C.3     1  UNL1        0.0860
     14 H          -9.2740   12.3400   64.6120 H       1  UNL1        0.0860
     15 N          -9.5480   10.3110   64.4770 N.am    1  UNL1       -0.3430
     16 C          -8.3190   10.0310   65.2220 C.2     1  UNL1        0.2730
     17 O          -7.7890   10.8900   65.8370 O.2     1  UNL1       -0.2660
     18 H         -10.0060    9.5840   63.9470 H       1  UNL1        0.1630
     19 C          -7.7130    8.6190   65.2040 C.ar    1  UNL1        0.1540
     20 C          -6.8550    8.0590   64.2040 C.ar    1  UNL1       -0.0170
     21 C          -6.5820    6.7470   64.6530 C.ar    1  UNL1        0.0770
     22 H          -6.4880    8.5310   63.2930 H       1  UNL1        0.0910
     23 O          -7.2120    6.5850   65.7800 O.2     1  UNL1       -0.2180
     24 N          -7.8790    7.6630   66.1210 N.ar    1  UNL1       -0.1230
     25 C          -5.7100    5.7170   63.9490 C.3     1  UNL1       -0.0290
     26 H          -5.8100    5.8320   62.8690 H       1  UNL1        0.0360
     27 H          -4.6690    5.8650   64.2350 H       1  UNL1        0.0360
     28 H          -6.0260    4.7140   64.2380 H       1  UNL1        0.0360
     29 C         -10.8170   11.9410   63.2030 C.3     1  UNL1       -0.0490
     30 H         -10.1080   11.8600   62.3790 H       1  UNL1        0.0300
     31 H         -11.6240   11.2230   63.0600 H       1  UNL1        0.0300
     32 H         -11.2270   12.9500   63.2300 H       1  UNL1        0.0300
     33 C         -11.0090   11.1190   69.3980 C.3     1  UNL1       -0.0330
     34 H         -10.4900   11.8640   70.0010 H       1  UNL1        0.0420
     35 C         -12.1360   10.5020   70.2840 C.3     1  UNL1       -0.0710
     36 H         -12.8980   11.2560   70.4790 H       1  UNL1        0.0280
     37 H         -12.5860    9.6570   69.7620 H       1  UNL1        0.0280
     38 H         -11.7100   10.1610   71.2280 H       1  UNL1        0.0280
     39 C          -9.9680   10.0350   68.9700 C.3     1  UNL1       -0.0710
     40 H         -10.0510    9.8550   67.8980 H       1  UNL1        0.0280
     41 H          -8.9620   10.3850   69.2030 H       1  UNL1        0.0280
     42 H         -10.1640    9.1090   69.5100 H       1  UNL1        0.0280
     43 C         -10.5680   16.0920   69.4540 C.2     1  UNL1        0.2400
     44 O         -10.3980   17.2200   69.7850 O.2     1  UNL1       -0.2710
     45 N          -9.7440   15.5090   68.3570 N.am    1  UNL1       -0.3550
     46 H          -9.8760   14.5500   68.0700 H       1  UNL1        0.1620
     47 C          -8.7250   16.3430   67.6840 C.3     1  UNL1        0.0130
     48 H          -8.6590   17.2890   68.2200 H       1  UNL1        0.0720
     49 C          -9.1470   16.5880   66.2530 C.3     1  UNL1       -0.0380
     50 H          -8.3740   17.2270   65.8230 H       1  UNL1        0.0360
     51 H          -9.3370   15.6020   65.8290 H       1  UNL1        0.0360
     52 C         -10.4720   17.3730   66.1440 C.3     1  UNL1        0.0180
     53 H         -10.6930   17.4340   65.0780 H       1  UNL1        0.0480
     54 H         -11.1680   16.8710   66.8170 H       1  UNL1        0.0480
     55 C         -10.3740   18.8400   66.6460 C.2     1  UNL1        0.2590
     56 O         -11.2250   19.3000   67.3350 O.2     1  UNL1       -0.2650
     57 O          -9.2590   19.6350   66.2610 O.3     1  UNL1       -0.3170
     58 C          -8.6880   20.3950   67.3310 C.3     1  UNL1        0.0520
     59 H          -8.4150   21.3560   66.8960 H       1  UNL1        0.0820
     60 H          -9.4130   20.3510   68.1430 H       1  UNL1        0.0820
     61 C          -7.3920   19.6760   67.7900 C.ar    1  UNL1       -0.0340
     62 C          -6.4250   19.3190   66.8560 C.ar    1  UNL1       -0.0750
     63 C          -5.2600   18.6730   67.2680 C.ar    1  UNL1       -0.0820
     64 H          -6.5800   19.5440   65.8010 H       1  UNL1        0.0840
     65 C          -5.0650   18.3830   68.6210 C.ar    1  UNL1       -0.0830
     66 H          -4.5040   18.3960   66.5340 H       1  UNL1        0.0830
     67 C          -6.0340   18.7390   69.5490 C.ar    1  UNL1       -0.0820
     68 H          -4.1570   17.8790   68.9520 H       1  UNL1        0.0830
     69 C          -7.1990   19.3860   69.1420 C.ar    1  UNL1       -0.0750
     70 H          -5.8800   18.5090   70.6040 H       1  UNL1        0.0830
     71 H          -7.9540   19.6630   69.8770 H       1  UNL1        0.0840
     72 C          -7.3770   15.6260   67.7030 C.3     1  UNL1       -0.0390
     73 H          -7.3100   15.1080   66.7460 H       1  UNL1        0.0360
     74 H          -6.6450   16.3920   67.9590 H       1  UNL1        0.0360
     75 C          -7.3150   14.5100   68.8500 C.3     1  UNL1       -0.0010
     76 C          -6.2410   14.9600   70.0110 C.3     1  UNL1       -0.0350
     77 C          -5.3800   13.9370   70.2290 C.3     1  UNL1        0.0850
     78 H          -5.6000   15.7580   69.6390 H       1  UNL1        0.0360
     79 H          -6.7510   15.0720   70.9690 H       1  UNL1        0.0360
     80 N          -5.5630   12.9570   69.0960 N.4     1  UNL1       -0.0490
     81 H          -4.3840   14.3760   70.1630 H       1  UNL1        0.0750
     82 H          -5.7100   13.4720   71.1580 H       1  UNL1        0.0750
     83 C          -6.9460   13.3680   68.3720 C.3     1  UNL1        0.1930
     84 H          -4.8020   13.1180   68.4520 H       1  UNL1        0.2800
     85 H          -5.6810   12.0480   69.5210 H       1  UNL1        0.2800
     86 H          -7.8510   12.7840   68.5340 H       1  UNL1        0.1290
     87 H          -8.3070   14.2040   69.1830 H       1  UNL1        0.0460
     88 O          -6.7660   13.4100   66.9550 O.3     1  UNL1       -0.3690
     89 H          -6.0410   14.0000   66.7420 H       1  UNL1        0.2120
     90 C         -11.5140   15.4000   71.6790 C.3     1  UNL1       -0.0350
     91 H         -10.9440   14.5350   72.0210 H       1  UNL1        0.0370
     92 H         -11.1160   16.4050   71.8210 H       1  UNL1        0.0370
     93 C         -12.8800   15.3550   72.4340 C.3     1  UNL1       -0.0590
     94 H         -13.5740   16.0050   71.9020 H       1  UNL1        0.0380
     95 C         -13.4940   13.9180   72.4570 C.3     1  UNL1       -0.0730
     96 H         -12.9530   13.3040   73.1760 H       1  UNL1        0.0280
     97 H         -14.5440   13.9760   72.7460 H       1  UNL1        0.0280
     98 H         -13.4140   13.4740   71.4650 H       1  UNL1        0.0280
     99 C         -12.7380   15.9090   73.8550 C.3     1  UNL1       -0.0730
    100 H         -13.5990   16.5350   74.0890 H       1  UNL1        0.0280
    101 H         -12.6860   15.0820   74.5630 H       1  UNL1        0.0280
    102 H         -11.8270   16.5030   73.9230 H       1  UNL1        0.0280
@<TRIPOS>BOND
     1    30    29    1
     2    26    25    1
     3    31    29    1
     4    29    32    1
     5    29    13    1
     6    22    20    1
     7    18    15    1
     8    25    27    1
     9    25    28    1
    10    25    21    1
    11    20    21   ar
    12    20    19   ar
    13    15    13    1
    14    15    16   am
    15    13    14    1
    16    13    10    1
    17    21    23   ar
    18    53    52    1
    19    19    16    1
    20    19    24   ar
    21    16    17    2
    22    11    10    2
    23    10     9   am
    24    23    24   ar
    25    64    62    1
    26    50    49    1
    27    51    49    1
    28    52    49    1
    29    52    55    1
    30    52    54    1
    31    49    47    1
    32    57    55    1
    33    57    58    1
    34    66    63    1
    35    55    56    2
    36    89    88    1
    37    73    72    1
    38    62    63   ar
    39    62    61   ar
    40    59    58    1
    41    88    83    1
    42     9    12    1
    43     9     7    1
    44    63    65   ar
    45    58    61    1
    46    58    60    1
    47    47    72    1
    48    47    48    1
    49    47    45    1
    50     5     4    2
    51    72    74    1
    52    72    75    1
    53    61    69   ar
    54     8     7    1
    55    40    39    1
    56    46    45    1
    57     7     4    1
    58     7    33    1
    59    45    43   am
    60    83    86    1
    61    83    75    1
    62    83    80    1
    63    84    80    1
    64     4     3   am
    65    65    68    1
    66    65    67   ar
    67    75    87    1
    68    75    76    1
    69    39    41    1
    70    39    33    1
    71    39    42    1
    72    80    85    1
    73    80    77    1
    74    69    67   ar
    75    69    71    1
    76    33    34    1
    77    33    35    1
    78    43    44    2
    79    43     1    1
    80    67    70    1
    81    78    76    1
    82    37    35    1
    83     3     1    1
    84     3     6    1
    85     2     1    1
    86    76    77    1
    87    76    79    1
    88    81    77    1
    89     1    90    1
    90    77    82    1
    91    35    36    1
    92    35    38    1
    93    98    95    1
    94    90    92    1
    95    90    91    1
    96    90    93    1
    97    94    93    1
    98    93    95    1
    99    93    99    1
   100    95    97    1
   101    95    96    1
   102    99   102    1
   103    99   100    1
   104    99   101    1
@<TRIPOS>MOLECULE
crystal_redock_e24_er3_1.pdbqt
 102 104 0 0 0
SMALL
GASTEIGER

@<TRIPOS>ATOM
      1 C          -8.3080    8.5630   63.0330 C.3     1  UNL1        0.0890
      2 H          -9.1910    8.8470   62.4580 H       1  UNL1        0.0870
      3 N          -8.3750    9.2560   64.3110 N.am    1  UNL1       -0.3460
      4 C          -9.4700   10.2580   64.5770 C.2     1  UNL1        0.2410
      5 O         -10.2840   10.4930   63.7460 O.2     1  UNL1       -0.2710
      6 H          -7.6720    9.0440   65.0040 H       1  UNL1        0.1630
      7 C          -9.5280   10.9620   65.9070 C.3     1  UNL1        0.0920
      8 H          -8.5780   11.4650   66.0890 H       1  UNL1        0.0880
      9 N         -10.5660   11.9970   65.8690 N.am    1  UNL1       -0.3460
     10 C         -10.2820   13.3200   66.3680 C.2     1  UNL1        0.2400
     11 O          -9.2260   13.5690   66.8050 O.2     1  UNL1       -0.2710
     12 H         -11.4830   11.7970   65.4960 H       1  UNL1        0.1630
     13 C         -11.3920   14.4160   66.3270 C.3     1  UNL1        0.0860
     14 H         -11.9510   14.4850   67.2600 H       1  UNL1        0.0860
     15 N         -10.7670   15.7120   66.1210 N.am    1  UNL1       -0.3430
     16 C         -10.6520   16.6450   67.2440 C.2     1  UNL1        0.2730
     17 O         -11.0680   16.3440   68.3090 O.2     1  UNL1       -0.2660
     18 H         -10.4160   15.9620   65.2070 H       1  UNL1        0.1630
     19 C          -9.9920   18.0170   67.0410 C.ar    1  UNL1        0.1540
     20 C          -8.7210   18.4480   67.5380 C.ar    1  UNL1       -0.0170
     21 C          -8.5810   19.7760   67.0780 C.ar    1  UNL1        0.0770
     22 H          -8.0090   17.8830   68.1400 H       1  UNL1        0.0910
     23 O          -9.6510   20.0640   66.3960 O.2     1  UNL1       -0.2180
     24 N         -10.4890   19.0540   66.3610 N.ar    1  UNL1       -0.1230
     25 C          -7.3960   20.6980   67.3320 C.3     1  UNL1       -0.0290
     26 H          -6.6420   20.1700   67.9160 H       1  UNL1        0.0360
     27 H          -6.9670   21.0080   66.3790 H       1  UNL1        0.0360
     28 H          -7.7310   21.5780   67.8820 H       1  UNL1        0.0360
     29 C         -12.3520   14.1220   65.2030 C.3     1  UNL1       -0.0490
     30 H         -12.9150   13.2170   65.4340 H       1  UNL1        0.0300
     31 H         -13.0410   14.9580   65.0850 H       1  UNL1        0.0300
     32 H         -11.7950   13.9750   64.2780 H       1  UNL1        0.0300
     33 C          -9.8680    9.9320   67.0240 C.3     1  UNL1       -0.0330
     34 H          -9.9680    8.9550   66.5510 H       1  UNL1        0.0420
     35 C          -8.7160    9.8290   68.0720 C.3     1  UNL1       -0.0710
     36 H          -8.5190   10.8150   68.4930 H       1  UNL1        0.0280
     37 H          -9.0100    9.1460   68.8690 H       1  UNL1        0.0280
     38 H          -7.8160    9.4550   67.5860 H       1  UNL1        0.0280
     39 C         -11.2280   10.2790   67.7100 C.3     1  UNL1       -0.0710
     40 H         -12.0370    9.7580   67.1980 H       1  UNL1        0.0280
     41 H         -11.1990    9.9670   68.7540 H       1  UNL1        0.0280
     42 H         -11.3970   11.3540   67.6570 H       1  UNL1        0.0280
     43 C          -8.2490    7.0320   63.3010 C.2     1  UNL1        0.2400
     44 O          -7.8620    6.2970   62.4510 O.2     1  UNL1       -0.2710
     45 N          -8.6670    6.4830   64.6230 N.am    1  UNL1       -0.3550
     46 H          -8.9930    7.0980   65.3540 H       1  UNL1        0.1620
     47 C          -8.6040    5.0250   64.8630 C.3     1  UNL1        0.0130
     48 H          -8.3550    4.5400   63.9200 H       1  UNL1        0.0720
     49 C          -9.9490    4.5410   65.3540 C.3     1  UNL1       -0.0380
     50 H         -10.6720    5.2790   65.0080 H       1  UNL1        0.0360
     51 H         -10.0270    3.5040   65.0240 H       1  UNL1        0.0360
     52 C         -10.0520    4.5170   66.8950 C.3     1  UNL1        0.0180
     53 H         -10.8700    3.8340   67.1260 H       1  UNL1        0.0480
     54 H          -9.0450    4.3040   67.2550 H       1  UNL1        0.0480
     55 C         -10.4480    5.8850   67.5170 C.2     1  UNL1        0.2590
     56 O         -11.1440    6.6410   66.9190 O.2     1  UNL1       -0.2650
     57 O          -9.9600    6.2310   68.8070 O.3     1  UNL1       -0.3170
     58 C         -10.7730    5.7570   69.8840 C.3     1  UNL1        0.0520
     59 H         -11.5700    5.1780   69.4190 H       1  UNL1        0.0820
     60 H         -10.0870    5.2770   70.5820 H       1  UNL1        0.0820
     61 C         -11.4040    6.9890   70.5850 C.ar    1  UNL1       -0.0340
     62 C         -12.6840    6.9040   71.1240 C.ar    1  UNL1       -0.0750
     63 C         -13.2520    8.0100   71.7540 C.ar    1  UNL1       -0.0820
     64 H         -13.2420    5.9700   71.0530 H       1  UNL1        0.0840
     65 C         -12.5360    9.2070   71.8410 C.ar    1  UNL1       -0.0830
     66 H         -14.2540    7.9400   72.1770 H       1  UNL1        0.0830
     67 C         -11.2600    9.2890   71.2990 C.ar    1  UNL1       -0.0820
     68 H         -12.9720   10.0770   72.3330 H       1  UNL1        0.0830
     69 C         -10.6880    8.1850   70.6710 C.ar    1  UNL1       -0.0750
     70 H         -10.7050   10.2240   71.3670 H       1  UNL1        0.0830
     71 H          -9.6850    8.2560   70.2490 H       1  UNL1        0.0840
     72 C          -7.5380    4.7200   65.9140 C.3     1  UNL1       -0.0390
     73 H          -8.0570    4.7520   66.8720 H       1  UNL1        0.0360
     74 H          -7.0600    3.7980   65.5830 H       1  UNL1        0.0360
     75 C          -6.4050    5.8520   65.9540 C.3     1  UNL1       -0.0010
     76 C          -5.0320    5.2960   65.2390 C.3     1  UNL1       -0.0350
     77 C          -3.9890    5.4990   66.0790 C.3     1  UNL1        0.0850
     78 H          -5.0740    4.2110   65.1420 H       1  UNL1        0.0360
     79 H          -4.7860    5.9110   64.3730 H       1  UNL1        0.0360
     80 N          -4.5700    5.8420   67.4290 N.4     1  UNL1       -0.0490
     81 H          -3.4770    4.5380   66.1460 H       1  UNL1        0.0750
     82 H          -3.4650    6.3700   65.6860 H       1  UNL1        0.0750
     83 C          -6.1250    6.1910   67.1680 C.3     1  UNL1        0.1930
     84 H          -4.5190    5.0000   67.9850 H       1  UNL1        0.2800
     85 H          -4.1000    6.6810   67.7380 H       1  UNL1        0.2800
     86 H          -6.4680    7.2260   67.1690 H       1  UNL1        0.1290
     87 H          -6.7780    6.8220   65.6240 H       1  UNL1        0.0460
     88 O          -6.9480    5.5150   68.1200 O.3     1  UNL1       -0.3690
     89 H          -7.8710    5.6960   67.9300 H       1  UNL1        0.2120
     90 C          -7.0520    9.0020   62.2960 C.3     1  UNL1       -0.0350
     91 H          -6.8340    8.1970   61.5930 H       1  UNL1        0.0370
     92 H          -7.2690   10.0040   61.9270 H       1  UNL1        0.0370
     93 C          -5.7990    9.1330   63.2190 C.3     1  UNL1       -0.0590
     94 H          -6.1140    8.9110   64.2380 H       1  UNL1        0.0380
     95 C          -4.6750    8.1180   62.8350 C.3     1  UNL1       -0.0730
     96 H          -3.7100    8.5050   63.1600 H       1  UNL1        0.0280
     97 H          -4.8670    7.1620   63.3240 H       1  UNL1        0.0280
     98 H          -4.6670    7.9770   61.7540 H       1  UNL1        0.0280
     99 C          -5.2630   10.5670   63.2110 C.3     1  UNL1       -0.0730
    100 H          -4.8410   10.7920   62.2310 H       1  UNL1        0.0280
    101 H          -6.0770   11.2610   63.4240 H       1  UNL1        0.0280
    102 H          -4.4900   10.6700   63.9720 H       1  UNL1        0.0280
@<TRIPOS>BOND
     1    91    90    1
     2    98    95    1
     3    92    90    1
     4   100    99    1
     5    90     1    1
     6    90    93    1
     7    44    43    2
     8     2     1    1
     9    95    96    1
    10    95    93    1
    11    95    97    1
    12     1    43    1
    13     1     3    1
    14    99    93    1
    15    99   101    1
    16    99   102    1
    17    93    94    1
    18    43    45   am
    19     5     4    2
    20    48    47    1
    21    32    29    1
    22     3     4   am
    23     3     6    1
    24    79    76    1
    25     4     7    1
    26    45    47    1
    27    45    46    1
    28    47    49    1
    29    47    72    1
    30    50    49    1
    31    51    49    1
    32    31    29    1
    33    78    76    1
    34    29    30    1
    35    29    13    1
    36    18    15    1
    37    76    75    1
    38    76    77    1
    39    49    52    1
    40    12     9    1
    41    74    72    1
    42    87    75    1
    43    82    77    1
    44     9     7    1
    45     9    10   am
    46     7     8    1
    47     7    33    1
    48    72    75    1
    49    72    73    1
    50    75    83    1
    51    77    81    1
    52    77    80    1
    53    15    13    1
    54    15    16   am
    55    13    10    1
    56    13    14    1
    57    24    23   ar
    58    24    19   ar
    59    10    11    2
    60    27    25    1
    61    23    21   ar
    62    34    33    1
    63    52    53    1
    64    52    54    1
    65    52    55    1
    66    56    55    2
    67    33    39    1
    68    33    35    1
    69    19    16    1
    70    19    20   ar
    71    21    25    1
    72    21    20   ar
    73    83    86    1
    74    83    80    1
    75    83    88    1
    76    40    39    1
    77    16    17    2
    78    25    28    1
    79    25    26    1
    80    80    85    1
    81    80    84    1
    82    55    57    1
    83    20    22    1
    84    38    35    1
    85    42    39    1
    86    39    41    1
    87    89    88    1
    88    35    36    1
    89    35    37    1
    90    57    58    1
    91    59    58    1
    92    58    60    1
    93    58    61    1
    94    71    69    1
    95    61    69   ar
    96    61    62   ar
    97    69    67   ar
    98    64    62    1
    99    62    63   ar
   100    67    70    1
   101    67    65   ar
   102    63    65   ar
   103    63    66    1
   104    65    68    1
@<TRIPOS>MOLECULE
crystal_redock_e24_er3_1.pdbqt
 102 104 0 0 0
SMALL
GASTEIGER

@<TRIPOS>ATOM
      1 C         -10.5130    8.6020   69.6220 C.3     1  UNL1        0.0890
      2 H         -11.5390    8.3100   69.3980 H       1  UNL1        0.0870
      3 N          -9.7520    7.3850   69.8580 N.am    1  UNL1       -0.3460
      4 C         -10.3370    6.0400   69.5060 C.2     1  UNL1        0.2410
      5 O         -11.4240    5.9640   69.0360 O.2     1  UNL1       -0.2710
      6 H          -8.8290    7.4710   70.2600 H       1  UNL1        0.1630
      7 C          -9.5330    4.7910   69.7510 C.3     1  UNL1        0.0920
      8 H          -9.8150    4.0330   69.0190 H       1  UNL1        0.0880
      9 N          -8.1090    5.0780   69.5510 N.am    1  UNL1       -0.3460
     10 C          -7.3000    4.1880   68.7550 C.2     1  UNL1        0.2400
     11 O          -7.7770    3.2350   68.2700 O.2     1  UNL1       -0.2710
     12 H          -7.6830    5.8950   69.9640 H       1  UNL1        0.1630
     13 C          -5.7850    4.4970   68.5480 C.3     1  UNL1        0.0860
     14 H          -5.1970    3.6040   68.3340 H       1  UNL1        0.0860
     15 N          -5.6360    5.3770   67.4010 N.am    1  UNL1       -0.3430
     16 C          -5.3520    4.8040   66.0840 C.2     1  UNL1        0.2730
     17 O          -5.2420    3.6340   65.9580 O.2     1  UNL1       -0.2660
     18 H          -5.7280    6.3770   67.5190 H       1  UNL1        0.1630
     19 C          -5.1930    5.7230   64.8620 C.ar    1  UNL1        0.1540
     20 C          -4.7790    7.0920   64.8590 C.ar    1  UNL1       -0.0170
     21 C          -4.7960    7.4740   63.4980 C.ar    1  UNL1        0.0770
     22 H          -4.5070    7.7140   65.7120 H       1  UNL1        0.0910
     23 O          -5.1760    6.4370   62.8100 O.2     1  UNL1       -0.2180
     24 N          -5.4140    5.4030   63.5840 N.ar    1  UNL1       -0.1230
     25 C          -4.4360    8.8450   62.9410 C.3     1  UNL1       -0.0290
     26 H          -5.1420    9.5860   63.3150 H       1  UNL1        0.0360
     27 H          -3.4270    9.1110   63.2580 H       1  UNL1        0.0360
     28 H          -4.4790    8.8180   61.8520 H       1  UNL1        0.0360
     29 C          -5.2310    5.1600   69.7840 C.3     1  UNL1       -0.0490
     30 H          -4.6780    6.0550   69.4990 H       1  UNL1        0.0300
     31 H          -6.0510    5.4350   70.4470 H       1  UNL1        0.0300
     32 H          -4.5630    4.4700   70.2980 H       1  UNL1        0.0300
     33 C          -9.7610    4.3060   71.2130 C.3     1  UNL1       -0.0330
     34 H         -10.7600    4.6240   71.5130 H       1  UNL1        0.0420
     35 C          -9.7150    2.7490   71.3090 C.3     1  UNL1       -0.0710
     36 H          -8.7950    2.3840   70.8530 H       1  UNL1        0.0280
     37 H          -9.7440    2.4490   72.3570 H       1  UNL1        0.0280
     38 H         -10.5730    2.3280   70.7860 H       1  UNL1        0.0280
     39 C          -8.7320    4.9640   72.1870 C.3     1  UNL1       -0.0710
     40 H          -9.0180    4.7510   73.2170 H       1  UNL1        0.0280
     41 H          -7.7380    4.5590   71.9940 H       1  UNL1        0.0280
     42 H          -8.7210    6.0430   72.0290 H       1  UNL1        0.0280
     43 C          -9.8540    9.3790   68.4460 C.2     1  UNL1        0.2400
     44 O          -8.6730    9.3590   68.3130 O.2     1  UNL1       -0.2710
     45 N         -10.6960   10.1400   67.4800 N.am    1  UNL1       -0.3550
     46 H         -11.7010   10.1600   67.5800 H       1  UNL1        0.1620
     47 C         -10.0540   10.8720   66.3670 C.3     1  UNL1        0.0130
     48 H          -9.0160   11.0580   66.6420 H       1  UNL1        0.0720
     49 C         -10.7750   12.1840   66.1500 C.3     1  UNL1       -0.0380
     50 H         -10.0160   12.8810   65.7930 H       1  UNL1        0.0360
     51 H         -11.6350   11.9470   65.5250 H       1  UNL1        0.0360
     52 C         -11.3370   12.7820   67.4580 C.3     1  UNL1        0.0180
     53 H         -12.4100   12.5910   67.4330 H       1  UNL1        0.0480
     54 H         -10.7280   12.3630   68.2600 H       1  UNL1        0.0480
     55 C         -11.1780   14.3240   67.5600 C.2     1  UNL1        0.2590
     56 O         -11.2420   15.0030   66.5870 O.2     1  UNL1       -0.2650
     57 O         -10.9400   14.9170   68.8310 O.3     1  UNL1       -0.3170
     58 C         -11.9600   15.8310   69.2470 C.3     1  UNL1        0.0520
     59 H         -11.4900   16.8140   69.2530 H       1  UNL1        0.0820
     60 H         -12.8120   15.6380   68.5960 H       1  UNL1        0.0820
     61 C         -12.3610   15.4700   70.7020 C.ar    1  UNL1       -0.0340
     62 C         -11.9390   16.2690   71.7600 C.ar    1  UNL1       -0.0750
     63 C         -12.3000   15.9450   73.0670 C.ar    1  UNL1       -0.0820
     64 H         -11.3260   17.1490   71.5650 H       1  UNL1        0.0840
     65 C         -13.0840   14.8150   73.3150 C.ar    1  UNL1       -0.0830
     66 H         -11.9690   16.5750   73.8930 H       1  UNL1        0.0830
     67 C         -13.5000   14.0190   72.2570 C.ar    1  UNL1       -0.0820
     68 H         -13.3710   14.5550   74.3340 H       1  UNL1        0.0830
     69 C         -13.1440   14.3400   70.9480 C.ar    1  UNL1       -0.0750
     70 H         -14.1100   13.1370   72.4540 H       1  UNL1        0.0830
     71 H         -13.4750   13.7100   70.1220 H       1  UNL1        0.0840
     72 C         -10.1240   10.0350   65.0910 C.3     1  UNL1       -0.0390
     73 H         -10.7250    9.1630   65.3480 H       1  UNL1        0.0360
     74 H         -10.4620   10.7200   64.3130 H       1  UNL1        0.0360
     75 C          -8.6780    9.5010   64.6540 C.3     1  UNL1       -0.0010
     76 C          -8.5070    9.6200   63.0220 C.3     1  UNL1       -0.0350
     77 C          -8.0960    8.4230   62.5380 C.3     1  UNL1        0.0850
     78 H          -9.4810    9.7630   62.5540 H       1  UNL1        0.0360
     79 H          -7.6820   10.2890   62.7810 H       1  UNL1        0.0360
     80 N          -8.2860    7.4120   63.6430 N.4     1  UNL1       -0.0490
     81 H          -8.7790    8.1890   61.7210 H       1  UNL1        0.0750
     82 H          -7.0310    8.5390   62.3420 H       1  UNL1        0.0750
     83 C          -8.5140    8.2660   64.9930 C.3     1  UNL1        0.1930
     84 H          -9.1380    6.9120   63.4300 H       1  UNL1        0.2800
     85 H          -7.4130    6.9090   63.7240 H       1  UNL1        0.2800
     86 H          -7.7130    8.3670   65.7260 H       1  UNL1        0.1290
     87 H          -7.8800    9.9190   65.2680 H       1  UNL1        0.0460
     88 O          -9.6330    7.7530   65.7180 O.3     1  UNL1       -0.3690
     89 H          -9.4060    7.6800   66.6480 H       1  UNL1        0.2120
     90 C         -10.4840    9.4570   70.8790 C.3     1  UNL1       -0.0350
     91 H          -9.9630    8.8560   71.6250 H       1  UNL1        0.0370
     92 H         -10.0690   10.4160   70.5670 H       1  UNL1        0.0370
     93 C         -11.9000    9.7580   71.4650 C.3     1  UNL1       -0.0590
     94 H         -11.7620   10.3080   72.3960 H       1  UNL1        0.0380
     95 C         -12.7570   10.6470   70.5080 C.3     1  UNL1       -0.0730
     96 H         -12.5580   10.3640   69.4750 H       1  UNL1        0.0280
     97 H         -13.8150   10.5030   70.7280 H       1  UNL1        0.0280
     98 H         -12.4950   11.6950   70.6550 H       1  UNL1        0.0280
     99 C         -12.6360    8.4610   71.8090 C.3     1  UNL1       -0.0730
    100 H         -12.0200    7.6070   71.5260 H       1  UNL1        0.0280
    101 H         -12.8340    8.4280   72.8810 H       1  UNL1        0.0280
    102 H         -13.5800    8.4240   71.2650 H       1  UNL1        0.0280
@<TRIPOS>BOND
     1    81    77    1
     2    28    25    1
     3    82    77    1
     4    77    76    1
     5    77    80    1
     6    78    76    1
     7    79    76    1
     8    23    21   ar
     9    23    24   ar
    10    25    27    1
    11    25    26    1
    12    25    21    1
    13    76    75    1
    14    84    80    1
    15    21    20   ar
    16    24    19   ar
    17    80    85    1
    18    80    83    1
    19    74    72    1
    20    75    83    1
    21    75    72    1
    22    75    87    1
    23    20    19   ar
    24    20    22    1
    25    19    16    1
    26    83    88    1
    27    83    86    1
    28    72    73    1
    29    72    47    1
    30    51    49    1
    31    88    89    1
    32    50    49    1
    33    17    16    2
    34    16    15   am
    35    49    47    1
    36    49    52    1
    37    47    48    1
    38    47    45    1
    39    56    55    2
    40    15    18    1
    41    15    13    1
    42    53    52    1
    43    52    55    1
    44    52    54    1
    45    45    46    1
    46    45    43   am
    47    55    57    1
    48    11    10    2
    49    44    43    2
    50    14    13    1
    51    43     1    1
    52    13    10    1
    53    13    29    1
    54    60    58    1
    55    10     9   am
    56    57    58    1
    57     8     7    1
    58     5     4    2
    59    58    59    1
    60    58    61    1
    61     2     1    1
    62    96    95    1
    63    30    29    1
    64     4     7    1
    65     4     3   am
    66     9     7    1
    67     9    12    1
    68     1     3    1
    69     1    90    1
    70     7    33    1
    71    29    32    1
    72    29    31    1
    73     3     6    1
    74    71    69    1
    75    95    98    1
    76    95    97    1
    77    95    93    1
    78    92    90    1
    79    61    69   ar
    80    61    62   ar
    81    38    35    1
    82    36    35    1
    83    90    93    1
    84    90    91    1
    85    69    67   ar
    86    33    35    1
    87    33    34    1
    88    33    39    1
    89   102    99    1
    90    35    37    1
    91    93    99    1
    92    93    94    1
    93   100    99    1
    94    64    62    1
    95    62    63   ar
    96    99   101    1
    97    41    39    1
    98    42    39    1
    99    39    40    1
   100    67    70    1
   101    67    65   ar
   102    63    65   ar
   103    63    66    1
   104    65    68    1
@<TRIPOS>MOLECULE
crystal_redock_e24_er3_1.pdbqt
 102 104 0 0 0
SMALL
GASTEIGER

@<TRIPOS>ATOM
      1 C          -6.5000   13.6920   68.2760 C.3     1  UNL1        0.0890
      2 H          -5.6840   13.6660   67.5530 H       1  UNL1        0.0870
      3 N          -6.8130   15.0900   68.5320 N.am    1  UNL1       -0.3460
      4 C          -6.0810   16.1830   67.7940 C.2     1  UNL1        0.2410
      5 O          -5.2410   15.9120   67.0000 O.2     1  UNL1       -0.2710
      6 H          -7.5290   15.3000   69.2140 H       1  UNL1        0.1630
      7 C          -6.4220   17.6240   68.0680 C.3     1  UNL1        0.0920
      8 H          -6.0410   18.2430   67.2560 H       1  UNL1        0.0880
      9 N          -7.8790   17.7860   68.0900 N.am    1  UNL1       -0.3460
     10 C          -8.6070   17.9260   66.8530 C.2     1  UNL1        0.2400
     11 O          -8.0360   17.9120   65.8310 O.2     1  UNL1       -0.2710
     12 H          -8.3850   17.8020   68.9640 H       1  UNL1        0.1630
     13 C         -10.1570   18.1020   66.8830 C.3     1  UNL1        0.0860
     14 H         -10.6640   17.5030   66.1270 H       1  UNL1        0.0860
     15 N         -10.6570   17.6540   68.1720 N.am    1  UNL1       -0.3430
     16 C         -11.1500   16.2830   68.3180 C.2     1  UNL1        0.2730
     17 O         -11.1430   15.5490   67.3910 O.2     1  UNL1       -0.2660
     18 H         -10.6620   18.2890   68.9580 H       1  UNL1        0.1630
     19 C         -11.6800   15.7950   69.6750 C.ar    1  UNL1        0.1540
     20 C         -12.3590   14.5650   69.9480 C.ar    1  UNL1       -0.0170
     21 C         -12.6310   14.5990   71.3340 C.ar    1  UNL1        0.0770
     22 H         -12.6140   13.7700   69.2470 H       1  UNL1        0.0910
     23 O         -12.1590   15.7210   71.7940 O.2     1  UNL1       -0.2180
     24 N         -11.6000   16.4360   70.8450 N.ar    1  UNL1       -0.1230
     25 C         -13.3440   13.5210   72.1390 C.3     1  UNL1       -0.0290
     26 H         -13.6210   12.6980   71.4800 H       1  UNL1        0.0360
     27 H         -12.6800   13.1530   72.9210 H       1  UNL1        0.0360
     28 H         -14.2430   13.9410   72.5930 H       1  UNL1        0.0360
     29 C         -10.5050   19.5530   66.6690 C.3     1  UNL1       -0.0490
     30 H         -10.1270   19.8790   65.7000 H       1  UNL1        0.0300
     31 H         -11.5880   19.6740   66.6970 H       1  UNL1        0.0300
     32 H         -10.0520   20.1550   67.4560 H       1  UNL1        0.0300
     33 C          -5.8350   18.0430   69.4480 C.3     1  UNL1       -0.0330
     34 H          -6.2780   17.3940   70.2040 H       1  UNL1        0.0420
     35 C          -4.2900   17.8320   69.4960 C.3     1  UNL1       -0.0710
     36 H          -3.7930   18.8000   69.5680 H       1  UNL1        0.0280
     37 H          -4.0320   17.2270   70.3650 H       1  UNL1        0.0280
     38 H          -3.9640   17.3230   68.5890 H       1  UNL1        0.0280
     39 C          -6.2170   19.5180   69.7940 C.3     1  UNL1       -0.0710
     40 H          -6.1370   20.1330   68.8980 H       1  UNL1        0.0280
     41 H          -7.2410   19.5500   70.1670 H       1  UNL1        0.0280
     42 H          -5.5390   19.8980   70.5580 H       1  UNL1        0.0280
     43 C          -7.7800   12.9880   67.7430 C.2     1  UNL1        0.2400
     44 O          -8.8370   13.2410   68.2230 O.2     1  UNL1       -0.2710
     45 N          -7.6890   12.0030   66.6270 N.am    1  UNL1       -0.3550
     46 H          -6.7970   11.7840   66.2080 H       1  UNL1        0.1620
     47 C          -8.9150   11.3430   66.1300 C.3     1  UNL1        0.0130
     48 H          -9.7410   12.0460   66.2360 H       1  UNL1        0.0720
     49 C          -9.1830   10.1030   66.9530 C.3     1  UNL1       -0.0380
     50 H          -8.6890    9.2870   66.4270 H       1  UNL1        0.0360
     51 H          -8.8850   10.3550   67.9710 H       1  UNL1        0.0360
     52 C         -10.6820    9.7380   67.0150 C.3     1  UNL1        0.0180
     53 H         -10.9500    9.4150   66.0080 H       1  UNL1        0.0480
     54 H         -10.7840    9.0470   67.8530 H       1  UNL1        0.0480
     55 C         -11.6080   10.9430   67.3390 C.2     1  UNL1        0.2590
     56 O         -11.7990   11.7920   66.5300 O.2     1  UNL1       -0.2650
     57 O         -12.2170   11.0280   68.6220 O.3     1  UNL1       -0.3170
     58 C         -11.2900   11.2040   69.6960 C.3     1  UNL1        0.0520
     59 H         -10.3010   11.0770   69.2560 H       1  UNL1        0.0820
     60 H         -11.5590   12.1500   70.1670 H       1  UNL1        0.0820
     61 C         -11.5220   10.0630   70.7220 C.ar    1  UNL1       -0.0340
     62 C         -10.4740    9.2200   71.0750 C.ar    1  UNL1       -0.0750
     63 C         -10.6820    8.1940   71.9960 C.ar    1  UNL1       -0.0820
     64 H          -9.4880    9.3630   70.6320 H       1  UNL1        0.0840
     65 C         -11.9470    8.0110   72.5620 C.ar    1  UNL1       -0.0830
     66 H          -9.8580    7.5370   72.2730 H       1  UNL1        0.0830
     67 C         -12.9910    8.8530   72.2040 C.ar    1  UNL1       -0.0820
     68 H         -12.1190    7.2120   73.2830 H       1  UNL1        0.0830
     69 C         -12.7870    9.8800   71.2850 C.ar    1  UNL1       -0.0750
     70 H         -13.9770    8.7060   72.6450 H       1  UNL1        0.0830
     71 H         -13.6120   10.5380   71.0100 H       1  UNL1        0.0840
     72 C          -8.7350   10.9530   64.6650 C.3     1  UNL1       -0.0390
     73 H          -9.7410   10.7680   64.2880 H       1  UNL1        0.0360
     74 H          -8.1260   11.7440   64.2270 H       1  UNL1        0.0360
     75 C          -7.9140    9.5860   64.5120 C.3     1  UNL1       -0.0010
     76 C          -6.4000    9.9010   63.9520 C.3     1  UNL1       -0.0350
     77 C          -6.1580    9.1090   62.8800 C.3     1  UNL1        0.0850
     78 H          -6.3560   10.9080   63.5400 H       1  UNL1        0.0360
     79 H          -5.6570    9.5770   64.6810 H       1  UNL1        0.0360
     80 N          -7.4820    8.5200   62.4580 N.4     1  UNL1       -0.0490
     81 H          -5.8010    9.7790   62.0970 H       1  UNL1        0.0750
     82 H          -5.5150    8.3100   63.2480 H       1  UNL1        0.0750
     83 C          -8.4960    8.7810   63.6870 C.3     1  UNL1        0.1930
     84 H          -7.7950    9.0580   61.6630 H       1  UNL1        0.2800
     85 H          -7.3370    7.5240   62.3680 H       1  UNL1        0.2800
     86 H          -8.7690    7.9690   64.3620 H       1  UNL1        0.1290
     87 H          -7.9940    8.9550   65.3980 H       1  UNL1        0.0460
     88 O          -9.7330    9.3070   63.2020 O.3     1  UNL1       -0.3690
     89 H          -9.9000    8.9690   62.3200 H       1  UNL1        0.2120
     90 C          -6.0590   13.0370   69.5750 C.3     1  UNL1       -0.0350
     91 H          -5.2060   13.6220   69.9190 H       1  UNL1        0.0370
     92 H          -6.9590   12.9740   70.1870 H       1  UNL1        0.0370
     93 C          -5.5450   11.5730   69.3950 C.3     1  UNL1       -0.0590
     94 H          -5.5070   11.3650   68.3250 H       1  UNL1        0.0380
     95 C          -4.1040   11.3790   69.9690 C.3     1  UNL1       -0.0730
     96 H          -4.1230   10.6140   70.7440 H       1  UNL1        0.0280
     97 H          -3.4330   11.0690   69.1670 H       1  UNL1        0.0280
     98 H          -3.7530   12.3200   70.3940 H       1  UNL1        0.0280
     99 C          -6.5190   10.5700   70.0190 C.3     1  UNL1       -0.0730
    100 H          -6.0170   10.0240   70.8180 H       1  UNL1        0.0280
    101 H          -7.3770   11.1050   70.4270 H       1  UNL1        0.0280
    102 H          -6.8570    9.8690   69.2560 H       1  UNL1        0.0280
@<TRIPOS>BOND
     1    84    80    1
     2    81    77    1
     3    89    88    1
     4    85    80    1
     5    80    77    1
     6    80    83    1
     7    77    82    1
     8    77    76    1
     9    88    83    1
    10    78    76    1
    11    83    86    1
    12    83    75    1
    13    76    75    1
    14    76    79    1
    15    74    72    1
    16    73    72    1
    17    75    72    1
    18    75    87    1
    19    72    47    1
    20    30    29    1
    21    11    10    2
    22    53    52    1
    23    14    13    1
    24    47    48    1
    25    47    45    1
    26    47    49    1
    27    46    45    1
    28    50    49    1
    29    56    55    2
    30    45    43   am
    31    29    31    1
    32    29    13    1
    33    29    32    1
    34    10    13    1
    35    10     9   am
    36    13    15    1
    37    49    52    1
    38    49    51    1
    39     5     4    2
    40    52    55    1
    41    52    54    1
    42     8     7    1
    43    55    57    1
    44    17    16    2
    45     2     1    1
    46    43    44    2
    47    43     1    1
    48     4     7    1
    49     4     3   am
    50     7     9    1
    51     7    33    1
    52     9    12    1
    53    15    16   am
    54    15    18    1
    55     1     3    1
    56     1    90    1
    57    16    19    1
    58    94    93    1
    59     3     6    1
    60    38    35    1
    61    57    58    1
    62    40    39    1
    63    97    95    1
    64    22    20    1
    65   102    99    1
    66    59    58    1
    67    93    90    1
    68    93    95    1
    69    93    99    1
    70    33    35    1
    71    33    39    1
    72    33    34    1
    73    35    36    1
    74    35    37    1
    75    90    91    1
    76    90    92    1
    77    19    20   ar
    78    19    24   ar
    79    58    60    1
    80    58    61    1
    81    39    41    1
    82    39    42    1
    83    20    21   ar
    84    95    98    1
    85    95    96    1
    86    99   101    1
    87    99   100    1
    88    64    62    1
    89    61    62   ar
    90    61    69   ar
    91    24    23   ar
    92    71    69    1
    93    62    63   ar
    94    69    67   ar
    95    21    23   ar
    96    21    25    1
    97    26    25    1
    98    63    66    1
    99    63    65   ar
   100    25    28    1
   101    25    27    1
   102    67    65   ar
   103    67    70    1
   104    65    68    1
@<TRIPOS>MOLECULE
crystal_redock_e24_er3_1.pdbqt
 102 104 0 0 0
SMALL
GASTEIGER

@<TRIPOS>ATOM
      1 C          -5.2900   13.8540   68.7720 C.3     1  UNL1        0.0890
      2 H          -4.3860   13.9630   68.1730 H       1  UNL1        0.0870
      3 N          -5.8800   15.1760   68.9190 N.am    1  UNL1       -0.3460
      4 C          -5.6150   16.2470   67.8910 C.2     1  UNL1        0.2410
      5 O          -4.9210   16.0220   66.9550 O.2     1  UNL1       -0.2710
      6 H          -6.4660   15.3490   69.7240 H       1  UNL1        0.1630
      7 C          -6.2390   17.6080   68.0560 C.3     1  UNL1        0.0920
      8 H          -5.9430   18.2420   67.2200 H       1  UNL1        0.0880
      9 N          -7.6990   17.4860   68.0110 N.am    1  UNL1       -0.3460
     10 C          -8.4080   17.7630   66.7860 C.2     1  UNL1        0.2400
     11 O          -7.8190   18.0860   65.8270 O.2     1  UNL1       -0.2710
     12 H          -8.2210   17.2100   68.8310 H       1  UNL1        0.1630
     13 C          -9.9620   17.6340   66.7450 C.3     1  UNL1        0.0860
     14 H         -10.3040   16.8660   66.0520 H       1  UNL1        0.0860
     15 N         -10.4380   17.2450   68.0630 N.am    1  UNL1       -0.3430
     16 C         -11.1950   16.0010   68.2180 C.2     1  UNL1        0.2730
     17 O         -11.4190   15.3220   67.2770 O.2     1  UNL1       -0.2660
     18 H         -10.2440   17.8320   68.8610 H       1  UNL1        0.1630
     19 C         -11.7020   15.5770   69.6050 C.ar    1  UNL1        0.1540
     20 C         -12.3590   14.3520   69.9490 C.ar    1  UNL1       -0.0170
     21 C         -12.6160   14.4540   71.3340 C.ar    1  UNL1        0.0770
     22 H         -12.6090   13.5180   69.2930 H       1  UNL1        0.0910
     23 O         -12.1560   15.6040   71.7300 O.2     1  UNL1       -0.2180
     24 N         -11.6190   16.2780   70.7390 N.ar    1  UNL1       -0.1230
     25 C         -13.3030   13.4080   72.2030 C.3     1  UNL1       -0.0290
     26 H         -13.4950   13.8260   73.1910 H       1  UNL1        0.0360
     27 H         -14.2470   13.1170   71.7420 H       1  UNL1        0.0360
     28 H         -12.6590   12.5330   72.2960 H       1  UNL1        0.0360
     29 C         -10.5690   18.9550   66.3470 C.3     1  UNL1       -0.0490
     30 H          -9.8770   19.4910   65.6970 H       1  UNL1        0.0300
     31 H         -11.5050   18.7800   65.8160 H       1  UNL1        0.0300
     32 H         -10.7630   19.5490   67.2390 H       1  UNL1        0.0300
     33 C          -5.8130   18.2110   69.4270 C.3     1  UNL1       -0.0330
     34 H          -6.2160   17.5660   70.2090 H       1  UNL1        0.0420
     35 C          -4.2610   18.2260   69.5840 C.3     1  UNL1       -0.0710
     36 H          -3.8460   19.0540   69.0090 H       1  UNL1        0.0280
     37 H          -4.0040   18.3500   70.6360 H       1  UNL1        0.0280
     38 H          -3.8500   17.2860   69.2180 H       1  UNL1        0.0280
     39 C          -6.4160   19.6400   69.6210 C.3     1  UNL1       -0.0710
     40 H          -6.7990   19.7370   70.6370 H       1  UNL1        0.0280
     41 H          -5.6410   20.3870   69.4520 H       1  UNL1        0.0280
     42 H          -7.2280   19.7910   68.9100 H       1  UNL1        0.0280
     43 C          -6.3330   12.9190   68.0960 C.2     1  UNL1        0.2400
     44 O          -6.2030   12.6160   66.9550 O.2     1  UNL1       -0.2710
     45 N          -7.4900   12.3930   68.8760 N.am    1  UNL1       -0.3550
     46 H          -7.6090   12.6390   69.8480 H       1  UNL1        0.1620
     47 C          -8.4720   11.5030   68.2190 C.3     1  UNL1        0.0130
     48 H          -7.9830   11.0360   67.3640 H       1  UNL1        0.0720
     49 C          -9.6550   12.3220   67.7540 C.3     1  UNL1       -0.0380
     50 H         -10.5390   11.7510   68.0390 H       1  UNL1        0.0360
     51 H          -9.4980   13.3220   68.1580 H       1  UNL1        0.0360
     52 C          -9.7110   12.4760   66.2180 C.3     1  UNL1        0.0180
     53 H          -9.6490   13.5470   66.0260 H       1  UNL1        0.0480
     54 H          -8.9440   11.8060   65.8270 H       1  UNL1        0.0480
     55 C         -11.0520   12.0050   65.5900 C.2     1  UNL1        0.2590
     56 O         -12.0760   12.1500   66.1750 O.2     1  UNL1       -0.2650
     57 O         -11.0420   11.3850   64.3090 O.3     1  UNL1       -0.3170
     58 C         -10.1050   11.9590   63.3930 C.3     1  UNL1        0.0520
     59 H         -10.6950   12.2900   62.5380 H       1  UNL1        0.0820
     60 H          -9.5310   12.6820   63.9710 H       1  UNL1        0.0820
     61 C          -9.1460   10.8340   62.9210 C.ar    1  UNL1       -0.0340
     62 C          -8.3440   11.0260   61.8010 C.ar    1  UNL1       -0.0750
     63 C          -7.4820   10.0150   61.3770 C.ar    1  UNL1       -0.0820
     64 H          -8.3910   11.9680   61.2550 H       1  UNL1        0.0840
     65 C          -7.4260    8.8070   62.0780 C.ar    1  UNL1       -0.0830
     66 H          -6.8530   10.1700   60.5000 H       1  UNL1        0.0830
     67 C          -8.2300    8.6190   63.1940 C.ar    1  UNL1       -0.0820
     68 H          -6.7540    8.0120   61.7540 H       1  UNL1        0.0830
     69 C          -9.0910    9.6270   63.6220 C.ar    1  UNL1       -0.0750
     70 H          -8.1850    7.6750   63.7370 H       1  UNL1        0.0830
     71 H          -9.7190    9.4720   64.5000 H       1  UNL1        0.0840
     72 C          -8.9450   10.4380   69.2060 C.3     1  UNL1       -0.0390
     73 H          -8.3830    9.5390   68.9540 H       1  UNL1        0.0360
     74 H          -8.8380   10.8890   70.1930 H       1  UNL1        0.0360
     75 C         -10.4980   10.0960   69.0100 C.3     1  UNL1       -0.0010
     76 C         -11.3500   10.5830   70.3290 C.3     1  UNL1       -0.0350
     77 C         -12.1080    9.5490   70.7650 C.3     1  UNL1        0.0850
     78 H         -10.6730   10.7720   71.1620 H       1  UNL1        0.0360
     79 H         -12.0860   11.3350   70.0430 H       1  UNL1        0.0360
     80 N         -11.6070    8.3080   70.0660 N.4     1  UNL1       -0.0490
     81 H         -11.9000    9.4640   71.8330 H       1  UNL1        0.0750
     82 H         -13.1200    9.7650   70.4230 H       1  UNL1        0.0750
     83 C         -10.6810    8.8280   68.8500 C.3     1  UNL1        0.1930
     84 H         -11.0220    7.8220   70.7310 H       1  UNL1        0.2800
     85 H         -12.4190    7.8510   69.6780 H       1  UNL1        0.2800
     86 H         -11.0510    8.8080   67.8250 H       1  UNL1        0.1290
     87 H         -10.8700   10.4120   68.0350 H       1  UNL1        0.0460
     88 O          -9.4490    8.1050   68.8250 O.3     1  UNL1       -0.3690
     89 H          -9.1350    7.9770   69.7230 H       1  UNL1        0.2120
     90 C          -4.9350   13.3140   70.1480 C.3     1  UNL1       -0.0350
     91 H          -5.4980   13.9260   70.8530 H       1  UNL1        0.0370
     92 H          -5.1170   12.2410   70.0930 H       1  UNL1        0.0370
     93 C          -3.4280   13.4880   70.5190 C.3     1  UNL1       -0.0590
     94 H          -3.1240   12.6100   71.0890 H       1  UNL1        0.0380
     95 C          -2.5150   13.5740   69.2540 C.3     1  UNL1       -0.0730
     96 H          -2.4820   14.6050   68.9000 H       1  UNL1        0.0280
     97 H          -1.5080   13.2450   69.5090 H       1  UNL1        0.0280
     98 H          -2.9190   12.9330   68.4700 H       1  UNL1        0.0280
     99 C          -3.2240   14.7070   71.4220 C.3     1  UNL1       -0.0730
    100 H          -4.1940   15.1270   71.6900 H       1  UNL1        0.0280
    101 H          -2.6960   14.4050   72.3270 H       1  UNL1        0.0280
    102 H          -2.6370   15.4570   70.8930 H       1  UNL1        0.0280
@<TRIPOS>BOND
     1    66    63    1
     2    64    62    1
     3    63    62   ar
     4    63    65   ar
     5    68    65    1
     6    62    61   ar
     7    65    67   ar
     8    59    58    1
     9    61    58    1
    10    61    69   ar
    11    67    69   ar
    12    67    70    1
    13    58    60    1
    14    58    57    1
    15    69    71    1
    16    57    55    1
    17    55    56    2
    18    55    52    1
    19    30    29    1
    20    31    29    1
    21    11    10    2
    22    54    52    1
    23    53    52    1
    24    14    13    1
    25    52    49    1
    26    29    13    1
    27    29    32    1
    28    13    10    1
    29    13    15    1
    30    10     9   am
    31    44    43    2
    32     5     4    2
    33     8     7    1
    34    17    16    2
    35    48    47    1
    36    49    50    1
    37    49    51    1
    38    49    47    1
    39    86    83    1
    40     4     7    1
    41     4     3   am
    42     9     7    1
    43     9    12    1
    44    87    75    1
    45     7    33    1
    46    15    16   am
    47    15    18    1
    48    43     1    1
    49    43    45   am
    50     2     1    1
    51    16    19    1
    52    47    45    1
    53    47    72    1
    54    98    95    1
    55     1     3    1
    56     1    90    1
    57    88    83    1
    58    88    89    1
    59    83    75    1
    60    83    80    1
    61    45    46    1
    62    96    95    1
    63    42    39    1
    64     3     6    1
    65    73    72    1
    66    36    35    1
    67    75    72    1
    68    75    76    1
    69    72    74    1
    70    38    35    1
    71    95    97    1
    72    95    93    1
    73    22    20    1
    74    33    35    1
    75    33    39    1
    76    33    34    1
    77    41    39    1
    78    35    37    1
    79    19    20   ar
    80    19    24   ar
    81    39    40    1
    82    85    80    1
    83    20    21   ar
    84    79    76    1
    85    80    84    1
    86    80    77    1
    87    92    90    1
    88    90    93    1
    89    90    91    1
    90    76    77    1
    91    76    78    1
    92    82    77    1
    93    93    94    1
    94    93    99    1
    95    24    23   ar
    96    77    81    1
    97   102    99    1
    98    21    23   ar
    99    21    25    1
   100    99   100    1
   101    99   101    1
   102    27    25    1
   103    25    28    1
   104    25    26    1
