MODEL 1
REMARK VINA RESULT:      -6.9      0.000      0.000
REMARK  26 active torsions:
REMARK  status: ('A' for Active; 'I' for Inactive)
REMARK    1  A    between atoms: C2_2  and  C3_3 
REMARK    2  A    between atoms: C4_6  and  C5_7 
REMARK       I    between atoms: C5_7  and  N2_9 
REMARK    3  A    between atoms: N2_9  and  C6_10 
REMARK    4  A    between atoms: C6_10  and  C7_11 
REMARK    5  A    between atoms: C6_10  and  C8_13 
REMARK       I    between atoms: C7_11  and  N3_14 
REMARK    6  A    between atoms: N3_14  and  C9_15 
REMARK    7  A    between atoms: C9_15  and  C10_16 
REMARK    8  A    between atoms: C9_15  and  C11_18 
REMARK       I    between atoms: C10_16  and  N4_21 
REMARK    9  A    between atoms: C11_18  and  C12_19 
REMARK   10  A    between atoms: C11_18  and  C13_20 
REMARK   11  A    between atoms: N4_21  and  C14_22 
REMARK   12  A    between atoms: C14_22  and  C15_23 
REMARK   13  A    between atoms: C14_22  and  C16_25 
REMARK       I    between atoms: C15_23  and  N6_40 
REMARK   14  A    between atoms: C16_25  and  C17_26 
REMARK   15  A    between atoms: C17_26  and  C18_27 
REMARK   16  A    between atoms: C17_26  and  C19_28 
REMARK   17  A    between atoms: C20_29  and  C21_30 
REMARK   18  A    between atoms: C20_29  and  C24_33 
REMARK   19  A    between atoms: C20_29  and  N6_40 
REMARK   20  A    between atoms: C21_30  and  C22_31 
REMARK   21  A    between atoms: C22_31  and  C23_32 
REMARK   22  A    between atoms: C23_32  and  O8_43 
REMARK   23  A    between atoms: C24_33  and  C25_34 
REMARK   24  A    between atoms: C28_38  and  O6_39 
REMARK   25  A    between atoms: C29_42  and  O8_43 
REMARK   26  A    between atoms: C29_42  and  C35_49 
ROOT
ATOM      1  C14 non d ame     -36.202  14.275  25.953  0.00  0.00     0.089 C 
ATOM      2  H20 non d ame     -37.030  14.655  26.552  0.00  0.00     0.087 H 
ENDROOT
BRANCH   1   3
ATOM      3  N4  non d ame     -35.009  15.019  26.332  0.00  0.00    -0.346 N 
ATOM      4  C10 non d ame     -35.090  16.112  27.367  0.00  0.00     0.241 C 
ATOM      5  O4  non d ame     -36.127  16.378  27.879  0.00  0.00    -0.271 OA
ATOM      6  H19 non d ame     -34.137  14.779  25.882  0.00  0.00     0.163 HD
BRANCH   4   7
ATOM      7  C9  non d ame     -33.845  16.868  27.751  0.00  0.00     0.092 C 
ATOM      8  H11 non d ame     -33.826  17.000  28.833  0.00  0.00     0.088 H 
BRANCH   7   9
ATOM      9  N3  non d ame     -32.663  16.078  27.390  0.00  0.00    -0.346 N 
ATOM     10  C7  non d ame     -32.453  14.783  27.988  0.00  0.00     0.240 C 
ATOM     11  O3  non d ame     -33.223  14.360  28.761  0.00  0.00    -0.271 OA
ATOM     12  H10 non d ame     -31.989  16.430  26.725  0.00  0.00     0.163 HD
BRANCH  10  13
ATOM     13  C6  non d ame     -31.192  13.949  27.602  0.00  0.00     0.086 C 
ATOM     14  H6  non d ame     -31.423  12.902  27.403  0.00  0.00     0.086 H 
BRANCH  13  15
ATOM     15  N2  non d ame     -30.625  14.489  26.377  0.00  0.00    -0.343 N 
ATOM     16  C5  non d ame     -31.337  14.305  25.111  0.00  0.00     0.273 C 
ATOM     17  O2  non d ame     -32.363  13.718  25.087  0.00  0.00    -0.266 OA
ATOM     18  H5  non d ame     -29.747  14.987  26.406  0.00  0.00     0.163 HD
BRANCH  16  19
ATOM     19  C4  non d ame     -30.751  14.872  23.809  0.00  0.00     0.154 A 
ATOM     20  C1  non d ame     -31.460  15.188  22.606  0.00  0.00    -0.017 A 
ATOM     21  C2  non d ame     -30.474  15.673  21.719  0.00  0.00     0.077 A 
ATOM     22  H1  non d ame     -32.527  15.081  22.408  0.00  0.00     0.091 H 
ATOM     23  O1  non d ame     -29.336  15.638  22.348  0.00  0.00    -0.218 OA
ATOM     24  N1  non d ame     -29.472  15.174  23.569  0.00  0.00    -0.123 NA
BRANCH  21  25
ATOM     25  C3  non d ame     -30.702  16.150  20.291  0.00  0.00    -0.029 C 
ATOM     26  H2  non d ame     -30.640  15.302  19.610  0.00  0.00     0.036 H 
ATOM     27  H3  non d ame     -31.689  16.606  20.214  0.00  0.00     0.036 H 
ATOM     28  H4  non d ame     -29.941  16.885  20.027  0.00  0.00     0.036 H 
ENDBRANCH  21  25
ENDBRANCH  16  19
ENDBRANCH  13  15
BRANCH  13  29
ATOM     29  C8  non d ame     -30.178  14.021  28.716  0.00  0.00    -0.049 C 
ATOM     30  H7  non d ame     -30.481  13.357  29.526  0.00  0.00     0.030 H 
ATOM     31  H8  non d ame     -29.203  13.713  28.339  0.00  0.00     0.030 H 
ATOM     32  H9  non d ame     -30.119  15.044  29.087  0.00  0.00     0.030 H 
ENDBRANCH  13  29
ENDBRANCH  10  13
ENDBRANCH   7   9
BRANCH   7  33
ATOM     33  C11 non d ame     -33.809  18.227  26.993  0.00  0.00    -0.033 C 
ATOM     34  H12 non d ame     -34.840  18.534  26.819  0.00  0.00     0.042 H 
BRANCH  33  35
ATOM     35  C12 non d ame     -33.128  19.338  27.852  0.00  0.00    -0.071 C 
ATOM     36  H13 non d ame     -32.084  19.439  27.554  0.00  0.00     0.028 H 
ATOM     37  H14 non d ame     -33.643  20.285  27.695  0.00  0.00     0.028 H 
ATOM     38  H15 non d ame     -33.179  19.065  28.906  0.00  0.00     0.028 H 
ENDBRANCH  33  35
BRANCH  33  39
ATOM     39  C13 non d ame     -33.108  18.075  25.605  0.00  0.00    -0.071 C 
ATOM     40  H16 non d ame     -33.613  18.705  24.872  0.00  0.00     0.028 H 
ATOM     41  H17 non d ame     -32.064  18.380  25.689  0.00  0.00     0.028 H 
ATOM     42  H18 non d ame     -33.156  17.034  25.286  0.00  0.00     0.028 H 
ENDBRANCH  33  39
ENDBRANCH   7  33
ENDBRANCH   4   7
ENDBRANCH   1   3
BRANCH   1  43
ATOM     43  C15 non d ame     -35.942  12.762  26.201  0.00  0.00     0.240 C 
ATOM     44  O5  non d ame     -36.806  11.972  25.995  0.00  0.00    -0.271 OA
ATOM     45  N6  non d ame     -34.612  12.296  26.687  0.00  0.00    -0.355 N 
ATOM     46  H46 non d ame     -33.868  12.957  26.861  0.00  0.00     0.162 HD
BRANCH  45  47
ATOM     47  C20 non d ame     -34.380  10.853  26.917  0.00  0.00     0.013 C 
ATOM     48  H30 non d ame     -35.093  10.298  26.308  0.00  0.00     0.072 H 
BRANCH  47  49
ATOM     49  C21 non d ame     -34.595  10.540  28.380  0.00  0.00    -0.038 C 
ATOM     50  H31 non d ame     -35.082  11.419  28.802  0.00  0.00     0.036 H 
ATOM     51  H32 non d ame     -35.099   9.574  28.403  0.00  0.00     0.036 H 
BRANCH  49  52
ATOM     52  C22 non d ame     -33.272  10.360  29.156  0.00  0.00     0.018 C 
ATOM     53  H33 non d ame     -33.003   9.311  29.041  0.00  0.00     0.048 H 
ATOM     54  H34 non d ame     -32.604  11.138  28.784  0.00  0.00     0.048 H 
BRANCH  52  55
ATOM     55  C23 non d ame     -33.404  10.604  30.685  0.00  0.00     0.259 C 
ATOM     56  O7  non d ame     -33.123  11.659  31.154  0.00  0.00    -0.265 OA
BRANCH  55  57
ATOM     57  O8  non d ame     -33.853   9.546  31.523  0.00  0.00    -0.317 OA
BRANCH  57  58
ATOM     58  C29 non d ame     -35.220   9.664  31.928  0.00  0.00     0.052 C 
ATOM     59  H47 non d ame     -35.198   9.770  33.012  0.00  0.00     0.082 H 
ATOM     60  H48 non d ame     -35.643  10.457  31.311  0.00  0.00     0.082 H 
BRANCH  58  61
ATOM     61  C35 non d ame     -35.939   8.334  31.578  0.00  0.00    -0.034 A 
ATOM     62  C30 non d ame     -37.323   8.308  31.434  0.00  0.00    -0.075 A 
ATOM     63  C31 non d ame     -37.970   7.113  31.120  0.00  0.00    -0.082 A 
ATOM     64  H49 non d ame     -37.900   9.223  31.567  0.00  0.00     0.084 H 
ATOM     65  C32 non d ame     -37.228   5.941  30.954  0.00  0.00    -0.083 A 
ATOM     66  H50 non d ame     -39.054   7.096  31.006  0.00  0.00     0.083 H 
ATOM     67  C33 non d ame     -35.848   5.972  31.102  0.00  0.00    -0.082 A 
ATOM     68  H51 non d ame     -37.725   5.003  30.708  0.00  0.00     0.083 H 
ATOM     69  C34 non d ame     -35.197   7.163  31.413  0.00  0.00    -0.075 A 
ATOM     70  H52 non d ame     -35.272   5.055  30.973  0.00  0.00     0.083 H 
ATOM     71  H53 non d ame     -34.113   7.180  31.527  0.00  0.00     0.084 H 
ENDBRANCH  58  61
ENDBRANCH  57  58
ENDBRANCH  55  57
ENDBRANCH  52  55
ENDBRANCH  49  52
ENDBRANCH  47  49
BRANCH  47  72
ATOM     72  C24 non d ame     -32.950  10.491  26.522  0.00  0.00    -0.039 C 
ATOM     73  H35 non d ame     -32.354  11.376  26.746  0.00  0.00     0.036 H 
ATOM     74  H36 non d ame     -32.739   9.550  27.030  0.00  0.00     0.036 H 
BRANCH  72  75
ATOM     75  C25 non d ame     -32.820  10.219  24.949  0.00  0.00    -0.001 C 
ATOM     76  C26 non d ame     -33.357   8.705  24.596  0.00  0.00    -0.035 C 
ATOM     77  C27 non d ame     -32.412   8.066  23.866  0.00  0.00     0.085 C 
ATOM     78  H38 non d ame     -33.421   8.110  25.507  0.00  0.00     0.036 H 
ATOM     79  H39 non d ame     -34.209   8.759  23.919  0.00  0.00     0.036 H 
ATOM     80  N5  non d ame     -31.148   8.885  23.967  0.00  0.00    -0.049 N 
ATOM     81  H40 non d ame     -32.256   7.109  24.365  0.00  0.00     0.075 H 
ATOM     82  H41 non d ame     -32.771   8.092  22.838  0.00  0.00     0.075 H 
ATOM     83  C28 non d ame     -31.594  10.320  24.557  0.00  0.00     0.193 C 
ATOM     84  H42 non d ame     -30.562   8.425  24.649  0.00  0.00     0.280 HD
ATOM     85  H43 non d ame     -30.816   9.015  23.021  0.00  0.00     0.280 HD
ATOM     86  H44 non d ame     -31.666  11.189  23.903  0.00  0.00     0.129 H 
ATOM     87  H37 non d ame     -33.222  11.039  24.354  0.00  0.00     0.046 H 
BRANCH  83  88
ATOM     88  O6  non d ame     -30.719  10.710  25.617  0.00  0.00    -0.369 OA
ATOM     89  H45 non d ame     -30.565   9.961  26.197  0.00  0.00     0.212 HD
ENDBRANCH  83  88
ENDBRANCH  72  75
ENDBRANCH  47  72
ENDBRANCH  45  47
ENDBRANCH   1  43
BRANCH   1  90
ATOM     90  C16 non d ame     -36.485  14.510  24.477  0.00  0.00    -0.035 C 
ATOM     91  H21 non d ame     -35.880  15.374  24.201  0.00  0.00     0.037 H 
ATOM     92  H22 non d ame     -36.314  13.548  23.994  0.00  0.00     0.037 H 
BRANCH  90  93
ATOM     93  C17 non d ame     -37.968  14.897  24.178  0.00  0.00    -0.059 C 
ATOM     94  H23 non d ame     -38.591  14.039  24.429  0.00  0.00     0.038 H 
BRANCH  93  95
ATOM     95  C18 non d ame     -38.448  16.106  25.044  0.00  0.00    -0.073 C 
ATOM     96  H24 non d ame     -38.763  15.748  26.024  0.00  0.00     0.028 H 
ATOM     97  H25 non d ame     -37.630  16.815  25.164  0.00  0.00     0.028 H 
ATOM     98  H26 non d ame     -39.286  16.597  24.550  0.00  0.00     0.028 H 
ENDBRANCH  93  95
BRANCH  93  99
ATOM     99  C19 non d ame     -38.168  15.183  22.687  0.00  0.00    -0.073 C 
ATOM    100  H27 non d ame     -39.155  15.618  22.529  0.00  0.00     0.028 H 
ATOM    101  H28 non d ame     -37.405  15.882  22.345  0.00  0.00     0.028 H 
ATOM    102  H29 non d ame     -38.086  14.253  22.125  0.00  0.00     0.028 H 
ENDBRANCH  93  99
ENDBRANCH  90  93
ENDBRANCH   1  90
TORSDOF 26
ENDMDL
MODEL 2
REMARK VINA RESULT:      -6.8      2.217      3.913
REMARK  26 active torsions:
REMARK  status: ('A' for Active; 'I' for Inactive)
REMARK    1  A    between atoms: C2_2  and  C3_3 
REMARK    2  A    between atoms: C4_6  and  C5_7 
REMARK       I    between atoms: C5_7  and  N2_9 
REMARK    3  A    between atoms: N2_9  and  C6_10 
REMARK    4  A    between atoms: C6_10  and  C7_11 
REMARK    5  A    between atoms: C6_10  and  C8_13 
REMARK       I    between atoms: C7_11  and  N3_14 
REMARK    6  A    between atoms: N3_14  and  C9_15 
REMARK    7  A    between atoms: C9_15  and  C10_16 
REMARK    8  A    between atoms: C9_15  and  C11_18 
REMARK       I    between atoms: C10_16  and  N4_21 
REMARK    9  A    between atoms: C11_18  and  C12_19 
REMARK   10  A    between atoms: C11_18  and  C13_20 
REMARK   11  A    between atoms: N4_21  and  C14_22 
REMARK   12  A    between atoms: C14_22  and  C15_23 
REMARK   13  A    between atoms: C14_22  and  C16_25 
REMARK       I    between atoms: C15_23  and  N6_40 
REMARK   14  A    between atoms: C16_25  and  C17_26 
REMARK   15  A    between atoms: C17_26  and  C18_27 
REMARK   16  A    between atoms: C17_26  and  C19_28 
REMARK   17  A    between atoms: C20_29  and  C21_30 
REMARK   18  A    between atoms: C20_29  and  C24_33 
REMARK   19  A    between atoms: C20_29  and  N6_40 
REMARK   20  A    between atoms: C21_30  and  C22_31 
REMARK   21  A    between atoms: C22_31  and  C23_32 
REMARK   22  A    between atoms: C23_32  and  O8_43 
REMARK   23  A    between atoms: C24_33  and  C25_34 
REMARK   24  A    between atoms: C28_38  and  O6_39 
REMARK   25  A    between atoms: C29_42  and  O8_43 
REMARK   26  A    between atoms: C29_42  and  C35_49 
ROOT
ATOM      1  C14 non d ame     -36.205  13.444  26.430  0.00  0.00     0.089 C 
ATOM      2  H20 non d ame     -36.817  13.346  27.327  0.00  0.00     0.087 H 
ENDROOT
BRANCH   1   3
ATOM      3  N4  non d ame     -35.921  14.860  26.246  0.00  0.00    -0.346 N 
ATOM      4  C10 non d ame     -36.919  15.901  26.688  0.00  0.00     0.241 C 
ATOM      5  O4  non d ame     -37.945  15.574  27.187  0.00  0.00    -0.271 OA
ATOM      6  H19 non d ame     -35.043  15.117  25.817  0.00  0.00     0.163 HD
BRANCH   4   7
ATOM      7  C9  non d ame     -36.606  17.361  26.495  0.00  0.00     0.092 C 
ATOM      8  H11 non d ame     -36.898  17.912  27.389  0.00  0.00     0.088 H 
BRANCH   7   9
ATOM      9  N3  non d ame     -35.160  17.534  26.333  0.00  0.00    -0.346 N 
ATOM     10  C7  non d ame     -34.346  17.897  27.467  0.00  0.00     0.240 C 
ATOM     11  O3  non d ame     -34.839  18.055  28.517  0.00  0.00    -0.271 OA
ATOM     12  H10 non d ame     -34.721  17.403  25.433  0.00  0.00     0.163 HD
BRANCH  10  13
ATOM     13  C6  non d ame     -32.807  18.083  27.287  0.00  0.00     0.086 C 
ATOM     14  H6  non d ame     -32.227  17.555  28.044  0.00  0.00     0.086 H 
BRANCH  13  15
ATOM     15  N2  non d ame     -32.413  17.533  26.001  0.00  0.00    -0.343 N 
ATOM     16  C5  non d ame     -31.840  16.186  25.938  0.00  0.00     0.273 C 
ATOM     17  O2  non d ame     -31.698  15.555  26.927  0.00  0.00    -0.266 OA
ATOM     18  H5  non d ame     -32.535  18.080  25.161  0.00  0.00     0.163 HD
BRANCH  16  19
ATOM     19  C4  non d ame     -31.420  15.591  24.585  0.00  0.00     0.154 A 
ATOM     20  C1  non d ame     -30.700  14.375  24.361  0.00  0.00    -0.017 A 
ATOM     21  C2  non d ame     -30.570  14.282  22.958  0.00  0.00     0.077 A 
ATOM     22  H1  non d ame     -30.328  13.669  25.104  0.00  0.00     0.091 H 
ATOM     23  O1  non d ame     -31.153  15.326  22.445  0.00  0.00    -0.218 OA
ATOM     24  N1  non d ame     -31.656  16.105  23.374  0.00  0.00    -0.123 NA
BRANCH  21  25
ATOM     25  C3  non d ame     -29.878  13.165  22.188  0.00  0.00    -0.029 C 
ATOM     26  H2  non d ame     -29.012  13.567  21.664  0.00  0.00     0.036 H 
ATOM     27  H3  non d ame     -29.553  12.391  22.884  0.00  0.00     0.036 H 
ATOM     28  H4  non d ame     -30.572  12.736  21.467  0.00  0.00     0.036 H 
ENDBRANCH  21  25
ENDBRANCH  16  19
ENDBRANCH  13  15
BRANCH  13  29
ATOM     29  C8  non d ame     -32.465  19.550  27.348  0.00  0.00    -0.049 C 
ATOM     30  H7  non d ame     -32.212  19.822  28.373  0.00  0.00     0.030 H 
ATOM     31  H8  non d ame     -31.614  19.752  26.698  0.00  0.00     0.030 H 
ATOM     32  H9  non d ame     -33.322  20.137  27.017  0.00  0.00     0.030 H 
ENDBRANCH  13  29
ENDBRANCH  10  13
ENDBRANCH   7   9
BRANCH   7  33
ATOM     33  C11 non d ame     -37.335  17.884  25.222  0.00  0.00    -0.033 C 
ATOM     34  H12 non d ame     -37.300  17.091  24.475  0.00  0.00     0.042 H 
BRANCH  33  35
ATOM     35  C12 non d ame     -38.837  18.190  25.512  0.00  0.00    -0.071 C 
ATOM     36  H13 non d ame     -39.230  18.849  24.738  0.00  0.00     0.028 H 
ATOM     37  H14 non d ame     -39.403  17.258  25.518  0.00  0.00     0.028 H 
ATOM     38  H15 non d ame     -38.928  18.677  26.483  0.00  0.00     0.028 H 
ENDBRANCH  33  35
BRANCH  33  39
ATOM     39  C13 non d ame     -36.605  19.134  24.634  0.00  0.00    -0.071 C 
ATOM     40  H16 non d ame     -37.311  19.961  24.553  0.00  0.00     0.028 H 
ATOM     41  H17 non d ame     -35.784  19.419  25.292  0.00  0.00     0.028 H 
ATOM     42  H18 non d ame     -36.211  18.894  23.646  0.00  0.00     0.028 H 
ENDBRANCH  33  39
ENDBRANCH   7  33
ENDBRANCH   4   7
ENDBRANCH   1   3
BRANCH   1  43
ATOM     43  C15 non d ame     -34.856  12.681  26.554  0.00  0.00     0.240 C 
ATOM     44  O5  non d ame     -33.901  13.067  25.960  0.00  0.00    -0.271 OA
ATOM     45  N6  non d ame     -34.751  11.472  27.420  0.00  0.00    -0.355 N 
ATOM     46  H46 non d ame     -35.553  11.137  27.933  0.00  0.00     0.162 HD
BRANCH  45  47
ATOM     47  C20 non d ame     -33.460  10.758  27.528  0.00  0.00     0.013 C 
ATOM     48  H30 non d ame     -32.711  11.334  26.985  0.00  0.00     0.072 H 
BRANCH  47  49
ATOM     49  C21 non d ame     -33.598   9.382  26.916  0.00  0.00    -0.038 C 
ATOM     50  H31 non d ame     -34.611   9.056  27.149  0.00  0.00     0.036 H 
ATOM     51  H32 non d ame     -33.285   9.490  25.877  0.00  0.00     0.036 H 
BRANCH  49  52
ATOM     52  C22 non d ame     -32.647   8.345  27.553  0.00  0.00     0.018 C 
ATOM     53  H33 non d ame     -31.828   8.222  26.846  0.00  0.00     0.048 H 
ATOM     54  H34 non d ame     -32.447   8.708  28.561  0.00  0.00     0.048 H 
BRANCH  52  55
ATOM     55  C23 non d ame     -33.281   6.936  27.723  0.00  0.00     0.259 C 
ATOM     56  O7  non d ame     -32.610   5.959  27.641  0.00  0.00    -0.265 OA
BRANCH  55  57
ATOM     57  O8  non d ame     -34.678   6.826  27.966  0.00  0.00    -0.317 OA
BRANCH  57  58
ATOM     58  C29 non d ame     -35.007   6.411  29.295  0.00  0.00     0.052 C 
ATOM     59  H47 non d ame     -35.882   5.769  29.196  0.00  0.00     0.082 H 
ATOM     60  H48 non d ame     -34.084   6.014  29.717  0.00  0.00     0.082 H 
BRANCH  58  61
ATOM     61  C35 non d ame     -35.412   7.673  30.104  0.00  0.00    -0.034 A 
ATOM     62  C30 non d ame     -36.202   8.655  29.514  0.00  0.00    -0.075 A 
ATOM     63  C31 non d ame     -36.566   9.788  30.239  0.00  0.00    -0.082 A 
ATOM     64  H49 non d ame     -36.535   8.537  28.482  0.00  0.00     0.084 H 
ATOM     65  C32 non d ame     -36.135   9.938  31.560  0.00  0.00    -0.083 A 
ATOM     66  H50 non d ame     -37.186  10.555  29.775  0.00  0.00     0.083 H 
ATOM     67  C33 non d ame     -35.345   8.957  32.144  0.00  0.00    -0.082 A 
ATOM     68  H51 non d ame     -36.416  10.821  32.135  0.00  0.00     0.083 H 
ATOM     69  C34 non d ame     -34.981   7.822  31.423  0.00  0.00    -0.075 A 
ATOM     70  H52 non d ame     -35.009   9.079  33.174  0.00  0.00     0.083 H 
ATOM     71  H53 non d ame     -34.361   7.056  31.889  0.00  0.00     0.084 H 
ENDBRANCH  58  61
ENDBRANCH  57  58
ENDBRANCH  55  57
ENDBRANCH  52  55
ENDBRANCH  49  52
ENDBRANCH  47  49
BRANCH  47  72
ATOM     72  C24 non d ame     -33.065  10.625  28.997  0.00  0.00    -0.039 C 
ATOM     73  H35 non d ame     -33.881  10.077  29.469  0.00  0.00     0.036 H 
ATOM     74  H36 non d ame     -32.059  10.205  28.990  0.00  0.00     0.036 H 
BRANCH  72  75
ATOM     75  C25 non d ame     -32.976  12.053  29.719  0.00  0.00    -0.001 C 
ATOM     76  C26 non d ame     -31.864  12.996  28.958  0.00  0.00    -0.035 C 
ATOM     77  C27 non d ame     -31.004  13.488  29.882  0.00  0.00     0.085 C 
ATOM     78  H38 non d ame     -31.228  12.383  28.320  0.00  0.00     0.036 H 
ATOM     79  H39 non d ame     -32.343  13.888  28.555  0.00  0.00     0.036 H 
ATOM     80  N5  non d ame     -31.229  12.707  31.155  0.00  0.00    -0.049 N 
ATOM     81  H40 non d ame     -30.008  13.266  29.500  0.00  0.00     0.075 H 
ATOM     82  H41 non d ame     -31.308  14.522  30.041  0.00  0.00     0.075 H 
ATOM     83  C28 non d ame     -32.631  11.930  30.957  0.00  0.00     0.193 C 
ATOM     84  H42 non d ame     -30.487  12.024  31.207  0.00  0.00     0.280 HD
ATOM     85  H43 non d ame     -31.341  13.389  31.892  0.00  0.00     0.280 HD
ATOM     86  H44 non d ame     -33.535  12.285  31.451  0.00  0.00     0.129 H 
ATOM     87  H37 non d ame     -33.959  12.489  29.894  0.00  0.00     0.046 H 
BRANCH  83  88
ATOM     88  O6  non d ame     -32.495  10.562  31.346  0.00  0.00    -0.369 OA
ATOM     89  H45 non d ame     -31.706  10.459  31.883  0.00  0.00     0.212 HD
ENDBRANCH  83  88
ENDBRANCH  72  75
ENDBRANCH  47  72
ENDBRANCH  45  47
ENDBRANCH   1  43
BRANCH   1  90
ATOM     90  C16 non d ame     -36.974  12.932  25.223  0.00  0.00    -0.035 C 
ATOM     91  H21 non d ame     -37.208  13.817  24.632  0.00  0.00     0.037 H 
ATOM     92  H22 non d ame     -36.353  12.142  24.800  0.00  0.00     0.037 H 
BRANCH  90  93
ATOM     93  C17 non d ame     -38.342  12.271  25.586  0.00  0.00    -0.059 C 
ATOM     94  H23 non d ame     -38.404  11.323  25.052  0.00  0.00     0.038 H 
BRANCH  93  95
ATOM     95  C18 non d ame     -38.462  11.965  27.114  0.00  0.00    -0.073 C 
ATOM     96  H24 non d ame     -38.439  12.899  27.674  0.00  0.00     0.028 H 
ATOM     97  H25 non d ame     -39.401  11.448  27.308  0.00  0.00     0.028 H 
ATOM     98  H26 non d ame     -37.629  11.335  27.424  0.00  0.00     0.028 H 
ENDBRANCH  93  95
BRANCH  93  99
ATOM     99  C19 non d ame     -39.511  13.138  25.111  0.00  0.00    -0.073 C 
ATOM    100  H27 non d ame     -39.336  13.452  24.082  0.00  0.00     0.028 H 
ATOM    101  H28 non d ame     -40.435  12.562  25.162  0.00  0.00     0.028 H 
ATOM    102  H29 non d ame     -39.595  14.016  25.750  0.00  0.00     0.028 H 
ENDBRANCH  93  99
ENDBRANCH  90  93
ENDBRANCH   1  90
TORSDOF 26
ENDMDL
MODEL 3
REMARK VINA RESULT:      -6.8      2.749      6.392
REMARK  26 active torsions:
REMARK  status: ('A' for Active; 'I' for Inactive)
REMARK    1  A    between atoms: C2_2  and  C3_3 
REMARK    2  A    between atoms: C4_6  and  C5_7 
REMARK       I    between atoms: C5_7  and  N2_9 
REMARK    3  A    between atoms: N2_9  and  C6_10 
REMARK    4  A    between atoms: C6_10  and  C7_11 
REMARK    5  A    between atoms: C6_10  and  C8_13 
REMARK       I    between atoms: C7_11  and  N3_14 
REMARK    6  A    between atoms: N3_14  and  C9_15 
REMARK    7  A    between atoms: C9_15  and  C10_16 
REMARK    8  A    between atoms: C9_15  and  C11_18 
REMARK       I    between atoms: C10_16  and  N4_21 
REMARK    9  A    between atoms: C11_18  and  C12_19 
REMARK   10  A    between atoms: C11_18  and  C13_20 
REMARK   11  A    between atoms: N4_21  and  C14_22 
REMARK   12  A    between atoms: C14_22  and  C15_23 
REMARK   13  A    between atoms: C14_22  and  C16_25 
REMARK       I    between atoms: C15_23  and  N6_40 
REMARK   14  A    between atoms: C16_25  and  C17_26 
REMARK   15  A    between atoms: C17_26  and  C18_27 
REMARK   16  A    between atoms: C17_26  and  C19_28 
REMARK   17  A    between atoms: C20_29  and  C21_30 
REMARK   18  A    between atoms: C20_29  and  C24_33 
REMARK   19  A    between atoms: C20_29  and  N6_40 
REMARK   20  A    between atoms: C21_30  and  C22_31 
REMARK   21  A    between atoms: C22_31  and  C23_32 
REMARK   22  A    between atoms: C23_32  and  O8_43 
REMARK   23  A    between atoms: C24_33  and  C25_34 
REMARK   24  A    between atoms: C28_38  and  O6_39 
REMARK   25  A    between atoms: C29_42  and  O8_43 
REMARK   26  A    between atoms: C29_42  and  C35_49 
ROOT
ATOM      1  C14 non d ame     -31.292  10.713  23.978  0.00  0.00     0.089 C 
ATOM      2  H20 non d ame     -32.112  10.329  23.371  0.00  0.00     0.087 H 
ENDROOT
BRANCH   1   3
ATOM      3  N4  non d ame     -31.302  12.163  23.862  0.00  0.00    -0.346 N 
ATOM      4  C10 non d ame     -30.452  12.851  22.824  0.00  0.00     0.241 C 
ATOM      5  O4  non d ame     -29.765  12.215  22.094  0.00  0.00    -0.271 OA
ATOM      6  H19 non d ame     -31.892  12.686  24.494  0.00  0.00     0.163 HD
BRANCH   4   7
ATOM      7  C9  non d ame     -30.480  14.352  22.714  0.00  0.00     0.092 C 
ATOM      8  H11 non d ame     -31.419  14.661  22.256  0.00  0.00     0.088 H 
BRANCH   7   9
ATOM      9  N3  non d ame     -30.437  14.942  24.056  0.00  0.00    -0.346 N 
ATOM     10  C7  non d ame     -31.657  15.377  24.690  0.00  0.00     0.240 C 
ATOM     11  O3  non d ame     -32.681  15.262  24.135  0.00  0.00    -0.271 OA
ATOM     12  H10 non d ame     -29.561  15.049  24.546  0.00  0.00     0.163 HD
BRANCH  10  13
ATOM     13  C6  non d ame     -31.605  16.006  26.117  0.00  0.00     0.086 C 
ATOM     14  H6  non d ame     -30.813  16.747  26.222  0.00  0.00     0.086 H 
BRANCH  13  15
ATOM     15  N2  non d ame     -32.858  16.698  26.373  0.00  0.00    -0.343 N 
ATOM     16  C5  non d ame     -32.839  18.122  26.712  0.00  0.00     0.273 C 
ATOM     17  O2  non d ame     -31.811  18.702  26.779  0.00  0.00    -0.266 OA
ATOM     18  H5  non d ame     -33.732  16.194  26.316  0.00  0.00     0.163 HD
BRANCH  16  19
ATOM     19  C4  non d ame     -34.156  18.866  26.984  0.00  0.00     0.154 A 
ATOM     20  C1  non d ame     -34.964  19.569  26.034  0.00  0.00    -0.017 A 
ATOM     21  C2  non d ame     -36.053  20.068  26.783  0.00  0.00     0.077 A 
ATOM     22  H1  non d ame     -34.787  19.697  24.966  0.00  0.00     0.091 H 
ATOM     23  O1  non d ame     -35.882  19.690  28.015  0.00  0.00    -0.218 OA
ATOM     24  N1  non d ame     -34.781  18.988  28.158  0.00  0.00    -0.123 NA
BRANCH  21  25
ATOM     25  C3  non d ame     -37.213  20.895  26.244  0.00  0.00    -0.029 C 
ATOM     26  H2  non d ame     -37.278  21.833  26.796  0.00  0.00     0.036 H 
ATOM     27  H3  non d ame     -37.049  21.107  25.188  0.00  0.00     0.036 H 
ATOM     28  H4  non d ame     -38.142  20.338  26.363  0.00  0.00     0.036 H 
ENDBRANCH  21  25
ENDBRANCH  16  19
ENDBRANCH  13  15
BRANCH  13  29
ATOM     29  C8  non d ame     -31.396  14.920  27.141  0.00  0.00    -0.049 C 
ATOM     30  H7  non d ame     -32.240  14.904  27.831  0.00  0.00     0.030 H 
ATOM     31  H8  non d ame     -31.321  13.956  26.638  0.00  0.00     0.030 H 
ATOM     32  H9  non d ame     -30.477  15.114  27.695  0.00  0.00     0.030 H 
ENDBRANCH  13  29
ENDBRANCH  10  13
ENDBRANCH   7   9
BRANCH   7  33
ATOM     33  C11 non d ame     -29.244  14.836  21.899  0.00  0.00    -0.033 C 
ATOM     34  H12 non d ame     -28.937  14.015  21.250  0.00  0.00     0.042 H 
BRANCH  33  35
ATOM     35  C12 non d ame     -29.605  16.047  20.984  0.00  0.00    -0.071 C 
ATOM     36  H13 non d ame     -29.063  16.931  21.320  0.00  0.00     0.028 H 
ATOM     37  H14 non d ame     -29.329  15.821  19.955  0.00  0.00     0.028 H 
ATOM     38  H15 non d ame     -30.677  16.237  21.039  0.00  0.00     0.028 H 
ENDBRANCH  33  35
BRANCH  33  39
ATOM     39  C13 non d ame     -28.049  15.177  22.845  0.00  0.00    -0.071 C 
ATOM     40  H16 non d ame     -28.193  14.682  23.806  0.00  0.00     0.028 H 
ATOM     41  H17 non d ame     -27.118  14.830  22.394  0.00  0.00     0.028 H 
ATOM     42  H18 non d ame     -27.999  16.255  22.994  0.00  0.00     0.028 H 
ENDBRANCH  33  39
ENDBRANCH   7  33
ENDBRANCH   4   7
ENDBRANCH   1   3
BRANCH   1  43
ATOM     43  C15 non d ame     -31.445  10.335  25.479  0.00  0.00     0.240 C 
ATOM     44  O5  non d ame     -30.933  11.008  26.314  0.00  0.00    -0.271 OA
ATOM     45  N6  non d ame     -32.239   9.137  25.877  0.00  0.00    -0.355 N 
ATOM     46  H46 non d ame     -32.683   8.560  25.178  0.00  0.00     0.162 HD
BRANCH  45  47
ATOM     47  C20 non d ame     -32.376   8.792  27.309  0.00  0.00     0.013 C 
ATOM     48  H30 non d ame     -31.417   8.977  27.792  0.00  0.00     0.072 H 
BRANCH  47  49
ATOM     49  C21 non d ame     -32.746   7.331  27.437  0.00  0.00    -0.038 C 
ATOM     50  H31 non d ame     -32.135   6.943  28.253  0.00  0.00     0.036 H 
ATOM     51  H32 non d ame     -33.833   7.308  27.512  0.00  0.00     0.036 H 
BRANCH  49  52
ATOM     52  C22 non d ame     -32.377   6.507  26.185  0.00  0.00     0.018 C 
ATOM     53  H33 non d ame     -32.775   7.064  25.337  0.00  0.00     0.048 H 
ATOM     54  H34 non d ame     -31.305   6.320  26.259  0.00  0.00     0.048 H 
BRANCH  52  55
ATOM     55  C23 non d ame     -33.052   5.109  26.133  0.00  0.00     0.259 C 
ATOM     56  O7  non d ame     -33.061   4.480  25.125  0.00  0.00    -0.265 OA
BRANCH  55  57
ATOM     57  O8  non d ame     -33.675   4.592  27.303  0.00  0.00    -0.317 OA
BRANCH  57  58
ATOM     58  C29 non d ame     -35.104   4.646  27.275  0.00  0.00     0.052 C 
ATOM     59  H47 non d ame     -35.355   5.426  26.556  0.00  0.00     0.082 H 
ATOM     60  H48 non d ame     -35.435   3.622  27.106  0.00  0.00     0.082 H 
BRANCH  58  61
ATOM     61  C35 non d ame     -35.594   5.095  28.678  0.00  0.00    -0.034 A 
ATOM     62  C30 non d ame     -36.946   5.334  28.899  0.00  0.00    -0.075 A 
ATOM     63  C31 non d ame     -37.387   5.738  30.159  0.00  0.00    -0.082 A 
ATOM     64  H49 non d ame     -37.661   5.206  28.086  0.00  0.00     0.084 H 
ATOM     65  C32 non d ame     -36.468   5.905  31.199  0.00  0.00    -0.083 A 
ATOM     66  H50 non d ame     -38.448   5.923  30.330  0.00  0.00     0.083 H 
ATOM     67  C33 non d ame     -35.119   5.669  30.972  0.00  0.00    -0.082 A 
ATOM     68  H51 non d ame     -36.804   6.220  32.187  0.00  0.00     0.083 H 
ATOM     69  C34 non d ame     -34.675   5.263  29.715  0.00  0.00    -0.075 A 
ATOM     70  H52 non d ame     -34.405   5.802  31.785  0.00  0.00     0.083 H 
ATOM     71  H53 non d ame     -33.614   5.078  29.545  0.00  0.00     0.084 H 
ENDBRANCH  58  61
ENDBRANCH  57  58
ENDBRANCH  55  57
ENDBRANCH  52  55
ENDBRANCH  49  52
ENDBRANCH  47  49
BRANCH  47  72
ATOM     72  C24 non d ame     -33.467   9.651  27.945  0.00  0.00    -0.039 C 
ATOM     73  H35 non d ame     -32.939  10.456  28.458  0.00  0.00     0.036 H 
ATOM     74  H36 non d ame     -34.161   9.883  27.138  0.00  0.00     0.036 H 
BRANCH  72  75
ATOM     75  C25 non d ame     -34.287   8.841  29.057  0.00  0.00    -0.001 C 
ATOM     76  C26 non d ame     -35.898   8.929  28.738  0.00  0.00    -0.035 C 
ATOM     77  C27 non d ame     -36.543   9.335  29.859  0.00  0.00     0.085 C 
ATOM     78  H38 non d ame     -36.095   9.730  28.027  0.00  0.00     0.036 H 
ATOM     79  H39 non d ame     -36.300   7.931  28.561  0.00  0.00     0.036 H 
ATOM     80  N5  non d ame     -35.491   9.845  30.813  0.00  0.00    -0.049 N 
ATOM     81  H40 non d ame     -37.174  10.167  29.546  0.00  0.00     0.075 H 
ATOM     82  H41 non d ame     -36.995   8.435  30.276  0.00  0.00     0.075 H 
ATOM     83  C28 non d ame     -34.077   9.321  30.236  0.00  0.00     0.193 C 
ATOM     84  H42 non d ame     -35.511  10.853  30.749  0.00  0.00     0.280 HD
ATOM     85  H43 non d ame     -35.665   9.392  31.699  0.00  0.00     0.280 HD
ATOM     86  H44 non d ame     -33.565   8.480  30.705  0.00  0.00     0.129 H 
ATOM     87  H37 non d ame     -33.871   7.850  29.236  0.00  0.00     0.046 H 
BRANCH  83  88
ATOM     88  O6  non d ame     -33.125  10.387  30.222  0.00  0.00    -0.369 OA
ATOM     89  H45 non d ame     -32.861  10.568  29.317  0.00  0.00     0.212 HD
ENDBRANCH  83  88
ENDBRANCH  72  75
ENDBRANCH  47  72
ENDBRANCH  45  47
ENDBRANCH   1  43
BRANCH   1  90
ATOM     90  C16 non d ame     -29.968  10.182  23.450  0.00  0.00    -0.035 C 
ATOM     91  H21 non d ame     -29.502  11.025  22.941  0.00  0.00     0.037 H 
ATOM     92  H22 non d ame     -29.477   9.725  24.309  0.00  0.00     0.037 H 
BRANCH  90  93
ATOM     93  C17 non d ame     -30.127   9.055  22.381  0.00  0.00    -0.059 C 
ATOM     94  H23 non d ame     -29.861   9.478  21.412  0.00  0.00     0.038 H 
BRANCH  93  95
ATOM     95  C18 non d ame     -29.173   7.847  22.652  0.00  0.00    -0.073 C 
ATOM     96  H24 non d ame     -28.232   8.213  23.061  0.00  0.00     0.028 H 
ATOM     97  H25 non d ame     -29.640   7.168  23.365  0.00  0.00     0.028 H 
ATOM     98  H26 non d ame     -28.983   7.319  21.718  0.00  0.00     0.028 H 
ENDBRANCH  93  95
BRANCH  93  99
ATOM     99  C19 non d ame     -31.583   8.589  22.290  0.00  0.00    -0.073 C 
ATOM    100  H27 non d ame     -31.622   7.610  21.810  0.00  0.00     0.028 H 
ATOM    101  H28 non d ame     -32.006   8.519  23.292  0.00  0.00     0.028 H 
ATOM    102  H29 non d ame     -32.157   9.305  21.702  0.00  0.00     0.028 H 
ENDBRANCH  93  99
ENDBRANCH  90  93
ENDBRANCH   1  90
TORSDOF 26
ENDMDL
MODEL 4
REMARK VINA RESULT:      -6.8      2.313      5.018
REMARK  26 active torsions:
REMARK  status: ('A' for Active; 'I' for Inactive)
REMARK    1  A    between atoms: C2_2  and  C3_3 
REMARK    2  A    between atoms: C4_6  and  C5_7 
REMARK       I    between atoms: C5_7  and  N2_9 
REMARK    3  A    between atoms: N2_9  and  C6_10 
REMARK    4  A    between atoms: C6_10  and  C7_11 
REMARK    5  A    between atoms: C6_10  and  C8_13 
REMARK       I    between atoms: C7_11  and  N3_14 
REMARK    6  A    between atoms: N3_14  and  C9_15 
REMARK    7  A    between atoms: C9_15  and  C10_16 
REMARK    8  A    between atoms: C9_15  and  C11_18 
REMARK       I    between atoms: C10_16  and  N4_21 
REMARK    9  A    between atoms: C11_18  and  C12_19 
REMARK   10  A    between atoms: C11_18  and  C13_20 
REMARK   11  A    between atoms: N4_21  and  C14_22 
REMARK   12  A    between atoms: C14_22  and  C15_23 
REMARK   13  A    between atoms: C14_22  and  C16_25 
REMARK       I    between atoms: C15_23  and  N6_40 
REMARK   14  A    between atoms: C16_25  and  C17_26 
REMARK   15  A    between atoms: C17_26  and  C18_27 
REMARK   16  A    between atoms: C17_26  and  C19_28 
REMARK   17  A    between atoms: C20_29  and  C21_30 
REMARK   18  A    between atoms: C20_29  and  C24_33 
REMARK   19  A    between atoms: C20_29  and  N6_40 
REMARK   20  A    between atoms: C21_30  and  C22_31 
REMARK   21  A    between atoms: C22_31  and  C23_32 
REMARK   22  A    between atoms: C23_32  and  O8_43 
REMARK   23  A    between atoms: C24_33  and  C25_34 
REMARK   24  A    between atoms: C28_38  and  O6_39 
REMARK   25  A    between atoms: C29_42  and  O8_43 
REMARK   26  A    between atoms: C29_42  and  C35_49 
ROOT
ATOM      1  C14 non d ame     -32.389  11.757  25.074  0.00  0.00     0.089 C 
ATOM      2  H20 non d ame     -33.000  11.178  24.381  0.00  0.00     0.087 H 
ENDROOT
BRANCH   1   3
ATOM      3  N4  non d ame     -33.120  12.976  25.388  0.00  0.00    -0.346 N 
ATOM      4  C10 non d ame     -34.572  12.911  25.792  0.00  0.00     0.241 C 
ATOM      5  O4  non d ame     -35.131  11.866  25.853  0.00  0.00    -0.271 OA
ATOM      6  H19 non d ame     -32.626  13.855  25.328  0.00  0.00     0.163 HD
BRANCH   4   7
ATOM      7  C9  non d ame     -35.311  14.182  26.119  0.00  0.00     0.092 C 
ATOM      8  H11 non d ame     -35.508  14.215  27.191  0.00  0.00     0.088 H 
BRANCH   7   9
ATOM      9  N3  non d ame     -34.466  15.336  25.797  0.00  0.00    -0.346 N 
ATOM     10  C7  non d ame     -33.829  16.079  26.856  0.00  0.00     0.240 C 
ATOM     11  O3  non d ame     -33.985  15.763  27.972  0.00  0.00    -0.271 OA
ATOM     12  H10 non d ame     -34.323  15.621  24.839  0.00  0.00     0.163 HD
BRANCH  10  13
ATOM     13  C6  non d ame     -32.933  17.309  26.508  0.00  0.00     0.086 C 
ATOM     14  H6  non d ame     -32.103  17.436  27.202  0.00  0.00     0.086 H 
BRANCH  13  15
ATOM     15  N2  non d ame     -32.348  17.108  25.192  0.00  0.00    -0.343 N 
ATOM     16  C5  non d ame     -31.395  16.015  24.986  0.00  0.00     0.273 C 
ATOM     17  O2  non d ame     -31.104  15.305  25.885  0.00  0.00    -0.266 OA
ATOM     18  H5  non d ame     -32.600  17.721  24.430  0.00  0.00     0.163 HD
BRANCH  16  19
ATOM     19  C4  non d ame     -30.770  15.790  23.601  0.00  0.00     0.154 A 
ATOM     20  C1  non d ame     -31.424  15.883  22.331  0.00  0.00    -0.017 A 
ATOM     21  C2  non d ame     -30.419  15.589  21.383  0.00  0.00     0.077 A 
ATOM     22  H1  non d ame     -32.467  16.126  22.130  0.00  0.00     0.091 H 
ATOM     23  O1  non d ame     -29.321  15.357  22.040  0.00  0.00    -0.218 OA
ATOM     24  N1  non d ame     -29.500  15.468  23.336  0.00  0.00    -0.123 NA
BRANCH  21  25
ATOM     25  C3  non d ame     -30.591  15.551  19.870  0.00  0.00    -0.029 C 
ATOM     26  H2  non d ame     -29.650  15.261  19.404  0.00  0.00     0.036 H 
ATOM     27  H3  non d ame     -31.363  14.827  19.610  0.00  0.00     0.036 H 
ATOM     28  H4  non d ame     -30.885  16.538  19.513  0.00  0.00     0.036 H 
ENDBRANCH  21  25
ENDBRANCH  16  19
ENDBRANCH  13  15
BRANCH  13  29
ATOM     29  C8  non d ame     -33.771  18.562  26.514  0.00  0.00    -0.049 C 
ATOM     30  H7  non d ame     -34.480  18.521  27.341  0.00  0.00     0.030 H 
ATOM     31  H8  non d ame     -33.124  19.431  26.633  0.00  0.00     0.030 H 
ATOM     32  H9  non d ame     -34.316  18.640  25.573  0.00  0.00     0.030 H 
ENDBRANCH  13  29
ENDBRANCH  10  13
ENDBRANCH   7   9
BRANCH   7  33
ATOM     33  C11 non d ame     -36.620  14.251  25.280  0.00  0.00    -0.033 C 
ATOM     34  H12 non d ame     -36.582  13.447  24.545  0.00  0.00     0.042 H 
BRANCH  33  35
ATOM     35  C12 non d ame     -37.879  14.012  26.171  0.00  0.00    -0.071 C 
ATOM     36  H13 non d ame     -37.636  13.302  26.962  0.00  0.00     0.028 H 
ATOM     37  H14 non d ame     -38.196  14.956  26.614  0.00  0.00     0.028 H 
ATOM     38  H15 non d ame     -38.686  13.609  25.559  0.00  0.00     0.028 H 
ENDBRANCH  33  35
BRANCH  33  39
ATOM     39  C13 non d ame     -36.721  15.607  24.510  0.00  0.00    -0.071 C 
ATOM     40  H16 non d ame     -35.722  16.026  24.381  0.00  0.00     0.028 H 
ATOM     41  H17 non d ame     -37.173  15.437  23.533  0.00  0.00     0.028 H 
ATOM     42  H18 non d ame     -37.337  16.303  25.079  0.00  0.00     0.028 H 
ENDBRANCH  33  39
ENDBRANCH   7  33
ENDBRANCH   4   7
ENDBRANCH   1   3
BRANCH   1  43
ATOM     43  C15 non d ame     -32.114  10.989  26.398  0.00  0.00     0.240 C 
ATOM     44  O5  non d ame     -31.160  11.262  27.053  0.00  0.00    -0.271 OA
ATOM     45  N6  non d ame     -33.045   9.918  26.855  0.00  0.00    -0.355 N 
ATOM     46  H46 non d ame     -33.861   9.681  26.310  0.00  0.00     0.162 HD
BRANCH  45  47
ATOM     47  C20 non d ame     -32.770   9.197  28.117  0.00  0.00     0.013 C 
ATOM     48  H30 non d ame     -31.696   9.232  28.296  0.00  0.00     0.072 H 
BRANCH  47  49
ATOM     49  C21 non d ame     -33.226   7.762  27.982  0.00  0.00    -0.038 C 
ATOM     50  H31 non d ame     -33.354   7.396  29.001  0.00  0.00     0.036 H 
ATOM     51  H32 non d ame     -34.077   7.786  27.301  0.00  0.00     0.036 H 
BRANCH  49  52
ATOM     52  C22 non d ame     -32.164   6.856  27.322  0.00  0.00     0.018 C 
ATOM     53  H33 non d ame     -31.619   7.495  26.629  0.00  0.00     0.048 H 
ATOM     54  H34 non d ame     -31.638   6.370  28.145  0.00  0.00     0.048 H 
BRANCH  52  55
ATOM     55  C23 non d ame     -32.766   5.709  26.463  0.00  0.00     0.259 C 
ATOM     56  O7  non d ame     -32.318   5.460  25.391  0.00  0.00    -0.265 OA
BRANCH  55  57
ATOM     57  O8  non d ame     -33.870   4.966  26.967  0.00  0.00    -0.317 OA
BRANCH  57  58
ATOM     58  C29 non d ame     -33.628   4.354  28.237  0.00  0.00     0.052 C 
ATOM     59  H47 non d ame     -33.814   3.290  28.091  0.00  0.00     0.082 H 
ATOM     60  H48 non d ame     -32.642   4.697  28.547  0.00  0.00     0.082 H 
BRANCH  58  61
ATOM     61  C35 non d ame     -34.677   4.902  29.241  0.00  0.00    -0.034 A 
ATOM     62  C30 non d ame     -34.333   5.088  30.576  0.00  0.00    -0.075 A 
ATOM     63  C31 non d ame     -35.275   5.581  31.478  0.00  0.00    -0.082 A 
ATOM     64  H49 non d ame     -33.326   4.848  30.916  0.00  0.00     0.084 H 
ATOM     65  C32 non d ame     -36.567   5.885  31.040  0.00  0.00    -0.083 A 
ATOM     66  H50 non d ame     -35.002   5.727  32.523  0.00  0.00     0.083 H 
ATOM     67  C33 non d ame     -36.907   5.695  29.708  0.00  0.00    -0.082 A 
ATOM     68  H51 non d ame     -37.310   6.272  31.738  0.00  0.00     0.083 H 
ATOM     69  C34 non d ame     -35.968   5.205  28.802  0.00  0.00    -0.075 A 
ATOM     70  H52 non d ame     -37.916   5.932  29.370  0.00  0.00     0.083 H 
ATOM     71  H53 non d ame     -36.242   5.060  27.757  0.00  0.00     0.084 H 
ENDBRANCH  58  61
ENDBRANCH  57  58
ENDBRANCH  55  57
ENDBRANCH  52  55
ENDBRANCH  49  52
ENDBRANCH  47  49
BRANCH  47  72
ATOM     72  C24 non d ame     -33.521   9.865  29.267  0.00  0.00    -0.039 C 
ATOM     73  H35 non d ame     -32.782  10.000  30.057  0.00  0.00     0.036 H 
ATOM     74  H36 non d ame     -34.013  10.733  28.827  0.00  0.00     0.036 H 
BRANCH  72  75
ATOM     75  C25 non d ame     -34.672   8.917  29.853  0.00  0.00    -0.001 C 
ATOM     76  C26 non d ame     -36.117   9.301  29.167  0.00  0.00    -0.035 C 
ATOM     77  C27 non d ame     -37.029   9.492  30.150  0.00  0.00     0.085 C 
ATOM     78  H38 non d ame     -36.054  10.277  28.685  0.00  0.00     0.036 H 
ATOM     79  H39 non d ame     -36.510   8.446  28.618  0.00  0.00     0.036 H 
ATOM     80  N5  non d ame     -36.265   9.595  31.448  0.00  0.00    -0.049 N 
ATOM     81  H40 non d ame     -37.494  10.454  29.934  0.00  0.00     0.075 H 
ATOM     82  H41 non d ame     -37.634   8.586  30.166  0.00  0.00     0.075 H 
ATOM     83  C28 non d ame     -34.779   9.048  31.133  0.00  0.00     0.193 C 
ATOM     84  H42 non d ame     -36.206  10.578  31.668  0.00  0.00     0.280 HD
ATOM     85  H43 non d ame     -36.712   8.959  32.094  0.00  0.00     0.280 HD
ATOM     86  H44 non d ame     -34.474   8.054  31.460  0.00  0.00     0.129 H 
ATOM     87  H37 non d ame     -34.384   7.866  29.846  0.00  0.00     0.046 H 
BRANCH  83  88
ATOM     88  O6  non d ame     -33.801   9.943  31.667  0.00  0.00    -0.369 OA
ATOM     89  H45 non d ame     -33.092  10.058  31.030  0.00  0.00     0.212 HD
ENDBRANCH  83  88
ENDBRANCH  72  75
ENDBRANCH  47  72
ENDBRANCH  45  47
ENDBRANCH   1  43
BRANCH   1  90
ATOM     90  C16 non d ame     -31.070  12.126  24.414  0.00  0.00    -0.035 C 
ATOM     91  H21 non d ame     -31.184  13.164  24.101  0.00  0.00     0.037 H 
ATOM     92  H22 non d ame     -30.300  11.856  25.136  0.00  0.00     0.037 H 
BRANCH  90  93
ATOM     93  C17 non d ame     -30.767  11.308  23.119  0.00  0.00    -0.059 C 
ATOM     94  H23 non d ame     -31.691  11.246  22.543  0.00  0.00     0.038 H 
BRANCH  93  95
ATOM     95  C18 non d ame     -29.692  12.000  22.221  0.00  0.00    -0.073 C 
ATOM     96  H24 non d ame     -29.982  11.915  21.175  0.00  0.00     0.028 H 
ATOM     97  H25 non d ame     -29.616  13.053  22.492  0.00  0.00     0.028 H 
ATOM     98  H26 non d ame     -28.727  11.516  22.371  0.00  0.00     0.028 H 
ENDBRANCH  93  95
BRANCH  93  99
ATOM     99  C19 non d ame     -30.349   9.876  23.463  0.00  0.00    -0.073 C 
ATOM    100  H27 non d ame     -30.819   9.575  24.399  0.00  0.00     0.028 H 
ATOM    101  H28 non d ame     -30.665   9.203  22.665  0.00  0.00     0.028 H 
ATOM    102  H29 non d ame     -29.265   9.829  23.568  0.00  0.00     0.028 H 
ENDBRANCH  93  99
ENDBRANCH  90  93
ENDBRANCH   1  90
TORSDOF 26
ENDMDL
MODEL 5
REMARK VINA RESULT:      -6.8      2.491      6.383
REMARK  26 active torsions:
REMARK  status: ('A' for Active; 'I' for Inactive)
REMARK    1  A    between atoms: C2_2  and  C3_3 
REMARK    2  A    between atoms: C4_6  and  C5_7 
REMARK       I    between atoms: C5_7  and  N2_9 
REMARK    3  A    between atoms: N2_9  and  C6_10 
REMARK    4  A    between atoms: C6_10  and  C7_11 
REMARK    5  A    between atoms: C6_10  and  C8_13 
REMARK       I    between atoms: C7_11  and  N3_14 
REMARK    6  A    between atoms: N3_14  and  C9_15 
REMARK    7  A    between atoms: C9_15  and  C10_16 
REMARK    8  A    between atoms: C9_15  and  C11_18 
REMARK       I    between atoms: C10_16  and  N4_21 
REMARK    9  A    between atoms: C11_18  and  C12_19 
REMARK   10  A    between atoms: C11_18  and  C13_20 
REMARK   11  A    between atoms: N4_21  and  C14_22 
REMARK   12  A    between atoms: C14_22  and  C15_23 
REMARK   13  A    between atoms: C14_22  and  C16_25 
REMARK       I    between atoms: C15_23  and  N6_40 
REMARK   14  A    between atoms: C16_25  and  C17_26 
REMARK   15  A    between atoms: C17_26  and  C18_27 
REMARK   16  A    between atoms: C17_26  and  C19_28 
REMARK   17  A    between atoms: C20_29  and  C21_30 
REMARK   18  A    between atoms: C20_29  and  C24_33 
REMARK   19  A    between atoms: C20_29  and  N6_40 
REMARK   20  A    between atoms: C21_30  and  C22_31 
REMARK   21  A    between atoms: C22_31  and  C23_32 
REMARK   22  A    between atoms: C23_32  and  O8_43 
REMARK   23  A    between atoms: C24_33  and  C25_34 
REMARK   24  A    between atoms: C28_38  and  O6_39 
REMARK   25  A    between atoms: C29_42  and  O8_43 
REMARK   26  A    between atoms: C29_42  and  C35_49 
ROOT
ATOM      1  C14 non d ame     -36.440  15.697  26.438  0.00  0.00     0.089 C 
ATOM      2  H20 non d ame     -37.117  16.277  27.066  0.00  0.00     0.087 H 
ENDROOT
BRANCH   1   3
ATOM      3  N4  non d ame     -35.090  15.911  26.935  0.00  0.00    -0.346 N 
ATOM      4  C10 non d ame     -34.751  17.161  27.708  0.00  0.00     0.241 C 
ATOM      5  O4  non d ame     -35.583  17.982  27.914  0.00  0.00    -0.271 OA
ATOM      6  H19 non d ame     -34.396  15.201  26.747  0.00  0.00     0.163 HD
BRANCH   4   7
ATOM      7  C9  non d ame     -33.350  17.363  28.220  0.00  0.00     0.092 C 
ATOM      8  H11 non d ame     -33.391  17.846  29.197  0.00  0.00     0.088 H 
BRANCH   7   9
ATOM      9  N3  non d ame     -32.705  16.060  28.408  0.00  0.00    -0.346 N 
ATOM     10  C7  non d ame     -31.804  15.855  29.516  0.00  0.00     0.240 C 
ATOM     11  O3  non d ame     -31.586  16.727  30.265  0.00  0.00    -0.271 OA
ATOM     12  H10 non d ame     -32.881  15.298  27.769  0.00  0.00     0.163 HD
BRANCH  10  13
ATOM     13  C6  non d ame     -31.118  14.467  29.709  0.00  0.00     0.086 C 
ATOM     14  H6  non d ame     -30.471  14.434  30.585  0.00  0.00     0.086 H 
BRANCH  13  15
ATOM     15  N2  non d ame     -32.145  13.458  29.913  0.00  0.00    -0.343 N 
ATOM     16  C5  non d ame     -31.819  12.237  30.652  0.00  0.00     0.273 C 
ATOM     17  O2  non d ame     -30.728  12.074  31.077  0.00  0.00    -0.266 OA
ATOM     18  H5  non d ame     -33.074  13.604  29.544  0.00  0.00     0.163 HD
BRANCH  16  19
ATOM     19  C4  non d ame     -32.895  11.162  30.877  0.00  0.00     0.154 A 
ATOM     20  C1  non d ame     -33.216  10.067  30.013  0.00  0.00    -0.017 A 
ATOM     21  C2  non d ame     -34.265   9.383  30.669  0.00  0.00     0.077 A 
ATOM     22  H1  non d ame     -32.759   9.808  29.058  0.00  0.00     0.091 H 
ATOM     23  O1  non d ame     -34.508  10.019  31.778  0.00  0.00    -0.218 OA
ATOM     24  N1  non d ame     -33.722  11.060  31.921  0.00  0.00    -0.123 NA
BRANCH  21  25
ATOM     25  C3  non d ame     -34.977   8.133  30.169  0.00  0.00    -0.029 C 
ATOM     26  H2  non d ame     -35.907   8.417  29.678  0.00  0.00     0.036 H 
ATOM     27  H3  non d ame     -34.336   7.610  29.459  0.00  0.00     0.036 H 
ATOM     28  H4  non d ame     -35.195   7.478  31.012  0.00  0.00     0.036 H 
ENDBRANCH  21  25
ENDBRANCH  16  19
ENDBRANCH  13  15
BRANCH  13  29
ATOM     29  C8  non d ame     -30.301  14.133  28.487  0.00  0.00    -0.049 C 
ATOM     30  H7  non d ame     -30.880  14.356  27.591  0.00  0.00     0.030 H 
ATOM     31  H8  non d ame     -29.388  14.727  28.487  0.00  0.00     0.030 H 
ATOM     32  H9  non d ame     -30.045  13.073  28.499  0.00  0.00     0.030 H 
ENDBRANCH  13  29
ENDBRANCH  10  13
ENDBRANCH   7   9
BRANCH   7  33
ATOM     33  C11 non d ame     -32.536  18.198  27.188  0.00  0.00    -0.033 C 
ATOM     34  H12 non d ame     -31.510  17.830  27.205  0.00  0.00     0.042 H 
BRANCH  33  35
ATOM     35  C12 non d ame     -33.082  17.999  25.740  0.00  0.00    -0.071 C 
ATOM     36  H13 non d ame     -32.724  18.808  25.103  0.00  0.00     0.028 H 
ATOM     37  H14 non d ame     -32.731  17.045  25.347  0.00  0.00     0.028 H 
ATOM     38  H15 non d ame     -34.171  18.006  25.758  0.00  0.00     0.028 H 
ENDBRANCH  33  35
BRANCH  33  39
ATOM     39  C13 non d ame     -32.515  19.709  27.584  0.00  0.00    -0.071 C 
ATOM     40  H16 non d ame     -31.483  20.060  27.622  0.00  0.00     0.028 H 
ATOM     41  H17 non d ame     -33.068  20.286  26.843  0.00  0.00     0.028 H 
ATOM     42  H18 non d ame     -32.978  19.835  28.562  0.00  0.00     0.028 H 
ENDBRANCH  33  39
ENDBRANCH   7  33
ENDBRANCH   4   7
ENDBRANCH   1   3
BRANCH   1  43
ATOM     43  C15 non d ame     -36.752  14.173  26.490  0.00  0.00     0.240 C 
ATOM     44  O5  non d ame     -37.824  13.801  26.843  0.00  0.00    -0.271 OA
ATOM     45  N6  non d ame     -35.716  13.179  26.091  0.00  0.00    -0.355 N 
ATOM     46  H46 non d ame     -34.803  13.483  25.784  0.00  0.00     0.162 HD
BRANCH  45  47
ATOM     47  C20 non d ame     -36.028  11.734  26.144  0.00  0.00     0.013 C 
ATOM     48  H30 non d ame     -37.020  11.621  26.581  0.00  0.00     0.072 H 
BRANCH  47  49
ATOM     49  C21 non d ame     -35.002  11.032  27.005  0.00  0.00    -0.038 C 
ATOM     50  H31 non d ame     -34.105  11.651  26.957  0.00  0.00     0.036 H 
ATOM     51  H32 non d ame     -35.493  10.856  27.962  0.00  0.00     0.036 H 
BRANCH  49  52
ATOM     52  C22 non d ame     -34.606   9.645  26.454  0.00  0.00     0.018 C 
ATOM     53  H33 non d ame     -35.025   8.920  27.151  0.00  0.00     0.048 H 
ATOM     54  H34 non d ame     -34.919   9.642  25.410  0.00  0.00     0.048 H 
BRANCH  52  55
ATOM     55  C23 non d ame     -33.073   9.391  26.443  0.00  0.00     0.259 C 
ATOM     56  O7  non d ame     -32.646   8.282  26.420  0.00  0.00    -0.265 OA
BRANCH  55  57
ATOM     57  O8  non d ame     -32.182  10.500  26.472  0.00  0.00    -0.317 OA
BRANCH  57  58
ATOM     58  C29 non d ame     -31.406  10.655  25.281  0.00  0.00     0.052 C 
ATOM     59  H47 non d ame     -30.382  10.406  25.561  0.00  0.00     0.082 H 
ATOM     60  H48 non d ame     -31.919  10.072  24.516  0.00  0.00     0.082 H 
BRANCH  58  61
ATOM     61  C35 non d ame     -31.452  12.151  24.871  0.00  0.00    -0.034 A 
ATOM     62  C30 non d ame     -32.201  13.055  25.617  0.00  0.00    -0.075 A 
ATOM     63  C31 non d ame     -32.244  14.399  25.248  0.00  0.00    -0.082 A 
ATOM     64  H49 non d ame     -32.756  12.711  26.490  0.00  0.00     0.084 H 
ATOM     65  C32 non d ame     -31.535  14.837  24.126  0.00  0.00    -0.083 A 
ATOM     66  H50 non d ame     -32.830  15.105  25.836  0.00  0.00     0.083 H 
ATOM     67  C33 non d ame     -30.792  13.931  23.383  0.00  0.00    -0.082 A 
ATOM     68  H51 non d ame     -31.562  15.886  23.832  0.00  0.00     0.083 H 
ATOM     69  C34 non d ame     -30.745  12.587  23.749  0.00  0.00    -0.075 A 
ATOM     70  H52 non d ame     -30.242  14.276  22.507  0.00  0.00     0.083 H 
ATOM     71  H53 non d ame     -30.158  11.881  23.160  0.00  0.00     0.084 H 
ENDBRANCH  58  61
ENDBRANCH  57  58
ENDBRANCH  55  57
ENDBRANCH  52  55
ENDBRANCH  49  52
ENDBRANCH  47  49
BRANCH  47  72
ATOM     72  C24 non d ame     -35.999  11.147  24.735  0.00  0.00    -0.039 C 
ATOM     73  H35 non d ame     -35.486  11.888  24.122  0.00  0.00     0.036 H 
ATOM     74  H36 non d ame     -35.580  10.147  24.846  0.00  0.00     0.036 H 
BRANCH  72  75
ATOM     75  C25 non d ame     -37.474  10.976  24.133  0.00  0.00    -0.001 C 
ATOM     76  C26 non d ame     -38.514  10.518  25.322  0.00  0.00    -0.035 C 
ATOM     77  C27 non d ame     -39.198   9.425  24.905  0.00  0.00     0.085 C 
ATOM     78  H38 non d ame     -37.958  10.156  26.186  0.00  0.00     0.036 H 
ATOM     79  H39 non d ame     -39.292  11.271  25.450  0.00  0.00     0.036 H 
ATOM     80  N5  non d ame     -38.491   8.902  23.679  0.00  0.00    -0.049 N 
ATOM     81  H40 non d ame     -39.101   8.697  25.710  0.00  0.00     0.075 H 
ATOM     82  H41 non d ame     -40.184   9.791  24.618  0.00  0.00     0.075 H 
ATOM     83  C28 non d ame     -37.499  10.083  23.201  0.00  0.00     0.193 C 
ATOM     84  H42 non d ame     -37.933   8.117  23.983  0.00  0.00     0.280 HD
ATOM     85  H43 non d ame     -39.201   8.774  22.972  0.00  0.00     0.280 HD
ATOM     86  H44 non d ame     -37.750  10.702  22.340  0.00  0.00     0.129 H 
ATOM     87  H37 non d ame     -37.769  11.825  23.516  0.00  0.00     0.046 H 
BRANCH  83  88
ATOM     88  O6  non d ame     -36.200   9.555  22.926  0.00  0.00    -0.369 OA
ATOM     89  H45 non d ame     -36.133   9.339  21.993  0.00  0.00     0.212 HD
ENDBRANCH  83  88
ENDBRANCH  72  75
ENDBRANCH  47  72
ENDBRANCH  45  47
ENDBRANCH   1  43
BRANCH   1  90
ATOM     90  C16 non d ame     -36.523  16.187  25.001  0.00  0.00    -0.035 C 
ATOM     91  H21 non d ame     -35.529  16.567  24.768  0.00  0.00     0.037 H 
ATOM     92  H22 non d ame     -36.933  15.351  24.434  0.00  0.00     0.037 H 
BRANCH  90  93
ATOM     93  C17 non d ame     -37.510  17.381  24.802  0.00  0.00    -0.059 C 
ATOM     94  H23 non d ame     -37.991  17.254  23.833  0.00  0.00     0.038 H 
BRANCH  93  95
ATOM     95  C18 non d ame     -38.631  17.406  25.891  0.00  0.00    -0.073 C 
ATOM     96  H24 non d ame     -39.229  16.499  25.818  0.00  0.00     0.028 H 
ATOM     97  H25 non d ame     -38.177  17.462  26.879  0.00  0.00     0.028 H 
ATOM     98  H26 non d ame     -39.269  18.276  25.734  0.00  0.00     0.028 H 
ENDBRANCH  93  95
BRANCH  93  99
ATOM     99  C19 non d ame     -36.756  18.713  24.766  0.00  0.00    -0.073 C 
ATOM    100  H27 non d ame     -35.842  18.629  25.354  0.00  0.00     0.028 H 
ATOM    101  H28 non d ame     -36.503  18.959  23.734  0.00  0.00     0.028 H 
ATOM    102  H29 non d ame     -37.386  19.498  25.182  0.00  0.00     0.028 H 
ENDBRANCH  93  99
ENDBRANCH  90  93
ENDBRANCH   1  90
TORSDOF 26
ENDMDL
MODEL 6
REMARK VINA RESULT:      -6.7      2.629      6.760
REMARK  26 active torsions:
REMARK  status: ('A' for Active; 'I' for Inactive)
REMARK    1  A    between atoms: C2_2  and  C3_3 
REMARK    2  A    between atoms: C4_6  and  C5_7 
REMARK       I    between atoms: C5_7  and  N2_9 
REMARK    3  A    between atoms: N2_9  and  C6_10 
REMARK    4  A    between atoms: C6_10  and  C7_11 
REMARK    5  A    between atoms: C6_10  and  C8_13 
REMARK       I    between atoms: C7_11  and  N3_14 
REMARK    6  A    between atoms: N3_14  and  C9_15 
REMARK    7  A    between atoms: C9_15  and  C10_16 
REMARK    8  A    between atoms: C9_15  and  C11_18 
REMARK       I    between atoms: C10_16  and  N4_21 
REMARK    9  A    between atoms: C11_18  and  C12_19 
REMARK   10  A    between atoms: C11_18  and  C13_20 
REMARK   11  A    between atoms: N4_21  and  C14_22 
REMARK   12  A    between atoms: C14_22  and  C15_23 
REMARK   13  A    between atoms: C14_22  and  C16_25 
REMARK       I    between atoms: C15_23  and  N6_40 
REMARK   14  A    between atoms: C16_25  and  C17_26 
REMARK   15  A    between atoms: C17_26  and  C18_27 
REMARK   16  A    between atoms: C17_26  and  C19_28 
REMARK   17  A    between atoms: C20_29  and  C21_30 
REMARK   18  A    between atoms: C20_29  and  C24_33 
REMARK   19  A    between atoms: C20_29  and  N6_40 
REMARK   20  A    between atoms: C21_30  and  C22_31 
REMARK   21  A    between atoms: C22_31  and  C23_32 
REMARK   22  A    between atoms: C23_32  and  O8_43 
REMARK   23  A    between atoms: C24_33  and  C25_34 
REMARK   24  A    between atoms: C28_38  and  O6_39 
REMARK   25  A    between atoms: C29_42  and  O8_43 
REMARK   26  A    between atoms: C29_42  and  C35_49 
ROOT
ATOM      1  C14 non d ame     -33.186  10.472  30.059  0.00  0.00     0.089 C 
ATOM      2  H20 non d ame     -32.218   9.984  29.941  0.00  0.00     0.087 H 
ENDROOT
BRANCH   1   3
ATOM      3  N4  non d ame     -33.625  10.901  28.740  0.00  0.00    -0.346 N 
ATOM      4  C10 non d ame     -33.140  10.184  27.505  0.00  0.00     0.241 C 
ATOM      5  O4  non d ame     -32.393   9.267  27.598  0.00  0.00    -0.271 OA
ATOM      6  H19 non d ame     -34.259  11.685  28.682  0.00  0.00     0.163 HD
BRANCH   4   7
ATOM      7  C9  non d ame     -33.609  10.638  26.148  0.00  0.00     0.092 C 
ATOM      8  H11 non d ame     -34.699  10.674  26.139  0.00  0.00     0.088 H 
BRANCH   7   9
ATOM      9  N3  non d ame     -33.129  12.000  25.894  0.00  0.00    -0.346 N 
ATOM     10  C7  non d ame     -33.966  13.130  26.215  0.00  0.00     0.240 C 
ATOM     11  O3  non d ame     -35.028  12.962  26.675  0.00  0.00    -0.271 OA
ATOM     12  H10 non d ame     -32.215  12.160  25.495  0.00  0.00     0.163 HD
BRANCH  10  13
ATOM     13  C6  non d ame     -33.450  14.577  25.939  0.00  0.00     0.086 C 
ATOM     14  H6  non d ame     -32.633  14.866  26.600  0.00  0.00     0.086 H 
BRANCH  13  15
ATOM     15  N2  non d ame     -32.931  14.642  24.583  0.00  0.00    -0.343 N 
ATOM     16  C5  non d ame     -31.492  14.499  24.354  0.00  0.00     0.273 C 
ATOM     17  O2  non d ame     -30.760  14.334  25.267  0.00  0.00    -0.266 OA
ATOM     18  H5  non d ame     -33.564  14.786  23.809  0.00  0.00     0.163 HD
BRANCH  16  19
ATOM     19  C4  non d ame     -30.930  14.565  22.925  0.00  0.00     0.154 A 
ATOM     20  C1  non d ame     -31.297  15.485  21.893  0.00  0.00    -0.017 A 
ATOM     21  C2  non d ame     -30.497  15.126  20.785  0.00  0.00     0.077 A 
ATOM     22  H1  non d ame     -32.031  16.289  21.940  0.00  0.00     0.091 H 
ATOM     23  O1  non d ame     -29.760  14.119  21.150  0.00  0.00    -0.218 OA
ATOM     24  N1  non d ame     -29.994  13.772  22.394  0.00  0.00    -0.123 NA
BRANCH  21  25
ATOM     25  C3  non d ame     -30.498  15.797  19.418  0.00  0.00    -0.029 C 
ATOM     26  H2  non d ame     -31.479  15.683  18.957  0.00  0.00     0.036 H 
ATOM     27  H3  non d ame     -30.273  16.857  19.533  0.00  0.00     0.036 H 
ATOM     28  H4  non d ame     -29.743  15.333  18.784  0.00  0.00     0.036 H 
ENDBRANCH  21  25
ENDBRANCH  16  19
ENDBRANCH  13  15
BRANCH  13  29
ATOM     29  C8  non d ame     -34.583  15.557  26.107  0.00  0.00    -0.049 C 
ATOM     30  H7  non d ame     -35.526  15.067  25.866  0.00  0.00     0.030 H 
ATOM     31  H8  non d ame     -34.609  15.909  27.138  0.00  0.00     0.030 H 
ATOM     32  H9  non d ame     -34.433  16.404  25.437  0.00  0.00     0.030 H 
ENDBRANCH  13  29
ENDBRANCH  10  13
ENDBRANCH   7   9
BRANCH   7  33
ATOM     33  C11 non d ame     -33.045   9.681  25.057  0.00  0.00    -0.033 C 
ATOM     34  H12 non d ame     -32.606   8.823  25.568  0.00  0.00     0.042 H 
BRANCH  33  35
ATOM     35  C12 non d ame     -34.180   9.144  24.131  0.00  0.00    -0.071 C 
ATOM     36  H13 non d ame     -34.772   8.405  24.671  0.00  0.00     0.028 H 
ATOM     37  H14 non d ame     -34.821   9.970  23.825  0.00  0.00     0.028 H 
ATOM     38  H15 non d ame     -33.740   8.680  23.248  0.00  0.00     0.028 H 
ENDBRANCH  33  35
BRANCH  33  39
ATOM     39  C13 non d ame     -31.920  10.378  24.228  0.00  0.00    -0.071 C 
ATOM     40  H16 non d ame     -32.330  10.729  23.281  0.00  0.00     0.028 H 
ATOM     41  H17 non d ame     -31.527  11.226  24.790  0.00  0.00     0.028 H 
ATOM     42  H18 non d ame     -31.116   9.667  24.036  0.00  0.00     0.028 H 
ENDBRANCH  33  39
ENDBRANCH   7  33
ENDBRANCH   4   7
ENDBRANCH   1   3
BRANCH   1  43
ATOM     43  C15 non d ame     -34.259   9.514  30.652  0.00  0.00     0.240 C 
ATOM     44  O5  non d ame     -34.397   9.437  31.829  0.00  0.00    -0.271 OA
ATOM     45  N6  non d ame     -35.120   8.697  29.749  0.00  0.00    -0.355 N 
ATOM     46  H46 non d ame     -35.015   8.757  28.747  0.00  0.00     0.162 HD
BRANCH  45  47
ATOM     47  C20 non d ame     -36.136   7.792  30.328  0.00  0.00     0.013 C 
ATOM     48  H30 non d ame     -35.945   7.713  31.398  0.00  0.00     0.072 H 
BRANCH  47  49
ATOM     49  C21 non d ame     -36.019   6.431  29.680  0.00  0.00    -0.038 C 
ATOM     50  H31 non d ame     -36.954   5.917  29.904  0.00  0.00     0.036 H 
ATOM     51  H32 non d ame     -35.735   6.621  28.645  0.00  0.00     0.036 H 
BRANCH  49  52
ATOM     52  C22 non d ame     -34.891   5.571  30.292  0.00  0.00     0.018 C 
ATOM     53  H33 non d ame     -34.301   6.251  30.904  0.00  0.00     0.048 H 
ATOM     54  H34 non d ame     -35.388   4.716  30.751  0.00  0.00     0.048 H 
BRANCH  52  55
ATOM     55  C23 non d ame     -33.911   4.983  29.239  0.00  0.00     0.259 C 
ATOM     56  O7  non d ame     -33.215   4.060  29.512  0.00  0.00    -0.265 OA
BRANCH  55  57
ATOM     57  O8  non d ame     -33.846   5.569  27.944  0.00  0.00    -0.317 OA
BRANCH  57  58
ATOM     58  C29 non d ame     -32.515   5.725  27.442  0.00  0.00     0.052 C 
ATOM     59  H47 non d ame     -32.222   6.743  27.696  0.00  0.00     0.082 H 
ATOM     60  H48 non d ame     -31.950   4.880  27.837  0.00  0.00     0.082 H 
BRANCH  58  61
ATOM     61  C35 non d ame     -32.569   5.599  25.896  0.00  0.00    -0.034 A 
ATOM     62  C30 non d ame     -31.710   6.356  25.106  0.00  0.00    -0.075 A 
ATOM     63  C31 non d ame     -31.758   6.244  23.717  0.00  0.00    -0.082 A 
ATOM     64  H49 non d ame     -30.999   7.037  25.574  0.00  0.00     0.084 H 
ATOM     65  C32 non d ame     -32.672   5.373  23.119  0.00  0.00    -0.083 A 
ATOM     66  H50 non d ame     -31.082   6.837  23.101  0.00  0.00     0.083 H 
ATOM     67  C33 non d ame     -33.530   4.622  23.912  0.00  0.00    -0.082 A 
ATOM     68  H51 non d ame     -32.716   5.278  22.034  0.00  0.00     0.083 H 
ATOM     69  C34 non d ame     -33.483   4.729  25.300  0.00  0.00    -0.075 A 
ATOM     70  H52 non d ame     -34.243   3.945  23.441  0.00  0.00     0.083 H 
ATOM     71  H53 non d ame     -34.160   4.136  25.916  0.00  0.00     0.084 H 
ENDBRANCH  58  61
ENDBRANCH  57  58
ENDBRANCH  55  57
ENDBRANCH  52  55
ENDBRANCH  49  52
ENDBRANCH  47  49
BRANCH  47  72
ATOM     72  C24 non d ame     -37.533   8.357  30.079  0.00  0.00    -0.039 C 
ATOM     73  H35 non d ame     -37.449   8.946  29.165  0.00  0.00     0.036 H 
ATOM     74  H36 non d ame     -38.203   7.498  30.113  0.00  0.00     0.036 H 
BRANCH  72  75
ATOM     75  C25 non d ame     -37.985   9.356  31.246  0.00  0.00    -0.001 C 
ATOM     76  C26 non d ame     -39.548   9.061  31.662  0.00  0.00    -0.035 C 
ATOM     77  C27 non d ame     -40.235  10.229  31.635  0.00  0.00     0.085 C 
ATOM     78  H38 non d ame     -40.033   8.463  30.891  0.00  0.00     0.036 H 
ATOM     79  H39 non d ame     -39.606   8.756  32.707  0.00  0.00     0.036 H 
ATOM     80  N5  non d ame     -39.364  11.236  30.924  0.00  0.00    -0.049 N 
ATOM     81  H40 non d ame     -41.119  10.032  31.029  0.00  0.00     0.075 H 
ATOM     82  H41 non d ame     -40.344  10.527  32.677  0.00  0.00     0.075 H 
ATOM     83  C28 non d ame     -37.886  10.588  30.871  0.00  0.00     0.193 C 
ATOM     84  H42 non d ame     -39.718  11.306  29.980  0.00  0.00     0.280 HD
ATOM     85  H43 non d ame     -39.335  12.056  31.514  0.00  0.00     0.280 HD
ATOM     86  H44 non d ame     -37.104  10.938  31.545  0.00  0.00     0.129 H 
ATOM     87  H37 non d ame     -37.256   9.402  32.056  0.00  0.00     0.046 H 
BRANCH  83  88
ATOM     88  O6  non d ame     -37.341  10.709  29.556  0.00  0.00    -0.369 OA
ATOM     89  H45 non d ame     -37.202   9.835  29.185  0.00  0.00     0.212 HD
ENDBRANCH  83  88
ENDBRANCH  72  75
ENDBRANCH  47  72
ENDBRANCH  45  47
ENDBRANCH   1  43
BRANCH   1  90
ATOM     90  C16 non d ame     -33.040  11.692  30.955  0.00  0.00    -0.035 C 
ATOM     91  H21 non d ame     -33.892  12.328  30.716  0.00  0.00     0.037 H 
ATOM     92  H22 non d ame     -32.921  11.297  31.964  0.00  0.00     0.037 H 
BRANCH  90  93
ATOM     93  C17 non d ame     -31.762  12.538  30.657  0.00  0.00    -0.059 C 
ATOM     94  H23 non d ame     -31.522  13.103  31.558  0.00  0.00     0.038 H 
BRANCH  93  95
ATOM     95  C18 non d ame     -30.528  11.643  30.315  0.00  0.00    -0.073 C 
ATOM     96  H24 non d ame     -30.238  11.071  31.196  0.00  0.00     0.028 H 
ATOM     97  H25 non d ame     -30.789  10.958  29.508  0.00  0.00     0.028 H 
ATOM     98  H26 non d ame     -29.697  12.273  30.001  0.00  0.00     0.028 H 
ENDBRANCH  93  95
BRANCH  93  99
ATOM     99  C19 non d ame     -32.025  13.553  29.541  0.00  0.00    -0.073 C 
ATOM    100  H27 non d ame     -31.108  13.714  28.973  0.00  0.00     0.028 H 
ATOM    101  H28 non d ame     -32.800  13.170  28.877  0.00  0.00     0.028 H 
ATOM    102  H29 non d ame     -32.354  14.496  29.977  0.00  0.00     0.028 H 
ENDBRANCH  93  99
ENDBRANCH  90  93
ENDBRANCH   1  90
TORSDOF 26
ENDMDL
MODEL 7
REMARK VINA RESULT:      -6.7      2.969      7.018
REMARK  26 active torsions:
REMARK  status: ('A' for Active; 'I' for Inactive)
REMARK    1  A    between atoms: C2_2  and  C3_3 
REMARK    2  A    between atoms: C4_6  and  C5_7 
REMARK       I    between atoms: C5_7  and  N2_9 
REMARK    3  A    between atoms: N2_9  and  C6_10 
REMARK    4  A    between atoms: C6_10  and  C7_11 
REMARK    5  A    between atoms: C6_10  and  C8_13 
REMARK       I    between atoms: C7_11  and  N3_14 
REMARK    6  A    between atoms: N3_14  and  C9_15 
REMARK    7  A    between atoms: C9_15  and  C10_16 
REMARK    8  A    between atoms: C9_15  and  C11_18 
REMARK       I    between atoms: C10_16  and  N4_21 
REMARK    9  A    between atoms: C11_18  and  C12_19 
REMARK   10  A    between atoms: C11_18  and  C13_20 
REMARK   11  A    between atoms: N4_21  and  C14_22 
REMARK   12  A    between atoms: C14_22  and  C15_23 
REMARK   13  A    between atoms: C14_22  and  C16_25 
REMARK       I    between atoms: C15_23  and  N6_40 
REMARK   14  A    between atoms: C16_25  and  C17_26 
REMARK   15  A    between atoms: C17_26  and  C18_27 
REMARK   16  A    between atoms: C17_26  and  C19_28 
REMARK   17  A    between atoms: C20_29  and  C21_30 
REMARK   18  A    between atoms: C20_29  and  C24_33 
REMARK   19  A    between atoms: C20_29  and  N6_40 
REMARK   20  A    between atoms: C21_30  and  C22_31 
REMARK   21  A    between atoms: C22_31  and  C23_32 
REMARK   22  A    between atoms: C23_32  and  O8_43 
REMARK   23  A    between atoms: C24_33  and  C25_34 
REMARK   24  A    between atoms: C28_38  and  O6_39 
REMARK   25  A    between atoms: C29_42  and  O8_43 
REMARK   26  A    between atoms: C29_42  and  C35_49 
ROOT
ATOM      1  C14 non d ame     -35.071   8.410  30.744  0.00  0.00     0.089 C 
ATOM      2  H20 non d ame     -34.334   8.802  31.446  0.00  0.00     0.087 H 
ENDROOT
BRANCH   1   3
ATOM      3  N4  non d ame     -34.955   9.179  29.513  0.00  0.00    -0.346 N 
ATOM      4  C10 non d ame     -34.073  10.401  29.459  0.00  0.00     0.241 C 
ATOM      5  O4  non d ame     -33.469  10.748  30.419  0.00  0.00    -0.271 OA
ATOM      6  H19 non d ame     -35.480   8.868  28.708  0.00  0.00     0.163 HD
BRANCH   4   7
ATOM      7  C9  non d ame     -33.961  11.181  28.175  0.00  0.00     0.092 C 
ATOM      8  H11 non d ame     -34.871  11.761  28.027  0.00  0.00     0.088 H 
BRANCH   7   9
ATOM      9  N3  non d ame     -32.851  12.133  28.277  0.00  0.00    -0.346 N 
ATOM     10  C7  non d ame     -33.090  13.542  28.080  0.00  0.00     0.240 C 
ATOM     11  O3  non d ame     -34.169  13.926  27.836  0.00  0.00    -0.271 OA
ATOM     12  H10 non d ame     -31.915  11.816  28.484  0.00  0.00     0.163 HD
BRANCH  10  13
ATOM     13  C6  non d ame     -31.904  14.550  28.186  0.00  0.00     0.086 C 
ATOM     14  H6  non d ame     -30.958  14.065  28.422  0.00  0.00     0.086 H 
BRANCH  13  15
ATOM     15  N2  non d ame     -31.726  15.206  26.902  0.00  0.00    -0.343 N 
ATOM     16  C5  non d ame     -31.255  14.428  25.754  0.00  0.00     0.273 C 
ATOM     17  O2  non d ame     -31.019  13.276  25.875  0.00  0.00    -0.266 OA
ATOM     18  H5  non d ame     -31.927  16.192  26.808  0.00  0.00     0.163 HD
BRANCH  16  19
ATOM     19  C4  non d ame     -31.063  15.108  24.389  0.00  0.00     0.154 A 
ATOM     20  C1  non d ame     -30.055  14.823  23.415  0.00  0.00    -0.017 A 
ATOM     21  C2  non d ame     -30.315  15.715  22.350  0.00  0.00     0.077 A 
ATOM     22  H1  non d ame     -29.257  14.082  23.471  0.00  0.00     0.091 H 
ATOM     23  O1  non d ame     -31.354  16.423  22.684  0.00  0.00    -0.218 OA
ATOM     24  N1  non d ame     -31.808  16.088  23.870  0.00  0.00    -0.123 NA
BRANCH  21  25
ATOM     25  C3  non d ame     -29.526  15.824  21.053  0.00  0.00    -0.029 C 
ATOM     26  H2  non d ame     -30.215  15.865  20.210  0.00  0.00     0.036 H 
ATOM     27  H3  non d ame     -28.922  16.731  21.071  0.00  0.00     0.036 H 
ATOM     28  H4  non d ame     -28.875  14.956  20.949  0.00  0.00     0.036 H 
ENDBRANCH  21  25
ENDBRANCH  16  19
ENDBRANCH  13  15
BRANCH  13  29
ATOM     29  C8  non d ame     -32.206  15.574  29.251  0.00  0.00    -0.049 C 
ATOM     30  H7  non d ame     -31.728  15.278  30.185  0.00  0.00     0.030 H 
ATOM     31  H8  non d ame     -31.823  16.545  28.940  0.00  0.00     0.030 H 
ATOM     32  H9  non d ame     -33.284  15.638  29.399  0.00  0.00     0.030 H 
ENDBRANCH  13  29
ENDBRANCH  10  13
ENDBRANCH   7   9
BRANCH   7  33
ATOM     33  C11 non d ame     -33.693  10.201  26.995  0.00  0.00    -0.033 C 
ATOM     34  H12 non d ame     -34.114   9.234  27.269  0.00  0.00     0.042 H 
BRANCH  33  35
ATOM     35  C12 non d ame     -34.410  10.673  25.691  0.00  0.00    -0.071 C 
ATOM     36  H13 non d ame     -35.064  11.515  25.920  0.00  0.00     0.028 H 
ATOM     37  H14 non d ame     -33.665  10.979  24.958  0.00  0.00     0.028 H 
ATOM     38  H15 non d ame     -35.003   9.853  25.286  0.00  0.00     0.028 H 
ENDBRANCH  33  35
BRANCH  33  39
ATOM     39  C13 non d ame     -32.160  10.012  26.761  0.00  0.00    -0.071 C 
ATOM     40  H16 non d ame     -31.715  10.966  26.477  0.00  0.00     0.028 H 
ATOM     41  H17 non d ame     -31.694   9.653  27.680  0.00  0.00     0.028 H 
ATOM     42  H18 non d ame     -32.000   9.285  25.966  0.00  0.00     0.028 H 
ENDBRANCH  33  39
ENDBRANCH   7  33
ENDBRANCH   4   7
ENDBRANCH   1   3
BRANCH   1  43
ATOM     43  C15 non d ame     -34.829   6.909  30.416  0.00  0.00     0.240 C 
ATOM     44  O5  non d ame     -35.041   6.082  31.242  0.00  0.00    -0.271 OA
ATOM     45  N6  non d ame     -34.340   6.503  29.067  0.00  0.00    -0.355 N 
ATOM     46  H46 non d ame     -34.161   7.196  28.355  0.00  0.00     0.162 HD
BRANCH  45  47
ATOM     47  C20 non d ame     -34.116   5.071  28.770  0.00  0.00     0.013 C 
ATOM     48  H30 non d ame     -34.085   4.533  29.717  0.00  0.00     0.072 H 
BRANCH  47  49
ATOM     49  C21 non d ame     -32.801   4.912  28.042  0.00  0.00    -0.038 C 
ATOM     50  H31 non d ame     -32.074   4.631  28.804  0.00  0.00     0.036 H 
ATOM     51  H32 non d ame     -33.006   4.239  27.209  0.00  0.00     0.036 H 
BRANCH  49  52
ATOM     52  C22 non d ame     -32.295   6.233  27.422  0.00  0.00     0.018 C 
ATOM     53  H33 non d ame     -32.881   7.022  27.892  0.00  0.00     0.048 H 
ATOM     54  H34 non d ame     -31.211   6.216  27.536  0.00  0.00     0.048 H 
BRANCH  52  55
ATOM     55  C23 non d ame     -32.564   6.351  25.896  0.00  0.00     0.259 C 
ATOM     56  O7  non d ame     -33.641   6.651  25.495  0.00  0.00    -0.265 OA
BRANCH  55  57
ATOM     57  O8  non d ame     -31.508   6.085  24.980  0.00  0.00    -0.317 OA
BRANCH  57  58
ATOM     58  C29 non d ame     -31.841   6.351  23.615  0.00  0.00     0.052 C 
ATOM     59  H47 non d ame     -31.409   5.531  23.041  0.00  0.00     0.082 H 
ATOM     60  H48 non d ame     -32.918   6.518  23.601  0.00  0.00     0.082 H 
BRANCH  58  61
ATOM     61  C35 non d ame     -31.135   7.668  23.197  0.00  0.00    -0.034 A 
ATOM     62  C30 non d ame     -29.879   7.626  22.600  0.00  0.00    -0.075 A 
ATOM     63  C31 non d ame     -29.244   8.809  22.225  0.00  0.00    -0.082 A 
ATOM     64  H49 non d ame     -29.392   6.667  22.425  0.00  0.00     0.084 H 
ATOM     65  C32 non d ame     -29.869  10.039  22.452  0.00  0.00    -0.083 A 
ATOM     66  H50 non d ame     -28.261   8.773  21.755  0.00  0.00     0.083 H 
ATOM     67  C33 non d ame     -31.120  10.076  23.052  0.00  0.00    -0.082 A 
ATOM     68  H51 non d ame     -29.380  10.969  22.162  0.00  0.00     0.083 H 
ATOM     69  C34 non d ame     -31.759   8.896  23.426  0.00  0.00    -0.075 A 
ATOM     70  H52 non d ame     -31.604  11.037  23.230  0.00  0.00     0.083 H 
ATOM     71  H53 non d ame     -32.743   8.933  23.896  0.00  0.00     0.084 H 
ENDBRANCH  58  61
ENDBRANCH  57  58
ENDBRANCH  55  57
ENDBRANCH  52  55
ENDBRANCH  49  52
ENDBRANCH  47  49
BRANCH  47  72
ATOM     72  C24 non d ame     -35.251   4.541  27.895  0.00  0.00    -0.039 C 
ATOM     73  H35 non d ame     -34.847   4.510  26.883  0.00  0.00     0.036 H 
ATOM     74  H36 non d ame     -35.584   3.622  28.378  0.00  0.00     0.036 H 
BRANCH  72  75
ATOM     75  C25 non d ame     -36.500   5.544  27.874  0.00  0.00    -0.001 C 
ATOM     76  C26 non d ame     -37.748   4.902  28.731  0.00  0.00    -0.035 C 
ATOM     77  C27 non d ame     -38.866   4.935  27.966  0.00  0.00     0.085 C 
ATOM     78  H38 non d ame     -37.581   3.837  28.893  0.00  0.00     0.036 H 
ATOM     79  H39 non d ame     -37.996   5.549  29.573  0.00  0.00     0.036 H 
ATOM     80  N5  non d ame     -38.425   5.237  26.554  0.00  0.00    -0.049 N 
ATOM     81  H40 non d ame     -39.273   3.924  28.003  0.00  0.00     0.075 H 
ATOM     82  H41 non d ame     -39.451   5.773  28.343  0.00  0.00     0.075 H 
ATOM     83  C28 non d ame     -36.903   5.763  26.667  0.00  0.00     0.193 C 
ATOM     84  H42 non d ame     -38.426   4.357  26.059  0.00  0.00     0.280 HD
ATOM     85  H43 non d ame     -39.006   5.998  26.231  0.00  0.00     0.280 HD
ATOM     86  H44 non d ame     -36.676   6.825  26.572  0.00  0.00     0.129 H 
ATOM     87  H37 non d ame     -36.212   6.568  28.110  0.00  0.00     0.046 H 
BRANCH  83  88
ATOM     88  O6  non d ame     -36.083   5.109  25.698  0.00  0.00    -0.369 OA
ATOM     89  H45 non d ame     -35.348   5.681  25.462  0.00  0.00     0.212 HD
ENDBRANCH  83  88
ENDBRANCH  72  75
ENDBRANCH  47  72
ENDBRANCH  45  47
ENDBRANCH   1  43
BRANCH   1  90
ATOM     90  C16 non d ame     -36.470   8.590  31.311  0.00  0.00    -0.035 C 
ATOM     91  H21 non d ame     -36.821   7.584  31.538  0.00  0.00     0.037 H 
ATOM     92  H22 non d ame     -36.365   9.324  32.111  0.00  0.00     0.037 H 
BRANCH  90  93
ATOM     93  C17 non d ame     -37.487   9.193  30.291  0.00  0.00    -0.059 C 
ATOM     94  H23 non d ame     -36.953   9.372  29.358  0.00  0.00     0.038 H 
BRANCH  93  95
ATOM     95  C18 non d ame     -38.665   8.213  29.985  0.00  0.00    -0.073 C 
ATOM     96  H24 non d ame     -38.448   7.657  29.074  0.00  0.00     0.028 H 
ATOM     97  H25 non d ame     -38.784   7.517  30.815  0.00  0.00     0.028 H 
ATOM     98  H26 non d ame     -39.585   8.782  29.852  0.00  0.00     0.028 H 
ENDBRANCH  93  95
BRANCH  93  99
ATOM     99  C19 non d ame     -38.016  10.544  30.779  0.00  0.00    -0.073 C 
ATOM    100  H27 non d ame     -38.830  10.872  30.131  0.00  0.00     0.028 H 
ATOM    101  H28 non d ame     -38.383  10.444  31.800  0.00  0.00     0.028 H 
ATOM    102  H29 non d ame     -37.212  11.280  30.753  0.00  0.00     0.028 H 
ENDBRANCH  93  99
ENDBRANCH  90  93
ENDBRANCH   1  90
TORSDOF 26
ENDMDL
MODEL 8
REMARK VINA RESULT:      -6.6      2.301      5.064
REMARK  26 active torsions:
REMARK  status: ('A' for Active; 'I' for Inactive)
REMARK    1  A    between atoms: C2_2  and  C3_3 
REMARK    2  A    between atoms: C4_6  and  C5_7 
REMARK       I    between atoms: C5_7  and  N2_9 
REMARK    3  A    between atoms: N2_9  and  C6_10 
REMARK    4  A    between atoms: C6_10  and  C7_11 
REMARK    5  A    between atoms: C6_10  and  C8_13 
REMARK       I    between atoms: C7_11  and  N3_14 
REMARK    6  A    between atoms: N3_14  and  C9_15 
REMARK    7  A    between atoms: C9_15  and  C10_16 
REMARK    8  A    between atoms: C9_15  and  C11_18 
REMARK       I    between atoms: C10_16  and  N4_21 
REMARK    9  A    between atoms: C11_18  and  C12_19 
REMARK   10  A    between atoms: C11_18  and  C13_20 
REMARK   11  A    between atoms: N4_21  and  C14_22 
REMARK   12  A    between atoms: C14_22  and  C15_23 
REMARK   13  A    between atoms: C14_22  and  C16_25 
REMARK       I    between atoms: C15_23  and  N6_40 
REMARK   14  A    between atoms: C16_25  and  C17_26 
REMARK   15  A    between atoms: C17_26  and  C18_27 
REMARK   16  A    between atoms: C17_26  and  C19_28 
REMARK   17  A    between atoms: C20_29  and  C21_30 
REMARK   18  A    between atoms: C20_29  and  C24_33 
REMARK   19  A    between atoms: C20_29  and  N6_40 
REMARK   20  A    between atoms: C21_30  and  C22_31 
REMARK   21  A    between atoms: C22_31  and  C23_32 
REMARK   22  A    between atoms: C23_32  and  O8_43 
REMARK   23  A    between atoms: C24_33  and  C25_34 
REMARK   24  A    between atoms: C28_38  and  O6_39 
REMARK   25  A    between atoms: C29_42  and  O8_43 
REMARK   26  A    between atoms: C29_42  and  C35_49 
ROOT
ATOM      1  C14 non d ame     -35.304   9.349  26.243  0.00  0.00     0.089 C 
ATOM      2  H20 non d ame     -36.281   9.023  26.600  0.00  0.00     0.087 H 
ENDROOT
BRANCH   1   3
ATOM      3  N4  non d ame     -35.449  10.712  25.756  0.00  0.00    -0.346 N 
ATOM      4  C10 non d ame     -36.507  11.619  26.332  0.00  0.00     0.241 C 
ATOM      5  O4  non d ame     -37.232  11.228  27.186  0.00  0.00    -0.271 OA
ATOM      6  H19 non d ame     -34.823  11.025  25.027  0.00  0.00     0.163 HD
BRANCH   4   7
ATOM      7  C9  non d ame     -36.638  13.030  25.819  0.00  0.00     0.092 C 
ATOM      8  H11 non d ame     -37.002  13.670  26.622  0.00  0.00     0.088 H 
BRANCH   7   9
ATOM      9  N3  non d ame     -35.318  13.533  25.428  0.00  0.00    -0.346 N 
ATOM     10  C7  non d ame     -34.700  14.596  26.182  0.00  0.00     0.240 C 
ATOM     11  O3  non d ame     -35.251  15.058  27.106  0.00  0.00    -0.271 OA
ATOM     12  H10 non d ame     -34.831  13.145  24.633  0.00  0.00     0.163 HD
BRANCH  10  13
ATOM     13  C6  non d ame     -33.296  15.129  25.759  0.00  0.00     0.086 C 
ATOM     14  H6  non d ame     -32.589  15.158  26.588  0.00  0.00     0.086 H 
BRANCH  13  15
ATOM     15  N2  non d ame     -32.732  14.234  24.763  0.00  0.00    -0.343 N 
ATOM     16  C5  non d ame     -31.553  13.432  25.098  0.00  0.00     0.273 C 
ATOM     17  O2  non d ame     -31.064  13.517  26.171  0.00  0.00    -0.266 OA
ATOM     18  H5  non d ame     -33.155  14.170  23.847  0.00  0.00     0.163 HD
BRANCH  16  19
ATOM     19  C4  non d ame     -30.947  12.480  24.054  0.00  0.00     0.154 A 
ATOM     20  C1  non d ame     -31.008  11.051  24.050  0.00  0.00    -0.017 A 
ATOM     21  C2  non d ame     -30.305  10.661  22.888  0.00  0.00     0.077 A 
ATOM     22  H1  non d ame     -31.489  10.397  24.778  0.00  0.00     0.091 H 
ATOM     23  O1  non d ame     -29.894  11.746  22.302  0.00  0.00    -0.218 OA
ATOM     24  N1  non d ame     -30.256  12.821  22.963  0.00  0.00    -0.123 NA
BRANCH  21  25
ATOM     25  C3  non d ame     -30.072   9.233  22.412  0.00  0.00    -0.029 C 
ATOM     26  H2  non d ame     -29.242   9.216  21.707  0.00  0.00     0.036 H 
ATOM     27  H3  non d ame     -29.836   8.599  23.267  0.00  0.00     0.036 H 
ATOM     28  H4  non d ame     -30.972   8.862  21.923  0.00  0.00     0.036 H 
ENDBRANCH  21  25
ENDBRANCH  16  19
ENDBRANCH  13  15
BRANCH  13  29
ATOM     29  C8  non d ame     -33.434  16.517  25.187  0.00  0.00    -0.049 C 
ATOM     30  H7  non d ame     -34.430  16.902  25.406  0.00  0.00     0.030 H 
ATOM     31  H8  non d ame     -32.686  17.171  25.635  0.00  0.00     0.030 H 
ATOM     32  H9  non d ame     -33.287  16.482  24.108  0.00  0.00     0.030 H 
ENDBRANCH  13  29
ENDBRANCH  10  13
ENDBRANCH   7   9
BRANCH   7  33
ATOM     33  C11 non d ame     -37.584  13.046  24.583  0.00  0.00    -0.033 C 
ATOM     34  H12 non d ame     -37.583  12.043  24.155  0.00  0.00     0.042 H 
BRANCH  33  35
ATOM     35  C12 non d ame     -39.052  13.380  24.994  0.00  0.00    -0.071 C 
ATOM     36  H13 non d ame     -39.516  12.496  25.433  0.00  0.00     0.028 H 
ATOM     37  H14 non d ame     -39.049  14.189  25.723  0.00  0.00     0.028 H 
ATOM     38  H15 non d ame     -39.615  13.685  24.113  0.00  0.00     0.028 H 
ENDBRANCH  33  35
BRANCH  33  39
ATOM     39  C13 non d ame     -37.062  14.036  23.493  0.00  0.00    -0.071 C 
ATOM     40  H16 non d ame     -36.510  13.482  22.733  0.00  0.00     0.028 H 
ATOM     41  H17 non d ame     -37.908  14.545  23.029  0.00  0.00     0.028 H 
ATOM     42  H18 non d ame     -36.405  14.772  23.955  0.00  0.00     0.028 H 
ENDBRANCH  33  39
ENDBRANCH   7  33
ENDBRANCH   4   7
ENDBRANCH   1   3
BRANCH   1  43
ATOM     43  C15 non d ame     -34.233   9.337  27.371  0.00  0.00     0.240 C 
ATOM     44  O5  non d ame     -33.430   8.462  27.414  0.00  0.00    -0.271 OA
ATOM     45  N6  non d ame     -34.202  10.422  28.392  0.00  0.00    -0.355 N 
ATOM     46  H46 non d ame     -34.876  11.173  28.363  0.00  0.00     0.162 HD
BRANCH  45  47
ATOM     47  C20 non d ame     -33.176  10.397  29.457  0.00  0.00     0.013 C 
ATOM     48  H30 non d ame     -32.733   9.401  29.473  0.00  0.00     0.072 H 
BRANCH  47  49
ATOM     49  C21 non d ame     -33.830  10.692  30.788  0.00  0.00    -0.038 C 
ATOM     50  H31 non d ame     -33.179  10.248  31.541  0.00  0.00     0.036 H 
ATOM     51  H32 non d ame     -34.015  11.767  30.793  0.00  0.00     0.036 H 
BRANCH  49  52
ATOM     52  C22 non d ame     -35.207  10.011  30.944  0.00  0.00     0.018 C 
ATOM     53  H33 non d ame     -35.683  10.498  31.794  0.00  0.00     0.048 H 
ATOM     54  H34 non d ame     -35.672  10.058  29.959  0.00  0.00     0.048 H 
BRANCH  52  55
ATOM     55  C23 non d ame     -35.122   8.503  31.307  0.00  0.00     0.259 C 
ATOM     56  O7  non d ame     -34.819   8.162  32.404  0.00  0.00    -0.265 OA
BRANCH  55  57
ATOM     57  O8  non d ame     -35.399   7.529  30.307  0.00  0.00    -0.317 OA
BRANCH  57  58
ATOM     58  C29 non d ame     -35.781   6.253  30.828  0.00  0.00     0.052 C 
ATOM     59  H47 non d ame     -35.946   6.407  31.894  0.00  0.00     0.082 H 
ATOM     60  H48 non d ame     -36.598   5.908  30.194  0.00  0.00     0.082 H 
BRANCH  58  61
ATOM     61  C35 non d ame     -34.581   5.285  30.651  0.00  0.00    -0.034 A 
ATOM     62  C30 non d ame     -34.074   5.029  29.381  0.00  0.00    -0.075 A 
ATOM     63  C31 non d ame     -32.996   4.159  29.222  0.00  0.00    -0.082 A 
ATOM     64  H49 non d ame     -34.521   5.509  28.510  0.00  0.00     0.084 H 
ATOM     65  C32 non d ame     -32.426   3.542  30.339  0.00  0.00    -0.083 A 
ATOM     66  H50 non d ame     -32.599   3.962  28.226  0.00  0.00     0.083 H 
ATOM     67  C33 non d ame     -32.938   3.798  31.604  0.00  0.00    -0.082 A 
ATOM     68  H51 non d ame     -31.583   2.861  30.224  0.00  0.00     0.083 H 
ATOM     69  C34 non d ame     -34.014   4.668  31.768  0.00  0.00    -0.075 A 
ATOM     70  H52 non d ame     -32.493   3.313  32.473  0.00  0.00     0.083 H 
ATOM     71  H53 non d ame     -34.410   4.865  32.765  0.00  0.00     0.084 H 
ENDBRANCH  58  61
ENDBRANCH  57  58
ENDBRANCH  55  57
ENDBRANCH  52  55
ENDBRANCH  49  52
ENDBRANCH  47  49
BRANCH  47  72
ATOM     72  C24 non d ame     -32.107  11.449  29.169  0.00  0.00    -0.039 C 
ATOM     73  H35 non d ame     -31.158  10.974  29.418  0.00  0.00     0.036 H 
ATOM     74  H36 non d ame     -32.297  11.784  28.150  0.00  0.00     0.036 H 
BRANCH  72  75
ATOM     75  C25 non d ame     -32.261  12.726  30.124  0.00  0.00    -0.001 C 
ATOM     76  C26 non d ame     -32.706  14.038  29.237  0.00  0.00    -0.035 C 
ATOM     77  C27 non d ame     -31.863  15.060  29.517  0.00  0.00     0.085 C 
ATOM     78  H38 non d ame     -32.533  13.848  28.178  0.00  0.00     0.036 H 
ATOM     79  H39 non d ame     -33.675  14.406  29.574  0.00  0.00     0.036 H 
ATOM     80  N5  non d ame     -30.690  14.474  30.265  0.00  0.00    -0.049 N 
ATOM     81  H40 non d ame     -31.521  15.429  28.550  0.00  0.00     0.075 H 
ATOM     82  H41 non d ame     -32.417  15.718  30.186  0.00  0.00     0.075 H 
ATOM     83  C28 non d ame     -31.151  12.997  30.725  0.00  0.00     0.193 C 
ATOM     84  H42 non d ame     -29.940  14.382  29.594  0.00  0.00     0.280 HD
ATOM     85  H43 non d ame     -30.563  15.043  31.089  0.00  0.00     0.280 HD
ATOM     86  H44 non d ame     -31.433  12.802  31.760  0.00  0.00     0.129 H 
ATOM     87  H37 non d ame     -32.849  12.508  31.015  0.00  0.00     0.046 H 
BRANCH  83  88
ATOM     88  O6  non d ame     -30.128  12.045  30.423  0.00  0.00    -0.369 OA
ATOM     89  H45 non d ame     -30.516  11.169  30.360  0.00  0.00     0.212 HD
ENDBRANCH  83  88
ENDBRANCH  72  75
ENDBRANCH  47  72
ENDBRANCH  45  47
ENDBRANCH   1  43
BRANCH   1  90
ATOM     90  C16 non d ame     -34.851   8.458  25.098  0.00  0.00    -0.035 C 
ATOM     91  H21 non d ame     -33.791   8.280  25.272  0.00  0.00     0.037 H 
ATOM     92  H22 non d ame     -35.550   7.621  25.089  0.00  0.00     0.037 H 
BRANCH  90  93
ATOM     93  C17 non d ame     -34.958   9.137  23.695  0.00  0.00    -0.059 C 
ATOM     94  H23 non d ame     -34.951  10.216  23.849  0.00  0.00     0.038 H 
BRANCH  93  95
ATOM     95  C18 non d ame     -33.749   8.778  22.773  0.00  0.00    -0.073 C 
ATOM     96  H24 non d ame     -33.849   7.750  22.427  0.00  0.00     0.028 H 
ATOM     97  H25 non d ame     -33.735   9.450  21.915  0.00  0.00     0.028 H 
ATOM     98  H26 non d ame     -32.821   8.885  23.333  0.00  0.00     0.028 H 
ENDBRANCH  93  95
BRANCH  93  99
ATOM     99  C19 non d ame     -36.285   8.784  23.017  0.00  0.00    -0.073 C 
ATOM    100  H27 non d ame     -37.097   9.324  23.503  0.00  0.00     0.028 H 
ATOM    101  H28 non d ame     -36.241   9.064  21.964  0.00  0.00     0.028 H 
ATOM    102  H29 non d ame     -36.460   7.711  23.099  0.00  0.00     0.028 H 
ENDBRANCH  93  99
ENDBRANCH  90  93
ENDBRANCH   1  90
TORSDOF 26
ENDMDL
MODEL 9
REMARK VINA RESULT:      -6.6      2.461      4.108
REMARK  26 active torsions:
REMARK  status: ('A' for Active; 'I' for Inactive)
REMARK    1  A    between atoms: C2_2  and  C3_3 
REMARK    2  A    between atoms: C4_6  and  C5_7 
REMARK       I    between atoms: C5_7  and  N2_9 
REMARK    3  A    between atoms: N2_9  and  C6_10 
REMARK    4  A    between atoms: C6_10  and  C7_11 
REMARK    5  A    between atoms: C6_10  and  C8_13 
REMARK       I    between atoms: C7_11  and  N3_14 
REMARK    6  A    between atoms: N3_14  and  C9_15 
REMARK    7  A    between atoms: C9_15  and  C10_16 
REMARK    8  A    between atoms: C9_15  and  C11_18 
REMARK       I    between atoms: C10_16  and  N4_21 
REMARK    9  A    between atoms: C11_18  and  C12_19 
REMARK   10  A    between atoms: C11_18  and  C13_20 
REMARK   11  A    between atoms: N4_21  and  C14_22 
REMARK   12  A    between atoms: C14_22  and  C15_23 
REMARK   13  A    between atoms: C14_22  and  C16_25 
REMARK       I    between atoms: C15_23  and  N6_40 
REMARK   14  A    between atoms: C16_25  and  C17_26 
REMARK   15  A    between atoms: C17_26  and  C18_27 
REMARK   16  A    between atoms: C17_26  and  C19_28 
REMARK   17  A    between atoms: C20_29  and  C21_30 
REMARK   18  A    between atoms: C20_29  and  C24_33 
REMARK   19  A    between atoms: C20_29  and  N6_40 
REMARK   20  A    between atoms: C21_30  and  C22_31 
REMARK   21  A    between atoms: C22_31  and  C23_32 
REMARK   22  A    between atoms: C23_32  and  O8_43 
REMARK   23  A    between atoms: C24_33  and  C25_34 
REMARK   24  A    between atoms: C28_38  and  O6_39 
REMARK   25  A    between atoms: C29_42  and  O8_43 
REMARK   26  A    between atoms: C29_42  and  C35_49 
ROOT
ATOM      1  C14 non d ame     -36.459  13.928  26.380  0.00  0.00     0.089 C 
ATOM      2  H20 non d ame     -37.168  13.778  27.195  0.00  0.00     0.087 H 
ENDROOT
BRANCH   1   3
ATOM      3  N4  non d ame     -36.155  15.350  26.320  0.00  0.00    -0.346 N 
ATOM      4  C10 non d ame     -37.211  16.370  26.663  0.00  0.00     0.241 C 
ATOM      5  O4  non d ame     -38.300  16.023  26.983  0.00  0.00    -0.271 OA
ATOM      6  H19 non d ame     -35.223  15.625  26.044  0.00  0.00     0.163 HD
BRANCH   4   7
ATOM      7  C9  non d ame     -36.877  17.838  26.601  0.00  0.00     0.092 C 
ATOM      8  H11 non d ame     -37.219  18.322  27.516  0.00  0.00     0.088 H 
BRANCH   7   9
ATOM      9  N3  non d ame     -35.422  18.006  26.539  0.00  0.00    -0.346 N 
ATOM     10  C7  non d ame     -34.674  18.255  27.747  0.00  0.00     0.240 C 
ATOM     11  O3  non d ame     -35.226  18.325  28.776  0.00  0.00    -0.271 OA
ATOM     12  H10 non d ame     -34.931  17.950  25.659  0.00  0.00     0.163 HD
BRANCH  10  13
ATOM     13  C6  non d ame     -33.126  18.436  27.675  0.00  0.00     0.086 C 
ATOM     14  H6  non d ame     -32.602  17.908  28.471  0.00  0.00     0.086 H 
BRANCH  13  15
ATOM     15  N2  non d ame     -32.644  17.881  26.421  0.00  0.00    -0.343 N 
ATOM     16  C5  non d ame     -32.160  16.500  26.382  0.00  0.00     0.273 C 
ATOM     17  O2  non d ame     -32.158  15.844  27.366  0.00  0.00    -0.266 OA
ATOM     18  H5  non d ame     -32.646  18.449  25.585  0.00  0.00     0.163 HD
BRANCH  16  19
ATOM     19  C4  non d ame     -31.649  15.899  25.063  0.00  0.00     0.154 A 
ATOM     20  C1  non d ame     -31.068  14.606  24.869  0.00  0.00    -0.017 A 
ATOM     21  C2  non d ame     -30.772  14.543  23.489  0.00  0.00     0.077 A 
ATOM     22  H1  non d ame     -30.888  13.832  25.616  0.00  0.00     0.091 H 
ATOM     23  O1  non d ame     -31.145  15.672  22.962  0.00  0.00    -0.218 OA
ATOM     24  N1  non d ame     -31.660  16.480  23.860  0.00  0.00    -0.123 NA
BRANCH  21  25
ATOM     25  C3  non d ame     -30.136  13.370  22.756  0.00  0.00    -0.029 C 
ATOM     26  H2  non d ame     -29.146  13.656  22.403  0.00  0.00     0.036 H 
ATOM     27  H3  non d ame     -30.048  12.522  23.435  0.00  0.00     0.036 H 
ATOM     28  H4  non d ame     -30.759  13.091  21.906  0.00  0.00     0.036 H 
ENDBRANCH  21  25
ENDBRANCH  16  19
ENDBRANCH  13  15
BRANCH  13  29
ATOM     29  C8  non d ame     -32.784  19.902  27.755  0.00  0.00    -0.049 C 
ATOM     30  H7  non d ame     -31.761  20.057  27.412  0.00  0.00     0.030 H 
ATOM     31  H8  non d ame     -33.468  20.470  27.125  0.00  0.00     0.030 H 
ATOM     32  H9  non d ame     -32.875  20.241  28.788  0.00  0.00     0.030 H 
ENDBRANCH  13  29
ENDBRANCH  10  13
ENDBRANCH   7   9
BRANCH   7  33
ATOM     33  C11 non d ame     -37.523  18.463  25.330  0.00  0.00    -0.033 C 
ATOM     34  H12 non d ame     -38.586  18.596  25.533  0.00  0.00     0.042 H 
BRANCH  33  35
ATOM     35  C12 non d ame     -36.925  19.872  25.023  0.00  0.00    -0.071 C 
ATOM     36  H13 non d ame     -36.169  20.116  25.770  0.00  0.00     0.028 H 
ATOM     37  H14 non d ame     -36.469  19.865  24.033  0.00  0.00     0.028 H 
ATOM     38  H15 non d ame     -37.718  20.618  25.053  0.00  0.00     0.028 H 
ENDBRANCH  33  35
BRANCH  33  39
ATOM     39  C13 non d ame     -37.381  17.508  24.103  0.00  0.00    -0.071 C 
ATOM     40  H16 non d ame     -38.372  17.239  23.735  0.00  0.00     0.028 H 
ATOM     41  H17 non d ame     -36.824  18.012  23.312  0.00  0.00     0.028 H 
ATOM     42  H18 non d ame     -36.847  16.606  24.403  0.00  0.00     0.028 H 
ENDBRANCH  33  39
ENDBRANCH   7  33
ENDBRANCH   4   7
ENDBRANCH   1   3
BRANCH   1  43
ATOM     43  C15 non d ame     -35.133  13.147  26.604  0.00  0.00     0.240 C 
ATOM     44  O5  non d ame     -34.137  13.507  26.066  0.00  0.00    -0.271 OA
ATOM     45  N6  non d ame     -35.104  11.954  27.497  0.00  0.00    -0.355 N 
ATOM     46  H46 non d ame     -35.943  11.641  27.964  0.00  0.00     0.162 HD
BRANCH  45  47
ATOM     47  C20 non d ame     -33.834  11.222  27.701  0.00  0.00     0.013 C 
ATOM     48  H30 non d ame     -33.029  11.826  27.283  0.00  0.00     0.072 H 
BRANCH  47  49
ATOM     49  C21 non d ame     -33.905   9.891  26.988  0.00  0.00    -0.038 C 
ATOM     50  H31 non d ame     -34.944   9.571  27.063  0.00  0.00     0.036 H 
ATOM     51  H32 non d ame     -33.455  10.057  26.009  0.00  0.00     0.036 H 
BRANCH  49  52
ATOM     52  C22 non d ame     -33.061   8.797  27.677  0.00  0.00     0.018 C 
ATOM     53  H33 non d ame     -32.225   8.603  27.006  0.00  0.00     0.048 H 
ATOM     54  H34 non d ame     -32.876   9.159  28.689  0.00  0.00     0.048 H 
BRANCH  52  55
ATOM     55  C23 non d ame     -33.804   7.441  27.838  0.00  0.00     0.259 C 
ATOM     56  O7  non d ame     -33.891   6.689  26.922  0.00  0.00    -0.265 OA
BRANCH  55  57
ATOM     57  O8  non d ame     -34.390   7.112  29.091  0.00  0.00    -0.317 OA
BRANCH  57  58
ATOM     58  C29 non d ame     -34.970   5.805  29.138  0.00  0.00     0.052 C 
ATOM     59  H47 non d ame     -35.964   5.939  29.563  0.00  0.00     0.082 H 
ATOM     60  H48 non d ame     -34.857   5.397  28.134  0.00  0.00     0.082 H 
BRANCH  58  61
ATOM     61  C35 non d ame     -34.128   4.943  30.116  0.00  0.00    -0.034 A 
ATOM     62  C30 non d ame     -34.449   4.912  31.470  0.00  0.00    -0.075 A 
ATOM     63  C31 non d ame     -33.693   4.138  32.349  0.00  0.00    -0.082 A 
ATOM     64  H49 non d ame     -35.292   5.495  31.842  0.00  0.00     0.084 H 
ATOM     65  C32 non d ame     -32.611   3.394  31.870  0.00  0.00    -0.083 A 
ATOM     66  H50 non d ame     -33.948   4.115  33.409  0.00  0.00     0.083 H 
ATOM     67  C33 non d ame     -32.293   3.431  30.519  0.00  0.00    -0.082 A 
ATOM     68  H51 non d ame     -32.015   2.786  32.550  0.00  0.00     0.083 H 
ATOM     69  C34 non d ame     -33.047   4.202  29.637  0.00  0.00    -0.075 A 
ATOM     70  H52 non d ame     -31.447   2.851  30.149  0.00  0.00     0.083 H 
ATOM     71  H53 non d ame     -32.792   4.224  28.577  0.00  0.00     0.084 H 
ENDBRANCH  58  61
ENDBRANCH  57  58
ENDBRANCH  55  57
ENDBRANCH  52  55
ENDBRANCH  49  52
ENDBRANCH  47  49
BRANCH  47  72
ATOM     72  C24 non d ame     -33.606  10.991  29.193  0.00  0.00    -0.039 C 
ATOM     73  H35 non d ame     -34.598  11.003  29.644  0.00  0.00     0.036 H 
ATOM     74  H36 non d ame     -32.990  10.093  29.256  0.00  0.00     0.036 H 
BRANCH  72  75
ATOM     75  C25 non d ame     -32.769  12.185  29.857  0.00  0.00    -0.001 C 
ATOM     76  C26 non d ame     -31.480  12.560  28.908  0.00  0.00    -0.035 C 
ATOM     77  C27 non d ame     -30.362  12.563  29.672  0.00  0.00     0.085 C 
ATOM     78  H38 non d ame     -31.297  11.760  28.192  0.00  0.00     0.036 H 
ATOM     79  H39 non d ame     -31.556  13.592  28.565  0.00  0.00     0.036 H 
ATOM     80  N5  non d ame     -30.721  11.905  30.983  0.00  0.00    -0.049 N 
ATOM     81  H40 non d ame     -29.646  11.934  29.143  0.00  0.00     0.075 H 
ATOM     82  H41 non d ame     -30.135  13.613  29.853  0.00  0.00     0.075 H 
ATOM     83  C28 non d ame     -32.334  11.856  31.027  0.00  0.00     0.193 C 
ATOM     84  H42 non d ame     -30.372  10.958  30.933  0.00  0.00     0.280 HD
ATOM     85  H43 non d ame     -30.397  12.525  31.711  0.00  0.00     0.280 HD
ATOM     86  H44 non d ame     -32.892  12.556  31.650  0.00  0.00     0.129 H 
ATOM     87  H37 non d ame     -33.408  13.009  30.175  0.00  0.00     0.046 H 
BRANCH  83  88
ATOM     88  O6  non d ame     -32.777  10.557  31.422  0.00  0.00    -0.369 OA
ATOM     89  H45 non d ame     -32.056  10.088  31.848  0.00  0.00     0.212 HD
ENDBRANCH  83  88
ENDBRANCH  72  75
ENDBRANCH  47  72
ENDBRANCH  45  47
ENDBRANCH   1  43
BRANCH   1  90
ATOM     90  C16 non d ame     -37.089  13.500  25.064  0.00  0.00    -0.035 C 
ATOM     91  H21 non d ame     -37.255  14.423  24.510  0.00  0.00     0.037 H 
ATOM     92  H22 non d ame     -36.426  12.734  24.662  0.00  0.00     0.037 H 
BRANCH  90  93
ATOM     93  C17 non d ame     -38.490  12.828  25.230  0.00  0.00    -0.059 C 
ATOM     94  H23 non d ame     -38.894  13.139  26.193  0.00  0.00     0.038 H 
BRANCH  93  95
ATOM     95  C18 non d ame     -39.494  13.279  24.122  0.00  0.00    -0.073 C 
ATOM     96  H24 non d ame     -40.169  12.457  23.886  0.00  0.00     0.028 H 
ATOM     97  H25 non d ame     -40.073  14.130  24.481  0.00  0.00     0.028 H 
ATOM     98  H26 non d ame     -38.943  13.566  23.227  0.00  0.00     0.028 H 
ENDBRANCH  93  95
BRANCH  93  99
ATOM     99  C19 non d ame     -38.363  11.302  25.261  0.00  0.00    -0.073 C 
ATOM    100  H27 non d ame     -37.593  10.987  24.557  0.00  0.00     0.028 H 
ATOM    101  H28 non d ame     -38.090  10.981  26.267  0.00  0.00     0.028 H 
ATOM    102  H29 non d ame     -39.316  10.853  24.983  0.00  0.00     0.028 H 
ENDBRANCH  93  99
ENDBRANCH  90  93
ENDBRANCH   1  90
TORSDOF 26
ENDMDL
MODEL 10
REMARK VINA RESULT:      -6.6      2.498      8.624
REMARK  26 active torsions:
REMARK  status: ('A' for Active; 'I' for Inactive)
REMARK    1  A    between atoms: C2_2  and  C3_3 
REMARK    2  A    between atoms: C4_6  and  C5_7 
REMARK       I    between atoms: C5_7  and  N2_9 
REMARK    3  A    between atoms: N2_9  and  C6_10 
REMARK    4  A    between atoms: C6_10  and  C7_11 
REMARK    5  A    between atoms: C6_10  and  C8_13 
REMARK       I    between atoms: C7_11  and  N3_14 
REMARK    6  A    between atoms: N3_14  and  C9_15 
REMARK    7  A    between atoms: C9_15  and  C10_16 
REMARK    8  A    between atoms: C9_15  and  C11_18 
REMARK       I    between atoms: C10_16  and  N4_21 
REMARK    9  A    between atoms: C11_18  and  C12_19 
REMARK   10  A    between atoms: C11_18  and  C13_20 
REMARK   11  A    between atoms: N4_21  and  C14_22 
REMARK   12  A    between atoms: C14_22  and  C15_23 
REMARK   13  A    between atoms: C14_22  and  C16_25 
REMARK       I    between atoms: C15_23  and  N6_40 
REMARK   14  A    between atoms: C16_25  and  C17_26 
REMARK   15  A    between atoms: C17_26  and  C18_27 
REMARK   16  A    between atoms: C17_26  and  C19_28 
REMARK   17  A    between atoms: C20_29  and  C21_30 
REMARK   18  A    between atoms: C20_29  and  C24_33 
REMARK   19  A    between atoms: C20_29  and  N6_40 
REMARK   20  A    between atoms: C21_30  and  C22_31 
REMARK   21  A    between atoms: C22_31  and  C23_32 
REMARK   22  A    between atoms: C23_32  and  O8_43 
REMARK   23  A    between atoms: C24_33  and  C25_34 
REMARK   24  A    between atoms: C28_38  and  O6_39 
REMARK   25  A    between atoms: C29_42  and  O8_43 
REMARK   26  A    between atoms: C29_42  and  C35_49 
ROOT
ATOM      1  C14 non d ame     -31.895   9.653  24.719  0.00  0.00     0.089 C 
ATOM      2  H20 non d ame     -31.264   8.845  25.089  0.00  0.00     0.087 H 
ENDROOT
BRANCH   1   3
ATOM      3  N4  non d ame     -33.238   9.432  25.234  0.00  0.00    -0.346 N 
ATOM      4  C10 non d ame     -33.640   8.075  25.755  0.00  0.00     0.241 C 
ATOM      5  O4  non d ame     -32.865   7.176  25.748  0.00  0.00    -0.271 OA
ATOM      6  H19 non d ame     -33.883  10.209  25.229  0.00  0.00     0.163 HD
BRANCH   4   7
ATOM      7  C9  non d ame     -35.032   7.865  26.290  0.00  0.00     0.092 C 
ATOM      8  H11 non d ame     -35.073   6.914  26.822  0.00  0.00     0.088 H 
BRANCH   7   9
ATOM      9  N3  non d ame     -35.348   8.918  27.259  0.00  0.00    -0.346 N 
ATOM     10  C7  non d ame     -35.639   8.572  28.629  0.00  0.00     0.240 C 
ATOM     11  O3  non d ame     -35.624   7.452  28.968  0.00  0.00    -0.271 OA
ATOM     12  H10 non d ame     -35.366   9.889  26.982  0.00  0.00     0.163 HD
BRANCH  10  13
ATOM     13  C6  non d ame     -35.977   9.697  29.656  0.00  0.00     0.086 C 
ATOM     14  H6  non d ame     -36.052   9.327  30.678  0.00  0.00     0.086 H 
BRANCH  13  15
ATOM     15  N2  non d ame     -34.906  10.680  29.648  0.00  0.00    -0.343 N 
ATOM     16  C5  non d ame     -33.745  10.489  30.520  0.00  0.00     0.273 C 
ATOM     17  O2  non d ame     -33.683   9.543  31.226  0.00  0.00    -0.266 OA
ATOM     18  H5  non d ame     -34.968  11.487  29.044  0.00  0.00     0.163 HD
BRANCH  16  19
ATOM     19  C4  non d ame     -32.605  11.519  30.521  0.00  0.00     0.154 A 
ATOM     20  C1  non d ame     -32.593  12.796  29.876  0.00  0.00    -0.017 A 
ATOM     21  C2  non d ame     -31.328  13.346  30.180  0.00  0.00     0.077 A 
ATOM     22  H1  non d ame     -33.382  13.254  29.278  0.00  0.00     0.091 H 
ATOM     23  O1  non d ame     -30.696  12.479  30.916  0.00  0.00    -0.218 OA
ATOM     24  N1  non d ame     -31.420  11.405  31.128  0.00  0.00    -0.123 NA
BRANCH  21  25
ATOM     25  C3  non d ame     -30.802  14.703  29.731  0.00  0.00    -0.029 C 
ATOM     26  H2  non d ame     -30.993  14.832  28.666  0.00  0.00     0.036 H 
ATOM     27  H3  non d ame     -31.308  15.491  30.289  0.00  0.00     0.036 H 
ATOM     28  H4  non d ame     -29.730  14.757  29.917  0.00  0.00     0.036 H 
ENDBRANCH  21  25
ENDBRANCH  16  19
ENDBRANCH  13  15
BRANCH  13  29
ATOM     29  C8  non d ame     -37.281  10.352  29.277  0.00  0.00    -0.049 C 
ATOM     30  H7  non d ame     -37.780  10.715  30.176  0.00  0.00     0.030 H 
ATOM     31  H8  non d ame     -37.087  11.188  28.607  0.00  0.00     0.030 H 
ATOM     32  H9  non d ame     -37.921   9.625  28.776  0.00  0.00     0.030 H 
ENDBRANCH  13  29
ENDBRANCH  10  13
ENDBRANCH   7   9
BRANCH   7  33
ATOM     33  C11 non d ame     -36.053   7.922  25.115  0.00  0.00    -0.033 C 
ATOM     34  H12 non d ame     -36.936   7.361  25.420  0.00  0.00     0.042 H 
BRANCH  33  35
ATOM     35  C12 non d ame     -36.504   9.388  24.825  0.00  0.00    -0.071 C 
ATOM     36  H13 non d ame     -36.577   9.938  25.763  0.00  0.00     0.028 H 
ATOM     37  H14 non d ame     -35.774   9.871  24.176  0.00  0.00     0.028 H 
ATOM     38  H15 non d ame     -37.477   9.378  24.334  0.00  0.00     0.028 H 
ENDBRANCH  33  35
BRANCH  33  39
ATOM     39  C13 non d ame     -35.469   7.245  23.834  0.00  0.00    -0.071 C 
ATOM     40  H16 non d ame     -34.512   7.703  23.585  0.00  0.00     0.028 H 
ATOM     41  H17 non d ame     -35.326   6.180  24.018  0.00  0.00     0.028 H 
ATOM     42  H18 non d ame     -36.163   7.379  23.004  0.00  0.00     0.028 H 
ENDBRANCH  33  39
ENDBRANCH   7  33
ENDBRANCH   4   7
ENDBRANCH   1   3
BRANCH   1  43
ATOM     43  C15 non d ame     -31.405  11.049  25.200  0.00  0.00     0.240 C 
ATOM     44  O5  non d ame     -30.692  11.130  26.148  0.00  0.00    -0.271 OA
ATOM     45  N6  non d ame     -31.817  12.284  24.474  0.00  0.00    -0.355 N 
ATOM     46  H46 non d ame     -32.418  12.227  23.665  0.00  0.00     0.162 HD
BRANCH  45  47
ATOM     47  C20 non d ame     -31.340  13.603  24.943  0.00  0.00     0.013 C 
ATOM     48  H30 non d ame     -30.272  13.522  25.144  0.00  0.00     0.072 H 
BRANCH  47  49
ATOM     49  C21 non d ame     -32.077  13.979  26.209  0.00  0.00    -0.038 C 
ATOM     50  H31 non d ame     -31.776  13.243  26.955  0.00  0.00     0.036 H 
ATOM     51  H32 non d ame     -31.865  15.036  26.370  0.00  0.00     0.036 H 
BRANCH  49  52
ATOM     52  C22 non d ame     -33.610  13.858  26.069  0.00  0.00     0.018 C 
ATOM     53  H33 non d ame     -33.825  14.039  25.016  0.00  0.00     0.048 H 
ATOM     54  H34 non d ame     -33.873  12.902  26.523  0.00  0.00     0.048 H 
BRANCH  52  55
ATOM     55  C23 non d ame     -34.398  14.938  26.859  0.00  0.00     0.259 C 
ATOM     56  O7  non d ame     -34.237  15.067  28.029  0.00  0.00    -0.265 OA
BRANCH  55  57
ATOM     57  O8  non d ame     -35.328  15.766  26.170  0.00  0.00    -0.317 OA
BRANCH  57  58
ATOM     58  C29 non d ame     -34.731  16.618  25.188  0.00  0.00     0.052 C 
ATOM     59  H47 non d ame     -33.867  16.072  24.809  0.00  0.00     0.082 H 
ATOM     60  H48 non d ame     -35.538  16.897  24.510  0.00  0.00     0.082 H 
BRANCH  58  61
ATOM     61  C35 non d ame     -34.228  17.898  25.906  0.00  0.00    -0.034 A 
ATOM     62  C30 non d ame     -35.127  18.900  26.256  0.00  0.00    -0.075 A 
ATOM     63  C31 non d ame     -34.675  20.050  26.901  0.00  0.00    -0.082 A 
ATOM     64  H49 non d ame     -36.187  18.784  26.025  0.00  0.00     0.084 H 
ATOM     65  C32 non d ame     -33.317  20.198  27.193  0.00  0.00    -0.083 A 
ATOM     66  H50 non d ame     -35.383  20.833  27.175  0.00  0.00     0.083 H 
ATOM     67  C33 non d ame     -32.422  19.197  26.839  0.00  0.00    -0.082 A 
ATOM     68  H51 non d ame     -32.955  21.094  27.697  0.00  0.00     0.083 H 
ATOM     69  C34 non d ame     -32.870  18.045  26.196  0.00  0.00    -0.075 A 
ATOM     70  H52 non d ame     -31.363  19.317  27.066  0.00  0.00     0.083 H 
ATOM     71  H53 non d ame     -32.162  17.263  25.922  0.00  0.00     0.084 H 
ENDBRANCH  58  61
ENDBRANCH  57  58
ENDBRANCH  55  57
ENDBRANCH  52  55
ENDBRANCH  49  52
ENDBRANCH  47  49
BRANCH  47  72
ATOM     72  C24 non d ame     -31.600  14.658  23.870  0.00  0.00    -0.039 C 
ATOM     73  H35 non d ame     -32.638  14.515  23.568  0.00  0.00     0.036 H 
ATOM     74  H36 non d ame     -31.286  15.604  24.311  0.00  0.00     0.036 H 
BRANCH  72  75
ATOM     75  C25 non d ame     -30.693  14.417  22.571  0.00  0.00    -0.001 C 
ATOM     76  C26 non d ame     -29.178  13.964  23.023  0.00  0.00    -0.035 C 
ATOM     77  C27 non d ame     -28.279  14.756  22.391  0.00  0.00     0.085 C 
ATOM     78  H38 non d ame     -29.019  14.189  24.077  0.00  0.00     0.036 H 
ATOM     79  H39 non d ame     -28.955  12.968  22.638  0.00  0.00     0.036 H 
ATOM     80  N5  non d ame     -29.047  15.916  21.806  0.00  0.00    -0.049 N 
ATOM     81  H40 non d ame     -27.616  15.126  23.173  0.00  0.00     0.075 H 
ATOM     82  H41 non d ame     -27.878  14.150  21.579  0.00  0.00     0.075 H 
ATOM     83  C28 non d ame     -30.603  15.490  21.858  0.00  0.00     0.193 C 
ATOM     84  H42 non d ame     -28.906  16.697  22.431  0.00  0.00     0.280 HD
ATOM     85  H43 non d ame     -28.765  15.987  20.839  0.00  0.00     0.280 HD
ATOM     86  H44 non d ame     -31.120  15.171  20.953  0.00  0.00     0.129 H 
ATOM     87  H37 non d ame     -31.194  13.799  21.826  0.00  0.00     0.046 H 
BRANCH  83  88
ATOM     88  O6  non d ame     -31.389  16.558  22.391  0.00  0.00    -0.369 OA
ATOM     89  H45 non d ame     -31.543  17.214  21.706  0.00  0.00     0.212 HD
ENDBRANCH  83  88
ENDBRANCH  72  75
ENDBRANCH  47  72
ENDBRANCH  45  47
ENDBRANCH   1  43
BRANCH   1  90
ATOM     90  C16 non d ame     -31.935   9.621  23.200  0.00  0.00    -0.035 C 
ATOM     91  H21 non d ame     -32.950   9.914  22.931  0.00  0.00     0.037 H 
ATOM     92  H22 non d ame     -31.089  10.228  22.876  0.00  0.00     0.037 H 
BRANCH  90  93
ATOM     93  C17 non d ame     -31.713   8.198  22.597  0.00  0.00    -0.059 C 
ATOM     94  H23 non d ame     -32.050   7.470  23.335  0.00  0.00     0.038 H 
BRANCH  93  95
ATOM     95  C18 non d ame     -32.544   7.974  21.293  0.00  0.00    -0.073 C 
ATOM     96  H24 non d ame     -33.607   8.027  21.526  0.00  0.00     0.028 H 
ATOM     97  H25 non d ame     -32.294   8.745  20.565  0.00  0.00     0.028 H 
ATOM     98  H26 non d ame     -32.312   6.993  20.878  0.00  0.00     0.028 H 
ENDBRANCH  93  95
BRANCH  93  99
ATOM     99  C19 non d ame     -30.226   7.936  22.346  0.00  0.00    -0.073 C 
ATOM    100  H27 non d ame     -29.781   7.487  23.235  0.00  0.00     0.028 H 
ATOM    101  H28 non d ame     -30.114   7.256  21.501  0.00  0.00     0.028 H 
ATOM    102  H29 non d ame     -29.724   8.877  22.123  0.00  0.00     0.028 H 
ENDBRANCH  93  99
ENDBRANCH  90  93
ENDBRANCH   1  90
TORSDOF 26
ENDMDL
MODEL 11
REMARK VINA RESULT:      -6.5      3.252      9.305
REMARK  26 active torsions:
REMARK  status: ('A' for Active; 'I' for Inactive)
REMARK    1  A    between atoms: C2_2  and  C3_3 
REMARK    2  A    between atoms: C4_6  and  C5_7 
REMARK       I    between atoms: C5_7  and  N2_9 
REMARK    3  A    between atoms: N2_9  and  C6_10 
REMARK    4  A    between atoms: C6_10  and  C7_11 
REMARK    5  A    between atoms: C6_10  and  C8_13 
REMARK       I    between atoms: C7_11  and  N3_14 
REMARK    6  A    between atoms: N3_14  and  C9_15 
REMARK    7  A    between atoms: C9_15  and  C10_16 
REMARK    8  A    between atoms: C9_15  and  C11_18 
REMARK       I    between atoms: C10_16  and  N4_21 
REMARK    9  A    between atoms: C11_18  and  C12_19 
REMARK   10  A    between atoms: C11_18  and  C13_20 
REMARK   11  A    between atoms: N4_21  and  C14_22 
REMARK   12  A    between atoms: C14_22  and  C15_23 
REMARK   13  A    between atoms: C14_22  and  C16_25 
REMARK       I    between atoms: C15_23  and  N6_40 
REMARK   14  A    between atoms: C16_25  and  C17_26 
REMARK   15  A    between atoms: C17_26  and  C18_27 
REMARK   16  A    between atoms: C17_26  and  C19_28 
REMARK   17  A    between atoms: C20_29  and  C21_30 
REMARK   18  A    between atoms: C20_29  and  C24_33 
REMARK   19  A    between atoms: C20_29  and  N6_40 
REMARK   20  A    between atoms: C21_30  and  C22_31 
REMARK   21  A    between atoms: C22_31  and  C23_32 
REMARK   22  A    between atoms: C23_32  and  O8_43 
REMARK   23  A    between atoms: C24_33  and  C25_34 
REMARK   24  A    between atoms: C28_38  and  O6_39 
REMARK   25  A    between atoms: C29_42  and  O8_43 
REMARK   26  A    between atoms: C29_42  and  C35_49 
ROOT
ATOM      1  C14 non d ame     -31.944   9.463  24.514  0.00  0.00     0.089 C 
ATOM      2  H20 non d ame     -31.353   8.622  24.877  0.00  0.00     0.087 H 
ENDROOT
BRANCH   1   3
ATOM      3  N4  non d ame     -33.214   9.445  25.226  0.00  0.00    -0.346 N 
ATOM      4  C10 non d ame     -33.317   8.799  26.584  0.00  0.00     0.241 C 
ATOM      5  O4  non d ame     -32.364   8.298  27.084  0.00  0.00    -0.271 OA
ATOM      6  H19 non d ame     -34.013   9.875  24.782  0.00  0.00     0.163 HD
BRANCH   4   7
ATOM      7  C9  non d ame     -34.637   8.794  27.309  0.00  0.00     0.092 C 
ATOM      8  H11 non d ame     -35.411   9.184  26.646  0.00  0.00     0.088 H 
BRANCH   7   9
ATOM      9  N3  non d ame     -35.007   7.416  27.643  0.00  0.00    -0.346 N 
ATOM     10  C7  non d ame     -35.533   6.543  26.622  0.00  0.00     0.240 C 
ATOM     11  O3  non d ame     -35.666   6.934  25.527  0.00  0.00    -0.271 OA
ATOM     12  H10 non d ame     -34.899   7.065  28.584  0.00  0.00     0.163 HD
BRANCH  10  13
ATOM     13  C6  non d ame     -35.927   5.078  26.985  0.00  0.00     0.086 C 
ATOM     14  H6  non d ame     -35.453   4.341  26.337  0.00  0.00     0.086 H 
BRANCH  13  15
ATOM     15  N2  non d ame     -35.479   4.790  28.338  0.00  0.00    -0.343 N 
ATOM     16  C5  non d ame     -34.052   4.584  28.597  0.00  0.00     0.273 C 
ATOM     17  O2  non d ame     -33.274   4.649  27.710  0.00  0.00    -0.266 OA
ATOM     18  H5  non d ame     -36.152   4.734  29.089  0.00  0.00     0.163 HD
BRANCH  16  19
ATOM     19  C4  non d ame     -33.565   4.281  30.022  0.00  0.00     0.154 A 
ATOM     20  C1  non d ame     -32.478   3.431  30.402  0.00  0.00    -0.017 A 
ATOM     21  C2  non d ame     -32.444   3.493  31.813  0.00  0.00     0.077 A 
ATOM     22  H1  non d ame     -31.816   2.858  29.753  0.00  0.00     0.091 H 
ATOM     23  O1  non d ame     -33.402   4.288  32.189  0.00  0.00    -0.218 OA
ATOM     24  N1  non d ame     -34.070   4.761  31.162  0.00  0.00    -0.123 NA
BRANCH  21  25
ATOM     25  C3  non d ame     -31.466   2.763  32.724  0.00  0.00    -0.029 C 
ATOM     26  H2  non d ame     -30.778   3.481  33.169  0.00  0.00     0.036 H 
ATOM     27  H3  non d ame     -32.017   2.251  33.513  0.00  0.00     0.036 H 
ATOM     28  H4  non d ame     -30.903   2.033  32.143  0.00  0.00     0.036 H 
ENDBRANCH  21  25
ENDBRANCH  16  19
ENDBRANCH  13  15
BRANCH  13  29
ATOM     29  C8  non d ame     -37.423   4.919  26.892  0.00  0.00    -0.049 C 
ATOM     30  H7  non d ame     -37.698   3.901  27.167  0.00  0.00     0.030 H 
ATOM     31  H8  non d ame     -37.906   5.622  27.570  0.00  0.00     0.030 H 
ATOM     32  H9  non d ame     -37.747   5.119  25.870  0.00  0.00     0.030 H 
ENDBRANCH  13  29
ENDBRANCH  10  13
ENDBRANCH   7   9
BRANCH   7  33
ATOM     33  C11 non d ame     -34.514   9.628  28.618  0.00  0.00    -0.033 C 
ATOM     34  H12 non d ame     -33.584  10.193  28.561  0.00  0.00     0.042 H 
BRANCH  33  35
ATOM     35  C12 non d ame     -35.680  10.656  28.750  0.00  0.00    -0.071 C 
ATOM     36  H13 non d ame     -35.358  11.623  28.363  0.00  0.00     0.028 H 
ATOM     37  H14 non d ame     -36.540  10.305  28.179  0.00  0.00     0.028 H 
ATOM     38  H15 non d ame     -35.957  10.758  29.799  0.00  0.00     0.028 H 
ENDBRANCH  33  35
BRANCH  33  39
ATOM     39  C13 non d ame     -34.437   8.695  29.869  0.00  0.00    -0.071 C 
ATOM     40  H16 non d ame     -33.392   8.529  30.135  0.00  0.00     0.028 H 
ATOM     41  H17 non d ame     -34.954   9.166  30.706  0.00  0.00     0.028 H 
ATOM     42  H18 non d ame     -34.911   7.741  29.641  0.00  0.00     0.028 H 
ENDBRANCH  33  39
ENDBRANCH   7  33
ENDBRANCH   4   7
ENDBRANCH   1   3
BRANCH   1  43
ATOM     43  C15 non d ame     -31.248  10.829  24.779  0.00  0.00     0.240 C 
ATOM     44  O5  non d ame     -30.691  11.018  25.812  0.00  0.00    -0.271 OA
ATOM     45  N6  non d ame     -31.268  11.899  23.741  0.00  0.00    -0.355 N 
ATOM     46  H46 non d ame     -31.734  11.748  22.858  0.00  0.00     0.162 HD
BRANCH  45  47
ATOM     47  C20 non d ame     -30.600  13.191  24.007  0.00  0.00     0.013 C 
ATOM     48  H30 non d ame     -29.917  13.049  24.844  0.00  0.00     0.072 H 
BRANCH  47  49
ATOM     49  C21 non d ame     -31.642  14.228  24.361  0.00  0.00    -0.038 C 
ATOM     50  H31 non d ame     -31.780  14.826  23.459  0.00  0.00     0.036 H 
ATOM     51  H32 non d ame     -32.480  13.672  24.781  0.00  0.00     0.036 H 
BRANCH  49  52
ATOM     52  C22 non d ame     -31.168  15.202  25.461  0.00  0.00     0.018 C 
ATOM     53  H33 non d ame     -30.650  14.587  26.197  0.00  0.00     0.048 H 
ATOM     54  H34 non d ame     -30.633  15.997  24.942  0.00  0.00     0.048 H 
BRANCH  52  55
ATOM     55  C23 non d ame     -32.329  15.897  26.225  0.00  0.00     0.259 C 
ATOM     56  O7  non d ame     -32.591  17.037  26.018  0.00  0.00    -0.265 OA
BRANCH  55  57
ATOM     57  O8  non d ame     -33.071  15.157  27.187  0.00  0.00    -0.317 OA
BRANCH  57  58
ATOM     58  C29 non d ame     -32.697  15.423  28.542  0.00  0.00     0.052 C 
ATOM     59  H47 non d ame     -31.885  16.148  28.486  0.00  0.00     0.082 H 
ATOM     60  H48 non d ame     -33.622  15.680  29.058  0.00  0.00     0.082 H 
BRANCH  58  61
ATOM     61  C35 non d ame     -32.143  14.109  29.153  0.00  0.00    -0.034 A 
ATOM     62  C30 non d ame     -32.977  13.280  29.897  0.00  0.00    -0.075 A 
ATOM     63  C31 non d ame     -32.479  12.100  30.446  0.00  0.00    -0.082 A 
ATOM     64  H49 non d ame     -34.021  13.556  30.050  0.00  0.00     0.084 H 
ATOM     65  C32 non d ame     -31.140  11.750  30.252  0.00  0.00    -0.083 A 
ATOM     66  H50 non d ame     -33.136  11.452  31.027  0.00  0.00     0.083 H 
ATOM     67  C33 non d ame     -30.311  12.582  29.512  0.00  0.00    -0.082 A 
ATOM     68  H51 non d ame     -30.743  10.829  30.678  0.00  0.00     0.083 H 
ATOM     69  C34 non d ame     -30.805  13.761  28.959  0.00  0.00    -0.075 A 
ATOM     70  H52 non d ame     -29.266  12.307  29.364  0.00  0.00     0.083 H 
ATOM     71  H53 non d ame     -30.147  14.409  28.378  0.00  0.00     0.084 H 
ENDBRANCH  58  61
ENDBRANCH  57  58
ENDBRANCH  55  57
ENDBRANCH  52  55
ENDBRANCH  49  52
ENDBRANCH  47  49
BRANCH  47  72
ATOM     72  C24 non d ame     -29.832  13.641  22.766  0.00  0.00    -0.039 C 
ATOM     73  H35 non d ame     -28.814  13.828  23.107  0.00  0.00     0.036 H 
ATOM     74  H36 non d ame     -30.023  12.876  22.014  0.00  0.00     0.036 H 
BRANCH  72  75
ATOM     75  C25 non d ame     -30.398  15.024  22.188  0.00  0.00    -0.001 C 
ATOM     76  C26 non d ame     -31.062  14.780  20.703  0.00  0.00    -0.035 C 
ATOM     77  C27 non d ame     -30.535  15.679  19.838  0.00  0.00     0.085 C 
ATOM     78  H38 non d ame     -30.738  13.820  20.302  0.00  0.00     0.036 H 
ATOM     79  H39 non d ame     -32.122  15.034  20.721  0.00  0.00     0.036 H 
ATOM     80  N5  non d ame     -29.337  16.297  20.517  0.00  0.00    -0.049 N 
ATOM     81  H40 non d ame     -30.197  15.095  18.982  0.00  0.00     0.075 H 
ATOM     82  H41 non d ame     -31.302  16.442  19.708  0.00  0.00     0.075 H 
ATOM     83  C28 non d ame     -29.460  15.904  22.078  0.00  0.00     0.193 C 
ATOM     84  H42 non d ame     -28.523  15.840  20.133  0.00  0.00     0.280 HD
ATOM     85  H43 non d ame     -29.443  17.298  20.428  0.00  0.00     0.280 HD
ATOM     86  H44 non d ame     -29.791  16.640  22.810  0.00  0.00     0.129 H 
ATOM     87  H37 non d ame     -31.003  15.560  22.920  0.00  0.00     0.046 H 
BRANCH  83  88
ATOM     88  O6  non d ame     -28.207  15.419  22.564  0.00  0.00    -0.369 OA
ATOM     89  H45 non d ame     -27.520  15.605  21.919  0.00  0.00     0.212 HD
ENDBRANCH  83  88
ENDBRANCH  72  75
ENDBRANCH  47  72
ENDBRANCH  45  47
ENDBRANCH   1  43
BRANCH   1  90
ATOM     90  C16 non d ame     -32.207   9.304  23.026  0.00  0.00    -0.035 C 
ATOM     91  H21 non d ame     -33.184   8.826  22.955  0.00  0.00     0.037 H 
ATOM     92  H22 non d ame     -32.053  10.294  22.597  0.00  0.00     0.037 H 
BRANCH  90  93
ATOM     93  C17 non d ame     -31.198   8.351  22.309  0.00  0.00    -0.059 C 
ATOM     94  H23 non d ame     -31.622   8.088  21.341  0.00  0.00     0.038 H 
BRANCH  93  95
ATOM     95  C18 non d ame     -29.818   9.040  22.054  0.00  0.00    -0.073 C 
ATOM     96  H24 non d ame     -29.933  10.121  22.125  0.00  0.00     0.028 H 
ATOM     97  H25 non d ame     -29.100   8.702  22.800  0.00  0.00     0.028 H 
ATOM     98  H26 non d ame     -29.460   8.776  21.059  0.00  0.00     0.028 H 
ENDBRANCH  93  95
BRANCH  93  99
ATOM     99  C19 non d ame     -31.020   7.051  23.097  0.00  0.00    -0.073 C 
ATOM    100  H27 non d ame     -31.995   6.683  23.416  0.00  0.00     0.028 H 
ATOM    101  H28 non d ame     -30.540   6.305  22.464  0.00  0.00     0.028 H 
ATOM    102  H29 non d ame     -30.398   7.238  23.972  0.00  0.00     0.028 H 
ENDBRANCH  93  99
ENDBRANCH  90  93
ENDBRANCH   1  90
TORSDOF 26
ENDMDL
MODEL 12
REMARK VINA RESULT:      -6.5      3.203     10.286
REMARK  26 active torsions:
REMARK  status: ('A' for Active; 'I' for Inactive)
REMARK    1  A    between atoms: C2_2  and  C3_3 
REMARK    2  A    between atoms: C4_6  and  C5_7 
REMARK       I    between atoms: C5_7  and  N2_9 
REMARK    3  A    between atoms: N2_9  and  C6_10 
REMARK    4  A    between atoms: C6_10  and  C7_11 
REMARK    5  A    between atoms: C6_10  and  C8_13 
REMARK       I    between atoms: C7_11  and  N3_14 
REMARK    6  A    between atoms: N3_14  and  C9_15 
REMARK    7  A    between atoms: C9_15  and  C10_16 
REMARK    8  A    between atoms: C9_15  and  C11_18 
REMARK       I    between atoms: C10_16  and  N4_21 
REMARK    9  A    between atoms: C11_18  and  C12_19 
REMARK   10  A    between atoms: C11_18  and  C13_20 
REMARK   11  A    between atoms: N4_21  and  C14_22 
REMARK   12  A    between atoms: C14_22  and  C15_23 
REMARK   13  A    between atoms: C14_22  and  C16_25 
REMARK       I    between atoms: C15_23  and  N6_40 
REMARK   14  A    between atoms: C16_25  and  C17_26 
REMARK   15  A    between atoms: C17_26  and  C18_27 
REMARK   16  A    between atoms: C17_26  and  C19_28 
REMARK   17  A    between atoms: C20_29  and  C21_30 
REMARK   18  A    between atoms: C20_29  and  C24_33 
REMARK   19  A    between atoms: C20_29  and  N6_40 
REMARK   20  A    between atoms: C21_30  and  C22_31 
REMARK   21  A    between atoms: C22_31  and  C23_32 
REMARK   22  A    between atoms: C23_32  and  O8_43 
REMARK   23  A    between atoms: C24_33  and  C25_34 
REMARK   24  A    between atoms: C28_38  and  O6_39 
REMARK   25  A    between atoms: C29_42  and  O8_43 
REMARK   26  A    between atoms: C29_42  and  C35_49 
ROOT
ATOM      1  C14 non d ame     -32.563   8.525  24.679  0.00  0.00     0.089 C 
ATOM      2  H20 non d ame     -31.509   8.273  24.799  0.00  0.00     0.087 H 
ENDROOT
BRANCH   1   3
ATOM      3  N4  non d ame     -33.279   7.292  24.390  0.00  0.00    -0.346 N 
ATOM      4  C10 non d ame     -32.631   5.956  24.651  0.00  0.00     0.241 C 
ATOM      5  O4  non d ame     -31.531   5.898  25.091  0.00  0.00    -0.271 OA
ATOM      6  H19 non d ame     -34.214   7.363  24.013  0.00  0.00     0.163 HD
BRANCH   4   7
ATOM      7  C9  non d ame     -33.390   4.689  24.351  0.00  0.00     0.092 C 
ATOM      8  H11 non d ame     -32.738   3.832  24.521  0.00  0.00     0.088 H 
BRANCH   7   9
ATOM      9  N3  non d ame     -34.520   4.565  25.276  0.00  0.00    -0.346 N 
ATOM     10  C7  non d ame     -34.334   3.934  26.560  0.00  0.00     0.240 C 
ATOM     11  O3  non d ame     -33.282   3.520  26.863  0.00  0.00    -0.271 OA
ATOM     12  H10 non d ame     -35.433   4.917  25.027  0.00  0.00     0.163 HD
BRANCH  10  13
ATOM     13  C6  non d ame     -35.541   3.802  27.539  0.00  0.00     0.086 C 
ATOM     14  H6  non d ame     -35.349   3.105  28.354  0.00  0.00     0.086 H 
BRANCH  13  15
ATOM     15  N2  non d ame     -35.796   5.096  28.150  0.00  0.00    -0.343 N 
ATOM     16  C5  non d ame     -35.021   5.505  29.323  0.00  0.00     0.273 C 
ATOM     17  O2  non d ame     -34.196   4.785  29.769  0.00  0.00    -0.266 OA
ATOM     18  H5  non d ame     -36.504   5.704  27.764  0.00  0.00     0.163 HD
BRANCH  16  19
ATOM     19  C4  non d ame     -35.278   6.871  29.979  0.00  0.00     0.154 A 
ATOM     20  C1  non d ame     -35.130   7.208  31.361  0.00  0.00    -0.017 A 
ATOM     21  C2  non d ame     -35.487   8.573  31.443  0.00  0.00     0.077 A 
ATOM     22  H1  non d ame     -34.813   6.562  32.180  0.00  0.00     0.091 H 
ATOM     23  O1  non d ame     -35.800   8.964  30.242  0.00  0.00    -0.218 OA
ATOM     24  N1  non d ame     -35.686   7.988  29.371  0.00  0.00    -0.123 NA
BRANCH  21  25
ATOM     25  C3  non d ame     -35.501   9.427  32.704  0.00  0.00    -0.029 C 
ATOM     26  H2  non d ame     -36.181   8.988  33.433  0.00  0.00     0.036 H 
ATOM     27  H3  non d ame     -34.496   9.470  33.124  0.00  0.00     0.036 H 
ATOM     28  H4  non d ame     -35.834  10.435  32.456  0.00  0.00     0.036 H 
ENDBRANCH  21  25
ENDBRANCH  16  19
ENDBRANCH  13  15
BRANCH  13  29
ATOM     29  C8  non d ame     -36.759   3.340  26.780  0.00  0.00    -0.049 C 
ATOM     30  H7  non d ame     -37.545   4.091  26.863  0.00  0.00     0.030 H 
ATOM     31  H8  non d ame     -36.501   3.199  25.731  0.00  0.00     0.030 H 
ATOM     32  H9  non d ame     -37.112   2.397  27.198  0.00  0.00     0.030 H 
ENDBRANCH  13  29
ENDBRANCH  10  13
ENDBRANCH   7   9
BRANCH   7  33
ATOM     33  C11 non d ame     -33.923   4.738  22.889  0.00  0.00    -0.033 C 
ATOM     34  H12 non d ame     -34.343   5.731  22.725  0.00  0.00     0.042 H 
BRANCH  33  35
ATOM     35  C12 non d ame     -32.770   4.541  21.856  0.00  0.00    -0.071 C 
ATOM     36  H13 non d ame     -31.851   4.282  22.383  0.00  0.00     0.028 H 
ATOM     37  H14 non d ame     -33.032   3.739  21.167  0.00  0.00     0.028 H 
ATOM     38  H15 non d ame     -32.619   5.465  21.298  0.00  0.00     0.028 H 
ENDBRANCH  33  35
BRANCH  33  39
ATOM     39  C13 non d ame     -35.062   3.690  22.673  0.00  0.00    -0.071 C 
ATOM     40  H16 non d ame     -35.019   2.940  23.463  0.00  0.00     0.028 H 
ATOM     41  H17 non d ame     -36.029   4.194  22.701  0.00  0.00     0.028 H 
ATOM     42  H18 non d ame     -34.932   3.207  21.705  0.00  0.00     0.028 H 
ENDBRANCH  33  39
ENDBRANCH   7  33
ENDBRANCH   4   7
ENDBRANCH   1   3
BRANCH   1  43
ATOM     43  C15 non d ame     -33.165   9.158  25.967  0.00  0.00     0.240 C 
ATOM     44  O5  non d ame     -33.820   8.492  26.702  0.00  0.00    -0.271 OA
ATOM     45  N6  non d ame     -32.917  10.592  26.289  0.00  0.00    -0.355 N 
ATOM     46  H46 non d ame     -32.358  11.166  25.675  0.00  0.00     0.162 HD
BRANCH  45  47
ATOM     47  C20 non d ame     -33.495  11.178  27.517  0.00  0.00     0.013 C 
ATOM     48  H30 non d ame     -34.347  10.565  27.812  0.00  0.00     0.072 H 
BRANCH  47  49
ATOM     49  C21 non d ame     -33.949  12.591  27.231  0.00  0.00    -0.038 C 
ATOM     50  H31 non d ame     -35.016  12.521  27.019  0.00  0.00     0.036 H 
ATOM     51  H32 non d ame     -33.598  13.189  28.073  0.00  0.00     0.036 H 
BRANCH  49  52
ATOM     52  C22 non d ame     -33.291  13.188  25.968  0.00  0.00     0.018 C 
ATOM     53  H33 non d ame     -32.235  12.929  26.035  0.00  0.00     0.048 H 
ATOM     54  H34 non d ame     -33.888  12.832  25.128  0.00  0.00     0.048 H 
BRANCH  52  55
ATOM     55  C23 non d ame     -33.348  14.740  25.906  0.00  0.00     0.259 C 
ATOM     56  O7  non d ame     -33.498  15.378  26.897  0.00  0.00    -0.265 OA
BRANCH  55  57
ATOM     57  O8  non d ame     -33.230  15.391  24.647  0.00  0.00    -0.317 OA
BRANCH  57  58
ATOM     58  C29 non d ame     -32.053  16.193  24.514  0.00  0.00     0.052 C 
ATOM     59  H47 non d ame     -32.400  17.177  24.199  0.00  0.00     0.082 H 
ATOM     60  H48 non d ame     -31.512  16.081  25.453  0.00  0.00     0.082 H 
BRANCH  58  61
ATOM     61  C35 non d ame     -31.189  15.589  23.375  0.00  0.00    -0.034 A 
ATOM     62  C30 non d ame     -31.176  16.186  22.118  0.00  0.00    -0.075 A 
ATOM     63  C31 non d ame     -30.401  15.643  21.095  0.00  0.00    -0.082 A 
ATOM     64  H49 non d ame     -31.775  17.079  21.935  0.00  0.00     0.084 H 
ATOM     65  C32 non d ame     -29.637  14.497  21.331  0.00  0.00    -0.083 A 
ATOM     66  H50 non d ame     -30.392  16.115  20.112  0.00  0.00     0.083 H 
ATOM     67  C33 non d ame     -29.655  13.903  22.585  0.00  0.00    -0.082 A 
ATOM     68  H51 non d ame     -29.027  14.067  20.537  0.00  0.00     0.083 H 
ATOM     69  C34 non d ame     -30.428  14.443  23.612  0.00  0.00    -0.075 A 
ATOM     70  H52 non d ame     -29.060  13.007  22.766  0.00  0.00     0.083 H 
ATOM     71  H53 non d ame     -30.436  13.971  24.594  0.00  0.00     0.084 H 
ENDBRANCH  58  61
ENDBRANCH  57  58
ENDBRANCH  55  57
ENDBRANCH  52  55
ENDBRANCH  49  52
ENDBRANCH  47  49
BRANCH  47  72
ATOM     72  C24 non d ame     -32.444  11.194  28.626  0.00  0.00    -0.039 C 
ATOM     73  H35 non d ame     -32.692  10.352  29.273  0.00  0.00     0.036 H 
ATOM     74  H36 non d ame     -31.482  11.223  28.113  0.00  0.00     0.036 H 
BRANCH  72  75
ATOM     75  C25 non d ame     -32.544  12.521  29.518  0.00  0.00    -0.001 C 
ATOM     76  C26 non d ame     -31.374  13.586  29.070  0.00  0.00    -0.035 C 
ATOM     77  C27 non d ame     -30.699  13.983  30.175  0.00  0.00     0.085 C 
ATOM     78  H38 non d ame     -30.614  13.079  28.476  0.00  0.00     0.036 H 
ATOM     79  H39 non d ame     -31.827  14.507  28.704  0.00  0.00     0.036 H 
ATOM     80  N5  non d ame     -31.085  13.041  31.290  0.00  0.00    -0.049 N 
ATOM     81  H40 non d ame     -29.644  13.841  29.939  0.00  0.00     0.075 H 
ATOM     82  H41 non d ame     -31.077  14.979  30.405  0.00  0.00     0.075 H 
ATOM     83  C28 non d ame     -32.395  12.253  30.772  0.00  0.00     0.193 C 
ATOM     84  H42 non d ame     -30.327  12.380  31.382  0.00  0.00     0.280 HD
ATOM     85  H43 non d ame     -31.347  13.621  32.075  0.00  0.00     0.280 HD
ATOM     86  H44 non d ame     -33.384  12.515  31.149  0.00  0.00     0.129 H 
ATOM     87  H37 non d ame     -33.564  12.901  29.579  0.00  0.00     0.046 H 
BRANCH  83  88
ATOM     88  O6  non d ame     -32.254  10.852  31.011  0.00  0.00    -0.369 OA
ATOM     89  H45 non d ame     -33.065  10.401  30.762  0.00  0.00     0.212 HD
ENDBRANCH  83  88
ENDBRANCH  72  75
ENDBRANCH  47  72
ENDBRANCH  45  47
ENDBRANCH   1  43
BRANCH   1  90
ATOM     90  C16 non d ame     -32.733   9.484  23.511  0.00  0.00    -0.035 C 
ATOM     91  H21 non d ame     -33.390   8.971  22.810  0.00  0.00     0.037 H 
ATOM     92  H22 non d ame     -33.043  10.429  23.957  0.00  0.00     0.037 H 
BRANCH  90  93
ATOM     93  C17 non d ame     -31.406   9.773  22.740  0.00  0.00    -0.059 C 
ATOM     94  H23 non d ame     -31.653  10.397  21.880  0.00  0.00     0.038 H 
BRANCH  93  95
ATOM     95  C18 non d ame     -30.374  10.555  23.615  0.00  0.00    -0.073 C 
ATOM     96  H24 non d ame     -30.653  11.607  23.653  0.00  0.00     0.028 H 
ATOM     97  H25 non d ame     -30.368  10.144  24.624  0.00  0.00     0.028 H 
ATOM     98  H26 non d ame     -29.381  10.458  23.177  0.00  0.00     0.028 H 
ENDBRANCH  93  95
BRANCH  93  99
ATOM     99  C19 non d ame     -30.793   8.478  22.201  0.00  0.00    -0.073 C 
ATOM    100  H27 non d ame     -31.570   7.880  21.723  0.00  0.00     0.028 H 
ATOM    101  H28 non d ame     -30.019   8.717  21.472  0.00  0.00     0.028 H 
ATOM    102  H29 non d ame     -30.354   7.914  23.024  0.00  0.00     0.028 H 
ENDBRANCH  93  99
ENDBRANCH  90  93
ENDBRANCH   1  90
TORSDOF 26
ENDMDL
MODEL 13
REMARK VINA RESULT:      -6.5      2.511      5.027
REMARK  26 active torsions:
REMARK  status: ('A' for Active; 'I' for Inactive)
REMARK    1  A    between atoms: C2_2  and  C3_3 
REMARK    2  A    between atoms: C4_6  and  C5_7 
REMARK       I    between atoms: C5_7  and  N2_9 
REMARK    3  A    between atoms: N2_9  and  C6_10 
REMARK    4  A    between atoms: C6_10  and  C7_11 
REMARK    5  A    between atoms: C6_10  and  C8_13 
REMARK       I    between atoms: C7_11  and  N3_14 
REMARK    6  A    between atoms: N3_14  and  C9_15 
REMARK    7  A    between atoms: C9_15  and  C10_16 
REMARK    8  A    between atoms: C9_15  and  C11_18 
REMARK       I    between atoms: C10_16  and  N4_21 
REMARK    9  A    between atoms: C11_18  and  C12_19 
REMARK   10  A    between atoms: C11_18  and  C13_20 
REMARK   11  A    between atoms: N4_21  and  C14_22 
REMARK   12  A    between atoms: C14_22  and  C15_23 
REMARK   13  A    between atoms: C14_22  and  C16_25 
REMARK       I    between atoms: C15_23  and  N6_40 
REMARK   14  A    between atoms: C16_25  and  C17_26 
REMARK   15  A    between atoms: C17_26  and  C18_27 
REMARK   16  A    between atoms: C17_26  and  C19_28 
REMARK   17  A    between atoms: C20_29  and  C21_30 
REMARK   18  A    between atoms: C20_29  and  C24_33 
REMARK   19  A    between atoms: C20_29  and  N6_40 
REMARK   20  A    between atoms: C21_30  and  C22_31 
REMARK   21  A    between atoms: C22_31  and  C23_32 
REMARK   22  A    between atoms: C23_32  and  O8_43 
REMARK   23  A    between atoms: C24_33  and  C25_34 
REMARK   24  A    between atoms: C28_38  and  O6_39 
REMARK   25  A    between atoms: C29_42  and  O8_43 
REMARK   26  A    between atoms: C29_42  and  C35_49 
ROOT
ATOM      1  C14 non d ame     -36.406  13.806  25.819  0.00  0.00     0.089 C 
ATOM      2  H20 non d ame     -37.155  13.737  26.609  0.00  0.00     0.087 H 
ENDROOT
BRANCH   1   3
ATOM      3  N4  non d ame     -36.138  15.219  25.592  0.00  0.00    -0.346 N 
ATOM      4  C10 non d ame     -36.821  16.268  26.432  0.00  0.00     0.241 C 
ATOM      5  O4  non d ame     -37.585  15.952  27.283  0.00  0.00    -0.271 OA
ATOM      6  H19 non d ame     -35.486  15.467  24.862  0.00  0.00     0.163 HD
BRANCH   4   7
ATOM      7  C9  non d ame     -36.527  17.725  26.187  0.00  0.00     0.092 C 
ATOM      8  H11 non d ame     -36.908  18.313  27.022  0.00  0.00     0.088 H 
BRANCH   7   9
ATOM      9  N3  non d ame     -35.076  17.930  26.140  0.00  0.00    -0.346 N 
ATOM     10  C7  non d ame     -34.309  17.931  27.361  0.00  0.00     0.240 C 
ATOM     11  O3  non d ame     -34.843  17.771  28.390  0.00  0.00    -0.271 OA
ATOM     12  H10 non d ame     -34.601  18.072  25.260  0.00  0.00     0.163 HD
BRANCH  10  13
ATOM     13  C6  non d ame     -32.765  18.153  27.305  0.00  0.00     0.086 C 
ATOM     14  H6  non d ame     -32.234  17.625  28.097  0.00  0.00     0.086 H 
BRANCH  13  15
ATOM     15  N2  non d ame     -32.260  17.632  26.046  0.00  0.00    -0.343 N 
ATOM     16  C5  non d ame     -31.876  16.222  25.951  0.00  0.00     0.273 C 
ATOM     17  O2  non d ame     -31.976  15.516  26.894  0.00  0.00    -0.266 OA
ATOM     18  H5  non d ame     -32.175  18.243  25.246  0.00  0.00     0.163 HD
BRANCH  16  19
ATOM     19  C4  non d ame     -31.342  15.657  24.626  0.00  0.00     0.154 A 
ATOM     20  C1  non d ame     -31.435  16.257  23.330  0.00  0.00    -0.017 A 
ATOM     21  C2  non d ame     -30.795  15.346  22.460  0.00  0.00     0.077 A 
ATOM     22  H1  non d ame     -31.897  17.208  23.061  0.00  0.00     0.091 H 
ATOM     23  O1  non d ame     -30.384  14.345  23.182  0.00  0.00    -0.218 OA
ATOM     24  N1  non d ame     -30.692  14.503  24.449  0.00  0.00    -0.123 NA
BRANCH  21  25
ATOM     25  C3  non d ame     -30.618  15.508  20.956  0.00  0.00    -0.029 C 
ATOM     26  H2  non d ame     -30.513  16.565  20.714  0.00  0.00     0.036 H 
ATOM     27  H3  non d ame     -29.724  14.972  20.637  0.00  0.00     0.036 H 
ATOM     28  H4  non d ame     -31.488  15.101  20.442  0.00  0.00     0.036 H 
ENDBRANCH  21  25
ENDBRANCH  16  19
ENDBRANCH  13  15
BRANCH  13  29
ATOM     29  C8  non d ame     -32.462  19.626  27.414  0.00  0.00    -0.049 C 
ATOM     30  H7  non d ame     -32.872  20.013  28.346  0.00  0.00     0.030 H 
ATOM     31  H8  non d ame     -31.383  19.776  27.402  0.00  0.00     0.030 H 
ATOM     32  H9  non d ame     -32.912  20.153  26.572  0.00  0.00     0.030 H 
ENDBRANCH  13  29
ENDBRANCH  10  13
ENDBRANCH   7   9
BRANCH   7  33
ATOM     33  C11 non d ame     -37.153  18.160  24.830  0.00  0.00    -0.033 C 
ATOM     34  H12 non d ame     -36.765  17.493  24.060  0.00  0.00     0.042 H 
BRANCH  33  35
ATOM     35  C12 non d ame     -38.706  18.004  24.845  0.00  0.00    -0.071 C 
ATOM     36  H13 non d ame     -39.170  18.990  24.871  0.00  0.00     0.028 H 
ATOM     37  H14 non d ame     -39.027  17.475  23.948  0.00  0.00     0.028 H 
ATOM     38  H15 non d ame     -39.006  17.439  25.727  0.00  0.00     0.028 H 
ENDBRANCH  33  35
BRANCH  33  39
ATOM     39  C13 non d ame     -36.734  19.619  24.462  0.00  0.00    -0.071 C 
ATOM     40  H16 non d ame     -37.592  20.282  24.572  0.00  0.00     0.028 H 
ATOM     41  H17 non d ame     -35.934  19.946  25.126  0.00  0.00     0.028 H 
ATOM     42  H18 non d ame     -36.382  19.647  23.430  0.00  0.00     0.028 H 
ENDBRANCH  33  39
ENDBRANCH   7  33
ENDBRANCH   4   7
ENDBRANCH   1   3
BRANCH   1  43
ATOM     43  C15 non d ame     -35.074  13.105  26.210  0.00  0.00     0.240 C 
ATOM     44  O5  non d ame     -34.077  13.354  25.612  0.00  0.00    -0.271 OA
ATOM     45  N6  non d ame     -35.038  12.130  27.337  0.00  0.00    -0.355 N 
ATOM     46  H46 non d ame     -35.877  11.914  27.856  0.00  0.00     0.162 HD
BRANCH  45  47
ATOM     47  C20 non d ame     -33.763  11.473  27.697  0.00  0.00     0.013 C 
ATOM     48  H30 non d ame     -32.948  12.116  27.365  0.00  0.00     0.072 H 
BRANCH  47  49
ATOM     49  C21 non d ame     -33.678  10.132  27.003  0.00  0.00    -0.038 C 
ATOM     50  H31 non d ame     -34.706   9.783  26.911  0.00  0.00     0.036 H 
ATOM     51  H32 non d ame     -33.077  10.301  26.110  0.00  0.00     0.036 H 
BRANCH  49  52
ATOM     52  C22 non d ame     -32.929   9.071  27.839  0.00  0.00     0.018 C 
ATOM     53  H33 non d ame     -31.907   9.066  27.462  0.00  0.00     0.048 H 
ATOM     54  H34 non d ame     -33.125   9.325  28.881  0.00  0.00     0.048 H 
BRANCH  52  55
ATOM     55  C23 non d ame     -33.466   7.626  27.642  0.00  0.00     0.259 C 
ATOM     56  O7  non d ame     -34.283   7.180  28.380  0.00  0.00    -0.265 OA
BRANCH  55  57
ATOM     57  O8  non d ame     -32.959   6.835  26.574  0.00  0.00    -0.317 OA
BRANCH  57  58
ATOM     58  C29 non d ame     -33.701   6.954  25.357  0.00  0.00     0.052 C 
ATOM     59  H47 non d ame     -34.094   5.959  25.153  0.00  0.00     0.082 H 
ATOM     60  H48 non d ame     -34.384   7.790  25.509  0.00  0.00     0.082 H 
BRANCH  58  61
ATOM     61  C35 non d ame     -32.708   7.332  24.226  0.00  0.00    -0.034 A 
ATOM     62  C30 non d ame     -31.566   6.566  24.017  0.00  0.00    -0.075 A 
ATOM     63  C31 non d ame     -30.673   6.906  23.001  0.00  0.00    -0.082 A 
ATOM     64  H49 non d ame     -31.369   5.700  24.650  0.00  0.00     0.084 H 
ATOM     65  C32 non d ame     -30.926   8.018  22.193  0.00  0.00    -0.083 A 
ATOM     66  H50 non d ame     -29.780   6.302  22.839  0.00  0.00     0.083 H 
ATOM     67  C33 non d ame     -32.066   8.781  22.408  0.00  0.00    -0.082 A 
ATOM     68  H51 non d ame     -30.234   8.290  21.396  0.00  0.00     0.083 H 
ATOM     69  C34 non d ame     -32.961   8.444  23.421  0.00  0.00    -0.075 A 
ATOM     70  H52 non d ame     -32.258   9.650  21.777  0.00  0.00     0.083 H 
ATOM     71  H53 non d ame     -33.854   9.048  23.582  0.00  0.00     0.084 H 
ENDBRANCH  58  61
ENDBRANCH  57  58
ENDBRANCH  55  57
ENDBRANCH  52  55
ENDBRANCH  49  52
ENDBRANCH  47  49
BRANCH  47  72
ATOM     72  C24 non d ame     -33.696  11.270  29.209  0.00  0.00    -0.039 C 
ATOM     73  H35 non d ame     -34.707  11.454  29.572  0.00  0.00     0.036 H 
ATOM     74  H36 non d ame     -33.236  10.292  29.351  0.00  0.00     0.036 H 
BRANCH  72  75
ATOM     75  C25 non d ame     -32.739  12.347  29.910  0.00  0.00    -0.001 C 
ATOM     76  C26 non d ame     -31.450  12.666  28.941  0.00  0.00    -0.035 C 
ATOM     77  C27 non d ame     -30.314  12.527  29.665  0.00  0.00     0.085 C 
ATOM     78  H38 non d ame     -31.359  11.896  28.175  0.00  0.00     0.036 H 
ATOM     79  H39 non d ame     -31.445  13.719  28.658  0.00  0.00     0.036 H 
ATOM     80  N5  non d ame     -30.691  11.827  30.948  0.00  0.00    -0.049 N 
ATOM     81  H40 non d ame     -29.672  11.871  29.078  0.00  0.00     0.075 H 
ATOM     82  H41 non d ame     -29.991  13.542  29.897  0.00  0.00     0.075 H 
ATOM     83  C28 non d ame     -32.301  11.915  31.045  0.00  0.00     0.193 C 
ATOM     84  H42 non d ame     -30.428  10.859  30.834  0.00  0.00     0.280 HD
ATOM     85  H43 non d ame     -30.294  12.373  31.699  0.00  0.00     0.280 HD
ATOM     86  H44 non d ame     -32.777  12.622  31.724  0.00  0.00     0.129 H 
ATOM     87  H37 non d ame     -33.294  13.203  30.295  0.00  0.00     0.046 H 
BRANCH  83  88
ATOM     88  O6  non d ame     -32.844  10.637  31.382  0.00  0.00    -0.369 OA
ATOM     89  H45 non d ame     -32.279  10.209  32.028  0.00  0.00     0.212 HD
ENDBRANCH  83  88
ENDBRANCH  72  75
ENDBRANCH  47  72
ENDBRANCH  45  47
ENDBRANCH   1  43
BRANCH   1  90
ATOM     90  C16 non d ame     -36.950  13.193  24.539  0.00  0.00    -0.035 C 
ATOM     91  H21 non d ame     -36.075  12.983  23.925  0.00  0.00     0.037 H 
ATOM     92  H22 non d ame     -37.597  12.377  24.862  0.00  0.00     0.037 H 
BRANCH  90  93
ATOM     93  C17 non d ame     -37.847  14.166  23.710  0.00  0.00    -0.059 C 
ATOM     94  H23 non d ame     -37.454  15.173  23.843  0.00  0.00     0.038 H 
BRANCH  93  95
ATOM     95  C18 non d ame     -37.814  13.840  22.182  0.00  0.00    -0.073 C 
ATOM     96  H24 non d ame     -38.148  12.815  22.022  0.00  0.00     0.028 H 
ATOM     97  H25 non d ame     -38.476  14.524  21.650  0.00  0.00     0.028 H 
ATOM     98  H26 non d ame     -36.797  13.954  21.808  0.00  0.00     0.028 H 
ENDBRANCH  93  95
BRANCH  93  99
ATOM     99  C19 non d ame     -39.285  14.166  24.236  0.00  0.00    -0.073 C 
ATOM    100  H27 non d ame     -39.865  14.926  23.710  0.00  0.00     0.028 H 
ATOM    101  H28 non d ame     -39.734  13.187  24.068  0.00  0.00     0.028 H 
ATOM    102  H29 non d ame     -39.281  14.385  25.303  0.00  0.00     0.028 H 
ENDBRANCH  93  99
ENDBRANCH  90  93
ENDBRANCH   1  90
TORSDOF 26
ENDMDL
MODEL 14
REMARK VINA RESULT:      -6.5      2.701      9.004
REMARK  26 active torsions:
REMARK  status: ('A' for Active; 'I' for Inactive)
REMARK    1  A    between atoms: C2_2  and  C3_3 
REMARK    2  A    between atoms: C4_6  and  C5_7 
REMARK       I    between atoms: C5_7  and  N2_9 
REMARK    3  A    between atoms: N2_9  and  C6_10 
REMARK    4  A    between atoms: C6_10  and  C7_11 
REMARK    5  A    between atoms: C6_10  and  C8_13 
REMARK       I    between atoms: C7_11  and  N3_14 
REMARK    6  A    between atoms: N3_14  and  C9_15 
REMARK    7  A    between atoms: C9_15  and  C10_16 
REMARK    8  A    between atoms: C9_15  and  C11_18 
REMARK       I    between atoms: C10_16  and  N4_21 
REMARK    9  A    between atoms: C11_18  and  C12_19 
REMARK   10  A    between atoms: C11_18  and  C13_20 
REMARK   11  A    between atoms: N4_21  and  C14_22 
REMARK   12  A    between atoms: C14_22  and  C15_23 
REMARK   13  A    between atoms: C14_22  and  C16_25 
REMARK       I    between atoms: C15_23  and  N6_40 
REMARK   14  A    between atoms: C16_25  and  C17_26 
REMARK   15  A    between atoms: C17_26  and  C18_27 
REMARK   16  A    between atoms: C17_26  and  C19_28 
REMARK   17  A    between atoms: C20_29  and  C21_30 
REMARK   18  A    between atoms: C20_29  and  C24_33 
REMARK   19  A    between atoms: C20_29  and  N6_40 
REMARK   20  A    between atoms: C21_30  and  C22_31 
REMARK   21  A    between atoms: C22_31  and  C23_32 
REMARK   22  A    between atoms: C23_32  and  O8_43 
REMARK   23  A    between atoms: C24_33  and  C25_34 
REMARK   24  A    between atoms: C28_38  and  O6_39 
REMARK   25  A    between atoms: C29_42  and  O8_43 
REMARK   26  A    between atoms: C29_42  and  C35_49 
ROOT
ATOM      1  C14 non d ame     -32.258   9.322  25.105  0.00  0.00     0.089 C 
ATOM      2  H20 non d ame     -31.374   8.691  25.018  0.00  0.00     0.087 H 
ENDROOT
BRANCH   1   3
ATOM      3  N4  non d ame     -33.228   8.608  25.921  0.00  0.00    -0.346 N 
ATOM      4  C10 non d ame     -33.181   7.104  26.019  0.00  0.00     0.241 C 
ATOM      5  O4  non d ame     -32.355   6.490  25.428  0.00  0.00    -0.271 OA
ATOM      6  H19 non d ame     -33.925   9.149  26.414  0.00  0.00     0.163 HD
BRANCH   4   7
ATOM      7  C9  non d ame     -34.190   6.381  26.873  0.00  0.00     0.092 C 
ATOM      8  H11 non d ame     -33.684   5.602  27.443  0.00  0.00     0.088 H 
BRANCH   7   9
ATOM      9  N3  non d ame     -34.772   7.317  27.840  0.00  0.00    -0.346 N 
ATOM     10  C7  non d ame     -34.816   6.972  29.239  0.00  0.00     0.240 C 
ATOM     11  O3  non d ame     -34.389   5.945  29.605  0.00  0.00    -0.271 OA
ATOM     12  H10 non d ame     -35.146   8.206  27.539  0.00  0.00     0.163 HD
BRANCH  10  13
ATOM     13  C6  non d ame     -35.440   7.971  30.263  0.00  0.00     0.086 C 
ATOM     14  H6  non d ame     -35.739   7.488  31.193  0.00  0.00     0.086 H 
BRANCH  13  15
ATOM     15  N2  non d ame     -34.444   8.969  30.614  0.00  0.00    -0.343 N 
ATOM     16  C5  non d ame     -34.081  10.000  29.639  0.00  0.00     0.273 C 
ATOM     17  O2  non d ame     -34.594  10.016  28.575  0.00  0.00    -0.266 OA
ATOM     18  H5  non d ame     -34.009   8.947  31.526  0.00  0.00     0.163 HD
BRANCH  16  19
ATOM     19  C4  non d ame     -33.031  11.063  29.998  0.00  0.00     0.154 A 
ATOM     20  C1  non d ame     -32.775  12.292  29.310  0.00  0.00    -0.017 A 
ATOM     21  C2  non d ame     -31.724  12.900  30.033  0.00  0.00     0.077 A 
ATOM     22  H1  non d ame     -33.274  12.682  28.423  0.00  0.00     0.091 H 
ATOM     23  O1  non d ame     -31.421  12.107  31.018  0.00  0.00    -0.218 OA
ATOM     24  N1  non d ame     -32.170  11.028  31.018  0.00  0.00    -0.123 NA
BRANCH  21  25
ATOM     25  C3  non d ame     -31.069  14.238  29.716  0.00  0.00    -0.029 C 
ATOM     26  H2  non d ame     -30.580  14.624  30.610  0.00  0.00     0.036 H 
ATOM     27  H3  non d ame     -30.330  14.103  28.927  0.00  0.00     0.036 H 
ATOM     28  H4  non d ame     -31.829  14.945  29.384  0.00  0.00     0.036 H 
ENDBRANCH  21  25
ENDBRANCH  16  19
ENDBRANCH  13  15
BRANCH  13  29
ATOM     29  C8  non d ame     -36.645   8.637  29.649  0.00  0.00    -0.049 C 
ATOM     30  H7  non d ame     -37.309   7.877  29.236  0.00  0.00     0.030 H 
ATOM     31  H8  non d ame     -37.175   9.204  30.414  0.00  0.00     0.030 H 
ATOM     32  H9  non d ame     -36.323   9.309  28.854  0.00  0.00     0.030 H 
ENDBRANCH  13  29
ENDBRANCH  10  13
ENDBRANCH   7   9
BRANCH   7  33
ATOM     33  C11 non d ame     -35.318   5.806  25.968  0.00  0.00    -0.033 C 
ATOM     34  H12 non d ame     -34.870   5.546  25.009  0.00  0.00     0.042 H 
BRANCH  33  35
ATOM     35  C12 non d ame     -35.922   4.500  26.573  0.00  0.00    -0.071 C 
ATOM     36  H13 non d ame     -36.779   4.186  25.978  0.00  0.00     0.028 H 
ATOM     37  H14 non d ame     -35.167   3.714  26.566  0.00  0.00     0.028 H 
ATOM     38  H15 non d ame     -36.241   4.688  27.598  0.00  0.00     0.028 H 
ENDBRANCH  33  35
BRANCH  33  39
ATOM     39  C13 non d ame     -36.428   6.875  25.709  0.00  0.00    -0.071 C 
ATOM     40  H16 non d ame     -35.968   7.859  25.610  0.00  0.00     0.028 H 
ATOM     41  H17 non d ame     -36.962   6.629  24.791  0.00  0.00     0.028 H 
ATOM     42  H18 non d ame     -37.127   6.883  26.544  0.00  0.00     0.028 H 
ENDBRANCH  33  39
ENDBRANCH   7  33
ENDBRANCH   4   7
ENDBRANCH   1   3
BRANCH   1  43
ATOM     43  C15 non d ame     -31.943  10.684  25.788  0.00  0.00     0.240 C 
ATOM     44  O5  non d ame     -31.151  10.732  26.673  0.00  0.00    -0.271 OA
ATOM     45  N6  non d ame     -32.622  11.931  25.333  0.00  0.00    -0.355 N 
ATOM     46  H46 non d ame     -33.293  11.903  24.579  0.00  0.00     0.162 HD
BRANCH  45  47
ATOM     47  C20 non d ame     -32.310  13.217  25.992  0.00  0.00     0.013 C 
ATOM     48  H30 non d ame     -32.217  13.032  27.062  0.00  0.00     0.072 H 
BRANCH  47  49
ATOM     49  C21 non d ame     -33.432  14.196  25.732  0.00  0.00    -0.038 C 
ATOM     50  H31 non d ame     -33.002  14.980  25.108  0.00  0.00     0.036 H 
ATOM     51  H32 non d ame     -34.265  13.598  25.361  0.00  0.00     0.036 H 
BRANCH  49  52
ATOM     52  C22 non d ame     -33.932  14.889  27.019  0.00  0.00     0.018 C 
ATOM     53  H33 non d ame     -35.013  14.977  26.906  0.00  0.00     0.048 H 
ATOM     54  H34 non d ame     -33.515  14.313  27.845  0.00  0.00     0.048 H 
BRANCH  52  55
ATOM     55  C23 non d ame     -33.402  16.339  27.196  0.00  0.00     0.259 C 
ATOM     56  O7  non d ame     -32.332  16.645  26.780  0.00  0.00    -0.265 OA
BRANCH  55  57
ATOM     57  O8  non d ame     -34.206  17.297  27.874  0.00  0.00    -0.317 OA
BRANCH  57  58
ATOM     58  C29 non d ame     -33.813  18.653  27.645  0.00  0.00     0.052 C 
ATOM     59  H47 non d ame     -33.701  19.098  28.634  0.00  0.00     0.082 H 
ATOM     60  H48 non d ame     -32.958  18.603  26.971  0.00  0.00     0.082 H 
BRANCH  58  61
ATOM     61  C35 non d ame     -34.976  19.372  26.912  0.00  0.00    -0.034 A 
ATOM     62  C30 non d ame     -35.310  19.008  25.611  0.00  0.00    -0.075 A 
ATOM     63  C31 non d ame     -36.355  19.654  24.952  0.00  0.00    -0.082 A 
ATOM     64  H49 non d ame     -34.753  18.217  25.108  0.00  0.00     0.084 H 
ATOM     65  C32 non d ame     -37.065  20.669  25.597  0.00  0.00    -0.083 A 
ATOM     66  H50 non d ame     -36.615  19.365  23.933  0.00  0.00     0.083 H 
ATOM     67  C33 non d ame     -36.727  21.031  26.894  0.00  0.00    -0.082 A 
ATOM     68  H51 non d ame     -37.884  21.179  25.089  0.00  0.00     0.083 H 
ATOM     69  C34 non d ame     -35.684  20.387  27.557  0.00  0.00    -0.075 A 
ATOM     70  H52 non d ame     -37.282  21.826  27.394  0.00  0.00     0.083 H 
ATOM     71  H53 non d ame     -35.425  20.676  28.576  0.00  0.00     0.084 H 
ENDBRANCH  58  61
ENDBRANCH  57  58
ENDBRANCH  55  57
ENDBRANCH  52  55
ENDBRANCH  49  52
ENDBRANCH  47  49
BRANCH  47  72
ATOM     72  C24 non d ame     -31.004  13.780  25.435  0.00  0.00    -0.039 C 
ATOM     73  H35 non d ame     -30.787  14.661  26.038  0.00  0.00     0.036 H 
ATOM     74  H36 non d ame     -30.307  12.941  25.425  0.00  0.00     0.036 H 
BRANCH  72  75
ATOM     75  C25 non d ame     -31.169  14.273  23.920  0.00  0.00    -0.001 C 
ATOM     76  C26 non d ame     -30.309  13.296  22.915  0.00  0.00    -0.035 C 
ATOM     77  C27 non d ame     -29.522  14.067  22.126  0.00  0.00     0.085 C 
ATOM     78  H38 non d ame     -29.595  12.706  23.489  0.00  0.00     0.036 H 
ATOM     79  H39 non d ame     -30.977  12.806  22.207  0.00  0.00     0.036 H 
ATOM     80  N5  non d ame     -29.523  15.454  22.721  0.00  0.00    -0.049 N 
ATOM     81  H40 non d ame     -28.521  13.643  22.211  0.00  0.00     0.075 H 
ATOM     82  H41 non d ame     -30.021  14.095  21.158  0.00  0.00     0.075 H 
ATOM     83  C28 non d ame     -30.747  15.485  23.774  0.00  0.00     0.193 C 
ATOM     84  H42 non d ame     -28.657  15.547  23.232  0.00  0.00     0.280 HD
ATOM     85  H43 non d ame     -29.734  16.089  21.964  0.00  0.00     0.280 HD
ATOM     86  H44 non d ame     -31.679  15.991  23.524  0.00  0.00     0.129 H 
ATOM     87  H37 non d ame     -32.211  14.460  23.658  0.00  0.00     0.046 H 
BRANCH  83  88
ATOM     88  O6  non d ame     -30.319  16.059  25.010  0.00  0.00    -0.369 OA
ATOM     89  H45 non d ame     -31.030  16.586  25.381  0.00  0.00     0.212 HD
ENDBRANCH  83  88
ENDBRANCH  72  75
ENDBRANCH  47  72
ENDBRANCH  45  47
ENDBRANCH   1  43
BRANCH   1  90
ATOM     90  C16 non d ame     -32.854   9.568  23.728  0.00  0.00    -0.035 C 
ATOM     91  H21 non d ame     -33.723   8.913  23.668  0.00  0.00     0.037 H 
ATOM     92  H22 non d ame     -32.979  10.648  23.655  0.00  0.00     0.037 H 
BRANCH  90  93
ATOM     93  C17 non d ame     -31.910   9.153  22.554  0.00  0.00    -0.059 C 
ATOM     94  H23 non d ame     -32.208   9.721  21.673  0.00  0.00     0.038 H 
BRANCH  93  95
ATOM     95  C18 non d ame     -30.414   9.490  22.854  0.00  0.00    -0.073 C 
ATOM     96  H24 non d ame     -30.362  10.296  23.585  0.00  0.00     0.028 H 
ATOM     97  H25 non d ame     -29.915   8.606  23.253  0.00  0.00     0.028 H 
ATOM     98  H26 non d ame     -29.920   9.801  21.934  0.00  0.00     0.028 H 
ENDBRANCH  93  95
BRANCH  93  99
ATOM     99  C19 non d ame     -32.077   7.669  22.216  0.00  0.00    -0.073 C 
ATOM    100  H27 non d ame     -32.966   7.281  22.715  0.00  0.00     0.028 H 
ATOM    101  H28 non d ame     -32.185   7.551  21.138  0.00  0.00     0.028 H 
ATOM    102  H29 non d ame     -31.200   7.118  22.555  0.00  0.00     0.028 H 
ENDBRANCH  93  99
ENDBRANCH  90  93
ENDBRANCH   1  90
TORSDOF 26
ENDMDL
MODEL 15
REMARK VINA RESULT:      -6.5      2.511      5.315
REMARK  26 active torsions:
REMARK  status: ('A' for Active; 'I' for Inactive)
REMARK    1  A    between atoms: C2_2  and  C3_3 
REMARK    2  A    between atoms: C4_6  and  C5_7 
REMARK       I    between atoms: C5_7  and  N2_9 
REMARK    3  A    between atoms: N2_9  and  C6_10 
REMARK    4  A    between atoms: C6_10  and  C7_11 
REMARK    5  A    between atoms: C6_10  and  C8_13 
REMARK       I    between atoms: C7_11  and  N3_14 
REMARK    6  A    between atoms: N3_14  and  C9_15 
REMARK    7  A    between atoms: C9_15  and  C10_16 
REMARK    8  A    between atoms: C9_15  and  C11_18 
REMARK       I    between atoms: C10_16  and  N4_21 
REMARK    9  A    between atoms: C11_18  and  C12_19 
REMARK   10  A    between atoms: C11_18  and  C13_20 
REMARK   11  A    between atoms: N4_21  and  C14_22 
REMARK   12  A    between atoms: C14_22  and  C15_23 
REMARK   13  A    between atoms: C14_22  and  C16_25 
REMARK       I    between atoms: C15_23  and  N6_40 
REMARK   14  A    between atoms: C16_25  and  C17_26 
REMARK   15  A    between atoms: C17_26  and  C18_27 
REMARK   16  A    between atoms: C17_26  and  C19_28 
REMARK   17  A    between atoms: C20_29  and  C21_30 
REMARK   18  A    between atoms: C20_29  and  C24_33 
REMARK   19  A    between atoms: C20_29  and  N6_40 
REMARK   20  A    between atoms: C21_30  and  C22_31 
REMARK   21  A    between atoms: C22_31  and  C23_32 
REMARK   22  A    between atoms: C23_32  and  O8_43 
REMARK   23  A    between atoms: C24_33  and  C25_34 
REMARK   24  A    between atoms: C28_38  and  O6_39 
REMARK   25  A    between atoms: C29_42  and  O8_43 
REMARK   26  A    between atoms: C29_42  and  C35_49 
ROOT
ATOM      1  C14 non d ame     -36.211   9.556  27.542  0.00  0.00     0.089 C 
ATOM      2  H20 non d ame     -37.239   9.712  27.868  0.00  0.00     0.087 H 
ENDROOT
BRANCH   1   3
ATOM      3  N4  non d ame     -35.833  10.696  26.720  0.00  0.00    -0.346 N 
ATOM      4  C10 non d ame     -36.556  12.011  26.863  0.00  0.00     0.241 C 
ATOM      5  O4  non d ame     -37.442  12.127  27.645  0.00  0.00    -0.271 OA
ATOM      6  H19 non d ame     -35.078  10.576  26.060  0.00  0.00     0.163 HD
BRANCH   4   7
ATOM      7  C9  non d ame     -36.148  13.182  26.009  0.00  0.00     0.092 C 
ATOM      8  H11 non d ame     -36.203  14.095  26.602  0.00  0.00     0.088 H 
BRANCH   7   9
ATOM      9  N3  non d ame     -34.752  13.020  25.592  0.00  0.00    -0.346 N 
ATOM     10  C7  non d ame     -33.738  13.909  26.106  0.00  0.00     0.240 C 
ATOM     11  O3  non d ame     -34.029  14.760  26.855  0.00  0.00    -0.271 OA
ATOM     12  H10 non d ame     -34.486  12.292  24.945  0.00  0.00     0.163 HD
BRANCH  10  13
ATOM     13  C6  non d ame     -32.255  13.733  25.657  0.00  0.00     0.086 C 
ATOM     14  H6  non d ame     -31.602  13.417  26.470  0.00  0.00     0.086 H 
BRANCH  13  15
ATOM     15  N2  non d ame     -32.189  12.694  24.643  0.00  0.00    -0.343 N 
ATOM     16  C5  non d ame     -31.328  11.529  24.858  0.00  0.00     0.273 C 
ATOM     17  O2  non d ame     -30.689  11.440  25.849  0.00  0.00    -0.266 OA
ATOM     18  H5  non d ame     -32.736  12.780  23.798  0.00  0.00     0.163 HD
BRANCH  16  19
ATOM     19  C4  non d ame     -31.250  10.422  23.796  0.00  0.00     0.154 A 
ATOM     20  C1  non d ame     -32.300   9.538  23.390  0.00  0.00    -0.017 A 
ATOM     21  C2  non d ame     -31.720   8.719  22.395  0.00  0.00     0.077 A 
ATOM     22  H1  non d ame     -33.324   9.497  23.760  0.00  0.00     0.091 H 
ATOM     23  O1  non d ame     -30.484   9.097  22.253  0.00  0.00    -0.218 OA
ATOM     24  N1  non d ame     -30.186  10.089  23.060  0.00  0.00    -0.123 NA
BRANCH  21  25
ATOM     25  C3  non d ame     -32.416   7.600  21.631  0.00  0.00    -0.029 C 
ATOM     26  H2  non d ame     -33.489   7.790  21.605  0.00  0.00     0.036 H 
ATOM     27  H3  non d ame     -32.030   7.562  20.612  0.00  0.00     0.036 H 
ATOM     28  H4  non d ame     -32.228   6.649  22.127  0.00  0.00     0.036 H 
ENDBRANCH  21  25
ENDBRANCH  16  19
ENDBRANCH  13  15
BRANCH  13  29
ATOM     29  C8  non d ame     -31.739  15.035  25.096  0.00  0.00    -0.049 C 
ATOM     30  H7  non d ame     -31.625  14.945  24.016  0.00  0.00     0.030 H 
ATOM     31  H8  non d ame     -32.447  15.832  25.321  0.00  0.00     0.030 H 
ATOM     32  H9  non d ame     -30.774  15.267  25.546  0.00  0.00     0.030 H 
ENDBRANCH  13  29
ENDBRANCH  10  13
ENDBRANCH   7   9
BRANCH   7  33
ATOM     33  C11 non d ame     -37.059  13.247  24.748  0.00  0.00    -0.033 C 
ATOM     34  H12 non d ame     -38.081  13.410  25.089  0.00  0.00     0.042 H 
BRANCH  33  35
ATOM     35  C12 non d ame     -36.673  14.449  23.830  0.00  0.00    -0.071 C 
ATOM     36  H13 non d ame     -35.589  14.561  23.814  0.00  0.00     0.028 H 
ATOM     37  H14 non d ame     -37.034  14.263  22.819  0.00  0.00     0.028 H 
ATOM     38  H15 non d ame     -37.127  15.361  24.216  0.00  0.00     0.028 H 
ENDBRANCH  33  35
BRANCH  33  39
ATOM     39  C13 non d ame     -37.021  11.898  23.961  0.00  0.00    -0.071 C 
ATOM     40  H16 non d ame     -36.719  12.086  22.931  0.00  0.00     0.028 H 
ATOM     41  H17 non d ame     -36.306  11.222  24.432  0.00  0.00     0.028 H 
ATOM     42  H18 non d ame     -38.011  11.443  23.973  0.00  0.00     0.028 H 
ENDBRANCH  33  39
ENDBRANCH   7  33
ENDBRANCH   4   7
ENDBRANCH   1   3
BRANCH   1  43
ATOM     43  C15 non d ame     -35.223   9.459  28.740  0.00  0.00     0.240 C 
ATOM     44  O5  non d ame     -34.361   8.641  28.731  0.00  0.00    -0.271 OA
ATOM     45  N6  non d ame     -35.347  10.393  29.895  0.00  0.00    -0.355 N 
ATOM     46  H46 non d ame     -36.072  11.095  29.912  0.00  0.00     0.162 HD
BRANCH  45  47
ATOM     47  C20 non d ame     -34.400  10.289  31.026  0.00  0.00     0.013 C 
ATOM     48  H30 non d ame     -33.843   9.359  30.913  0.00  0.00     0.072 H 
BRANCH  47  49
ATOM     49  C21 non d ame     -35.172  10.275  32.326  0.00  0.00    -0.038 C 
ATOM     50  H31 non d ame     -34.485  10.655  33.082  0.00  0.00     0.036 H 
ATOM     51  H32 non d ame     -36.104  10.802  32.120  0.00  0.00     0.036 H 
BRANCH  49  52
ATOM     52  C22 non d ame     -35.567   8.850  32.772  0.00  0.00     0.018 C 
ATOM     53  H33 non d ame     -34.641   8.276  32.781  0.00  0.00     0.048 H 
ATOM     54  H34 non d ame     -36.140   8.977  33.691  0.00  0.00     0.048 H 
BRANCH  52  55
ATOM     55  C23 non d ame     -36.512   8.121  31.776  0.00  0.00     0.259 C 
ATOM     56  O7  non d ame     -37.532   8.625  31.433  0.00  0.00    -0.265 OA
BRANCH  55  57
ATOM     57  O8  non d ame     -36.150   6.835  31.287  0.00  0.00    -0.317 OA
BRANCH  57  58
ATOM     58  C29 non d ame     -36.880   6.427  30.127  0.00  0.00     0.052 C 
ATOM     59  H47 non d ame     -37.685   5.790  30.494  0.00  0.00     0.082 H 
ATOM     60  H48 non d ame     -37.114   7.345  29.588  0.00  0.00     0.082 H 
BRANCH  58  61
ATOM     61  C35 non d ame     -35.936   5.567  29.245  0.00  0.00    -0.034 A 
ATOM     62  C30 non d ame     -34.598   5.421  29.594  0.00  0.00    -0.075 A 
ATOM     63  C31 non d ame     -33.749   4.649  28.802  0.00  0.00    -0.082 A 
ATOM     64  H49 non d ame     -34.213   5.912  30.488  0.00  0.00     0.084 H 
ATOM     65  C32 non d ame     -34.244   4.023  27.655  0.00  0.00    -0.083 A 
ATOM     66  H50 non d ame     -32.701   4.535  29.079  0.00  0.00     0.083 H 
ATOM     67  C33 non d ame     -35.580   4.174  27.308  0.00  0.00    -0.082 A 
ATOM     68  H51 non d ame     -33.588   3.417  27.030  0.00  0.00     0.083 H 
ATOM     69  C34 non d ame     -36.432   4.943  28.098  0.00  0.00    -0.075 A 
ATOM     70  H52 non d ame     -35.962   3.687  26.411  0.00  0.00     0.083 H 
ATOM     71  H53 non d ame     -37.480   5.057  27.820  0.00  0.00     0.084 H 
ENDBRANCH  58  61
ENDBRANCH  57  58
ENDBRANCH  55  57
ENDBRANCH  52  55
ENDBRANCH  49  52
ENDBRANCH  47  49
BRANCH  47  72
ATOM     72  C24 non d ame     -33.447  11.483  31.013  0.00  0.00    -0.039 C 
ATOM     73  H35 non d ame     -34.021  12.308  30.589  0.00  0.00     0.036 H 
ATOM     74  H36 non d ame     -33.058  11.555  32.029  0.00  0.00     0.036 H 
BRANCH  72  75
ATOM     75  C25 non d ame     -32.196  11.232  30.044  0.00  0.00    -0.001 C 
ATOM     76  C26 non d ame     -30.818  11.779  30.756  0.00  0.00    -0.035 C 
ATOM     77  C27 non d ame     -30.172  12.593  29.887  0.00  0.00     0.085 C 
ATOM     78  H38 non d ame     -31.064  12.439  31.588  0.00  0.00     0.036 H 
ATOM     79  H39 non d ame     -30.119  10.956  30.901  0.00  0.00     0.036 H 
ATOM     80  N5  non d ame     -31.142  12.911  28.775  0.00  0.00    -0.049 N 
ATOM     81  H40 non d ame     -29.960  13.505  30.445  0.00  0.00     0.075 H 
ATOM     82  H41 non d ame     -29.353  11.998  29.485  0.00  0.00     0.075 H 
ATOM     83  C28 non d ame     -32.346  11.845  28.918  0.00  0.00     0.193 C 
ATOM     84  H42 non d ame     -31.505  13.834  28.967  0.00  0.00     0.280 HD
ATOM     85  H43 non d ame     -30.653  12.730  27.910  0.00  0.00     0.280 HD
ATOM     86  H44 non d ame     -32.417  10.995  28.238  0.00  0.00     0.129 H 
ATOM     87  H37 non d ame     -32.179  10.217  29.647  0.00  0.00     0.046 H 
BRANCH  83  88
ATOM     88  O6  non d ame     -33.607  12.511  28.831  0.00  0.00    -0.369 OA
ATOM     89  H45 non d ame     -33.607  13.098  28.071  0.00  0.00     0.212 HD
ENDBRANCH  83  88
ENDBRANCH  72  75
ENDBRANCH  47  72
ENDBRANCH  45  47
ENDBRANCH   1  43
BRANCH   1  90
ATOM     90  C16 non d ame     -36.123   8.290  26.704  0.00  0.00    -0.035 C 
ATOM     91  H21 non d ame     -35.767   7.517  27.385  0.00  0.00     0.037 H 
ATOM     92  H22 non d ame     -37.100   8.190  26.229  0.00  0.00     0.037 H 
BRANCH  90  93
ATOM     93  C17 non d ame     -35.077   8.375  25.548  0.00  0.00    -0.059 C 
ATOM     94  H23 non d ame     -34.581   9.343  25.621  0.00  0.00     0.038 H 
BRANCH  93  95
ATOM     95  C18 non d ame     -33.980   7.268  25.663  0.00  0.00    -0.073 C 
ATOM     96  H24 non d ame     -33.455   7.176  24.713  0.00  0.00     0.028 H 
ATOM     97  H25 non d ame     -33.271   7.538  26.445  0.00  0.00     0.028 H 
ATOM     98  H26 non d ame     -34.450   6.316  25.911  0.00  0.00     0.028 H 
ENDBRANCH  93  95
BRANCH  93  99
ATOM     99  C19 non d ame     -35.765   8.320  24.182  0.00  0.00    -0.073 C 
ATOM    100  H27 non d ame     -36.804   8.635  24.285  0.00  0.00     0.028 H 
ATOM    101  H28 non d ame     -35.251   8.985  23.488  0.00  0.00     0.028 H 
ATOM    102  H29 non d ame     -35.732   7.300  23.799  0.00  0.00     0.028 H 
ENDBRANCH  93  99
ENDBRANCH  90  93
ENDBRANCH   1  90
TORSDOF 26
ENDMDL
MODEL 16
REMARK VINA RESULT:      -6.4      3.060     10.025
REMARK  26 active torsions:
REMARK  status: ('A' for Active; 'I' for Inactive)
REMARK    1  A    between atoms: C2_2  and  C3_3 
REMARK    2  A    between atoms: C4_6  and  C5_7 
REMARK       I    between atoms: C5_7  and  N2_9 
REMARK    3  A    between atoms: N2_9  and  C6_10 
REMARK    4  A    between atoms: C6_10  and  C7_11 
REMARK    5  A    between atoms: C6_10  and  C8_13 
REMARK       I    between atoms: C7_11  and  N3_14 
REMARK    6  A    between atoms: N3_14  and  C9_15 
REMARK    7  A    between atoms: C9_15  and  C10_16 
REMARK    8  A    between atoms: C9_15  and  C11_18 
REMARK       I    between atoms: C10_16  and  N4_21 
REMARK    9  A    between atoms: C11_18  and  C12_19 
REMARK   10  A    between atoms: C11_18  and  C13_20 
REMARK   11  A    between atoms: N4_21  and  C14_22 
REMARK   12  A    between atoms: C14_22  and  C15_23 
REMARK   13  A    between atoms: C14_22  and  C16_25 
REMARK       I    between atoms: C15_23  and  N6_40 
REMARK   14  A    between atoms: C16_25  and  C17_26 
REMARK   15  A    between atoms: C17_26  and  C18_27 
REMARK   16  A    between atoms: C17_26  and  C19_28 
REMARK   17  A    between atoms: C20_29  and  C21_30 
REMARK   18  A    between atoms: C20_29  and  C24_33 
REMARK   19  A    between atoms: C20_29  and  N6_40 
REMARK   20  A    between atoms: C21_30  and  C22_31 
REMARK   21  A    between atoms: C22_31  and  C23_32 
REMARK   22  A    between atoms: C23_32  and  O8_43 
REMARK   23  A    between atoms: C24_33  and  C25_34 
REMARK   24  A    between atoms: C28_38  and  O6_39 
REMARK   25  A    between atoms: C29_42  and  O8_43 
REMARK   26  A    between atoms: C29_42  and  C35_49 
ROOT
ATOM      1  C14 non d ame     -32.455  10.611  26.645  0.00  0.00     0.089 C 
ATOM      2  H20 non d ame     -33.491  10.675  26.310  0.00  0.00     0.087 H 
ENDROOT
BRANCH   1   3
ATOM      3  N4  non d ame     -31.825   9.523  25.912  0.00  0.00    -0.346 N 
ATOM      4  C10 non d ame     -32.251   9.206  24.501  0.00  0.00     0.241 C 
ATOM      5  O4  non d ame     -33.107   9.840  23.977  0.00  0.00    -0.271 OA
ATOM      6  H19 non d ame     -31.100   8.994  26.377  0.00  0.00     0.163 HD
BRANCH   4   7
ATOM      7  C9  non d ame     -31.584   8.080  23.756  0.00  0.00     0.092 C 
ATOM      8  H11 non d ame     -30.652   7.820  24.259  0.00  0.00     0.088 H 
BRANCH   7   9
ATOM      9  N3  non d ame     -32.442   6.892  23.793  0.00  0.00    -0.346 N 
ATOM     10  C7  non d ame     -32.433   6.033  24.952  0.00  0.00     0.240 C 
ATOM     11  O3  non d ame     -31.740   6.281  25.862  0.00  0.00    -0.271 OA
ATOM     12  H10 non d ame     -33.045   6.664  23.016  0.00  0.00     0.163 HD
BRANCH  10  13
ATOM     13  C6  non d ame     -33.346   4.768  24.985  0.00  0.00     0.086 C 
ATOM     14  H6  non d ame     -32.854   3.904  25.430  0.00  0.00     0.086 H 
BRANCH  13  15
ATOM     15  N2  non d ame     -34.513   5.051  25.804  0.00  0.00    -0.343 N 
ATOM     16  C5  non d ame     -34.573   4.537  27.175  0.00  0.00     0.273 C 
ATOM     17  O2  non d ame     -33.679   3.896  27.607  0.00  0.00    -0.266 OA
ATOM     18  H5  non d ame     -35.273   5.597  25.426  0.00  0.00     0.163 HD
BRANCH  16  19
ATOM     19  C4  non d ame     -35.799   4.830  28.053  0.00  0.00     0.154 A 
ATOM     20  C1  non d ame     -35.823   5.539  29.296  0.00  0.00    -0.017 A 
ATOM     21  C2  non d ame     -37.179   5.532  29.692  0.00  0.00     0.077 A 
ATOM     22  H1  non d ame     -34.986   5.989  29.829  0.00  0.00     0.091 H 
ATOM     23  O1  non d ame     -37.847   4.893  28.777  0.00  0.00    -0.218 OA
ATOM     24  N1  non d ame     -37.063   4.473  27.810  0.00  0.00    -0.123 NA
BRANCH  21  25
ATOM     25  C3  non d ame     -37.753   6.158  30.956  0.00  0.00    -0.029 C 
ATOM     26  H2  non d ame     -37.454   5.568  31.822  0.00  0.00     0.036 H 
ATOM     27  H3  non d ame     -37.374   7.175  31.062  0.00  0.00     0.036 H 
ATOM     28  H4  non d ame     -38.840   6.182  30.890  0.00  0.00     0.036 H 
ENDBRANCH  21  25
ENDBRANCH  16  19
ENDBRANCH  13  15
BRANCH  13  29
ATOM     29  C8  non d ame     -33.774   4.417  23.582  0.00  0.00    -0.049 C 
ATOM     30  H7  non d ame     -33.500   5.227  22.906  0.00  0.00     0.030 H 
ATOM     31  H8  non d ame     -33.276   3.500  23.270  0.00  0.00     0.030 H 
ATOM     32  H9  non d ame     -34.854   4.272  23.557  0.00  0.00     0.030 H 
ENDBRANCH  13  29
ENDBRANCH  10  13
ENDBRANCH   7   9
BRANCH   7  33
ATOM     33  C11 non d ame     -31.353   8.503  22.276  0.00  0.00    -0.033 C 
ATOM     34  H12 non d ame     -31.960   9.389  22.088  0.00  0.00     0.042 H 
BRANCH  33  35
ATOM     35  C12 non d ame     -29.863   8.894  22.022  0.00  0.00    -0.071 C 
ATOM     36  H13 non d ame     -29.567   8.570  21.024  0.00  0.00     0.028 H 
ATOM     37  H14 non d ame     -29.753   9.975  22.101  0.00  0.00     0.028 H 
ATOM     38  H15 non d ame     -29.229   8.409  22.764  0.00  0.00     0.028 H 
ENDBRANCH  33  35
BRANCH  33  39
ATOM     39  C13 non d ame     -31.819   7.380  21.294  0.00  0.00    -0.071 C 
ATOM     40  H16 non d ame     -31.946   6.447  21.843  0.00  0.00     0.028 H 
ATOM     41  H17 non d ame     -32.767   7.667  20.838  0.00  0.00     0.028 H 
ATOM     42  H18 non d ame     -31.069   7.245  20.515  0.00  0.00     0.028 H 
ENDBRANCH  33  39
ENDBRANCH   7  33
ENDBRANCH   4   7
ENDBRANCH   1   3
BRANCH   1  43
ATOM     43  C15 non d ame     -31.665  11.921  26.364  0.00  0.00     0.240 C 
ATOM     44  O5  non d ame     -30.895  12.331  27.171  0.00  0.00    -0.271 OA
ATOM     45  N6  non d ame     -31.860  12.658  25.083  0.00  0.00    -0.355 N 
ATOM     46  H46 non d ame     -32.507  12.317  24.388  0.00  0.00     0.162 HD
BRANCH  45  47
ATOM     47  C20 non d ame     -31.100  13.902  24.830  0.00  0.00     0.013 C 
ATOM     48  H30 non d ame     -30.258  13.926  25.521  0.00  0.00     0.072 H 
BRANCH  47  49
ATOM     49  C21 non d ame     -31.998  15.094  25.069  0.00  0.00    -0.038 C 
ATOM     50  H31 non d ame     -31.598  15.894  24.447  0.00  0.00     0.036 H 
ATOM     51  H32 non d ame     -33.015  14.734  24.907  0.00  0.00     0.036 H 
BRANCH  49  52
ATOM     52  C22 non d ame     -31.943  15.604  26.525  0.00  0.00     0.018 C 
ATOM     53  H33 non d ame     -32.202  14.748  27.148  0.00  0.00     0.048 H 
ATOM     54  H34 non d ame     -30.970  16.083  26.634  0.00  0.00     0.048 H 
BRANCH  52  55
ATOM     55  C23 non d ame     -32.998  16.700  26.846  0.00  0.00     0.259 C 
ATOM     56  O7  non d ame     -33.401  16.843  27.954  0.00  0.00    -0.265 OA
BRANCH  55  57
ATOM     57  O8  non d ame     -33.487  17.524  25.795  0.00  0.00    -0.317 OA
BRANCH  57  58
ATOM     58  C29 non d ame     -34.869  17.319  25.489  0.00  0.00     0.052 C 
ATOM     59  H47 non d ame     -34.906  17.095  24.423  0.00  0.00     0.082 H 
ATOM     60  H48 non d ame     -35.226  16.586  26.212  0.00  0.00     0.082 H 
BRANCH  58  61
ATOM     61  C35 non d ame     -35.618  18.656  25.736  0.00  0.00    -0.034 A 
ATOM     62  C30 non d ame     -36.770  18.953  25.015  0.00  0.00    -0.075 A 
ATOM     63  C31 non d ame     -37.442  20.154  25.236  0.00  0.00    -0.082 A 
ATOM     64  H49 non d ame     -37.145  18.245  24.275  0.00  0.00     0.084 H 
ATOM     65  C32 non d ame     -36.957  21.061  26.182  0.00  0.00    -0.083 A 
ATOM     66  H50 non d ame     -38.345  20.383  24.670  0.00  0.00     0.083 H 
ATOM     67  C33 non d ame     -35.805  20.762  26.897  0.00  0.00    -0.082 A 
ATOM     68  H51 non d ame     -37.477  22.002  26.362  0.00  0.00     0.083 H 
ATOM     69  C34 non d ame     -35.131  19.562  26.681  0.00  0.00    -0.075 A 
ATOM     70  H52 non d ame     -35.428  21.473  27.633  0.00  0.00     0.083 H 
ATOM     71  H53 non d ame     -34.228  19.333  27.247  0.00  0.00     0.084 H 
ENDBRANCH  58  61
ENDBRANCH  57  58
ENDBRANCH  55  57
ENDBRANCH  52  55
ENDBRANCH  49  52
ENDBRANCH  47  49
BRANCH  47  72
ATOM     72  C24 non d ame     -30.603  13.918  23.386  0.00  0.00    -0.039 C 
ATOM     73  H35 non d ame     -29.649  13.390  23.402  0.00  0.00     0.036 H 
ATOM     74  H36 non d ame     -31.430  13.532  22.790  0.00  0.00     0.036 H 
BRANCH  72  75
ATOM     75  C25 non d ame     -30.310  15.409  22.878  0.00  0.00    -0.001 C 
ATOM     76  C26 non d ame     -31.343  15.798  21.659  0.00  0.00    -0.035 C 
ATOM     77  C27 non d ame     -30.624  16.269  20.612  0.00  0.00     0.085 C 
ATOM     78  H38 non d ame     -31.810  14.897  21.263  0.00  0.00     0.036 H 
ATOM     79  H39 non d ame     -31.959  16.650  21.949  0.00  0.00     0.036 H 
ATOM     80  N5  non d ame     -29.178  15.931  20.881  0.00  0.00    -0.049 N 
ATOM     81  H40 non d ame     -30.967  15.703  19.746  0.00  0.00     0.075 H 
ATOM     82  H41 non d ame     -30.747  17.351  20.638  0.00  0.00     0.075 H 
ATOM     83  C28 non d ame     -29.100  15.524  22.441  0.00  0.00     0.193 C 
ATOM     84  H42 non d ame     -28.967  15.115  20.325  0.00  0.00     0.280 HD
ATOM     85  H43 non d ame     -28.655  16.785  20.744  0.00  0.00     0.280 HD
ATOM     86  H44 non d ame     -28.690  16.219  23.175  0.00  0.00     0.129 H 
ATOM     87  H37 non d ame     -30.226  16.117  23.702  0.00  0.00     0.046 H 
BRANCH  83  88
ATOM     88  O6  non d ame     -28.352  14.317  22.599  0.00  0.00    -0.369 OA
ATOM     89  H45 non d ame     -27.711  14.242  21.888  0.00  0.00     0.212 HD
ENDBRANCH  83  88
ENDBRANCH  72  75
ENDBRANCH  47  72
ENDBRANCH  45  47
ENDBRANCH   1  43
BRANCH   1  90
ATOM     90  C16 non d ame     -32.413  10.297  28.132  0.00  0.00    -0.035 C 
ATOM     91  H21 non d ame     -31.678   9.501  28.239  0.00  0.00     0.037 H 
ATOM     92  H22 non d ame     -32.254  11.257  28.624  0.00  0.00     0.037 H 
BRANCH  90  93
ATOM     93  C17 non d ame     -33.758   9.733  28.691  0.00  0.00    -0.059 C 
ATOM     94  H23 non d ame     -33.701   9.760  29.779  0.00  0.00     0.038 H 
BRANCH  93  95
ATOM     95  C18 non d ame     -34.986  10.596  28.257  0.00  0.00    -0.073 C 
ATOM     96  H24 non d ame     -34.666  11.624  28.089  0.00  0.00     0.028 H 
ATOM     97  H25 non d ame     -35.407  10.192  27.336  0.00  0.00     0.028 H 
ATOM     98  H26 non d ame     -35.741  10.574  29.042  0.00  0.00     0.028 H 
ENDBRANCH  93  95
BRANCH  93  99
ATOM     99  C19 non d ame     -33.949   8.270  28.283  0.00  0.00    -0.073 C 
ATOM    100  H27 non d ame     -33.299   8.041  27.437  0.00  0.00     0.028 H 
ATOM    101  H28 non d ame     -33.694   7.622  29.121  0.00  0.00     0.028 H 
ATOM    102  H29 non d ame     -34.988   8.104  27.999  0.00  0.00     0.028 H 
ENDBRANCH  93  99
ENDBRANCH  90  93
ENDBRANCH   1  90
TORSDOF 26
ENDMDL
MODEL 17
REMARK VINA RESULT:      -6.4      2.465      6.656
REMARK  26 active torsions:
REMARK  status: ('A' for Active; 'I' for Inactive)
REMARK    1  A    between atoms: C2_2  and  C3_3 
REMARK    2  A    between atoms: C4_6  and  C5_7 
REMARK       I    between atoms: C5_7  and  N2_9 
REMARK    3  A    between atoms: N2_9  and  C6_10 
REMARK    4  A    between atoms: C6_10  and  C7_11 
REMARK    5  A    between atoms: C6_10  and  C8_13 
REMARK       I    between atoms: C7_11  and  N3_14 
REMARK    6  A    between atoms: N3_14  and  C9_15 
REMARK    7  A    between atoms: C9_15  and  C10_16 
REMARK    8  A    between atoms: C9_15  and  C11_18 
REMARK       I    between atoms: C10_16  and  N4_21 
REMARK    9  A    between atoms: C11_18  and  C12_19 
REMARK   10  A    between atoms: C11_18  and  C13_20 
REMARK   11  A    between atoms: N4_21  and  C14_22 
REMARK   12  A    between atoms: C14_22  and  C15_23 
REMARK   13  A    between atoms: C14_22  and  C16_25 
REMARK       I    between atoms: C15_23  and  N6_40 
REMARK   14  A    between atoms: C16_25  and  C17_26 
REMARK   15  A    between atoms: C17_26  and  C18_27 
REMARK   16  A    between atoms: C17_26  and  C19_28 
REMARK   17  A    between atoms: C20_29  and  C21_30 
REMARK   18  A    between atoms: C20_29  and  C24_33 
REMARK   19  A    between atoms: C20_29  and  N6_40 
REMARK   20  A    between atoms: C21_30  and  C22_31 
REMARK   21  A    between atoms: C22_31  and  C23_32 
REMARK   22  A    between atoms: C23_32  and  O8_43 
REMARK   23  A    between atoms: C24_33  and  C25_34 
REMARK   24  A    between atoms: C28_38  and  O6_39 
REMARK   25  A    between atoms: C29_42  and  O8_43 
REMARK   26  A    between atoms: C29_42  and  C35_49 
ROOT
ATOM      1  C14 non d ame     -37.336  14.256  25.065  0.00  0.00     0.089 C 
ATOM      2  H20 non d ame     -38.374  14.326  25.394  0.00  0.00     0.087 H 
ENDROOT
BRANCH   1   3
ATOM      3  N4  non d ame     -36.770  15.596  25.111  0.00  0.00    -0.346 N 
ATOM      4  C10 non d ame     -37.402  16.661  25.970  0.00  0.00     0.241 C 
ATOM      5  O4  non d ame     -38.369  16.417  26.615  0.00  0.00    -0.271 OA
ATOM      6  H19 non d ame     -35.949  15.783  24.554  0.00  0.00     0.163 HD
BRANCH   4   7
ATOM      7  C9  non d ame     -36.799  18.041  26.010  0.00  0.00     0.092 C 
ATOM      8  H11 non d ame     -37.221  18.592  26.850  0.00  0.00     0.088 H 
BRANCH   7   9
ATOM      9  N3  non d ame     -35.355  17.937  26.241  0.00  0.00    -0.346 N 
ATOM     10  C7  non d ame     -34.825  18.106  27.572  0.00  0.00     0.240 C 
ATOM     11  O3  non d ame     -35.545  18.328  28.467  0.00  0.00    -0.271 OA
ATOM     12  H10 non d ame     -34.721  17.748  25.478  0.00  0.00     0.163 HD
BRANCH  10  13
ATOM     13  C6  non d ame     -33.287  17.998  27.811  0.00  0.00     0.086 C 
ATOM     14  H6  non d ame     -32.973  18.453  28.750  0.00  0.00     0.086 H 
BRANCH  13  15
ATOM     15  N2  non d ame     -32.919  16.593  27.886  0.00  0.00    -0.343 N 
ATOM     16  C5  non d ame     -32.142  16.111  29.030  0.00  0.00     0.273 C 
ATOM     17  O2  non d ame     -31.815  16.862  29.883  0.00  0.00    -0.266 OA
ATOM     18  H5  non d ame     -33.201  15.960  27.152  0.00  0.00     0.163 HD
BRANCH  16  19
ATOM     19  C4  non d ame     -31.748  14.629  29.124  0.00  0.00     0.154 A 
ATOM     20  C1  non d ame     -32.573  13.540  29.550  0.00  0.00    -0.017 A 
ATOM     21  C2  non d ame     -31.746  12.399  29.454  0.00  0.00     0.077 A 
ATOM     22  H1  non d ame     -33.612  13.574  29.880  0.00  0.00     0.091 H 
ATOM     23  O1  non d ame     -30.586  12.796  29.020  0.00  0.00    -0.218 OA
ATOM     24  N1  non d ame     -30.562  14.094  28.821  0.00  0.00    -0.123 NA
BRANCH  21  25
ATOM     25  C3  non d ame     -32.142  10.968  29.793  0.00  0.00    -0.029 C 
ATOM     26  H2  non d ame     -31.575  10.629  30.660  0.00  0.00     0.036 H 
ATOM     27  H3  non d ame     -33.208  10.930  30.020  0.00  0.00     0.036 H 
ATOM     28  H4  non d ame     -31.929  10.320  28.943  0.00  0.00     0.036 H 
ENDBRANCH  21  25
ENDBRANCH  16  19
ENDBRANCH  13  15
BRANCH  13  29
ATOM     29  C8  non d ame     -32.551  18.664  26.677  0.00  0.00    -0.049 C 
ATOM     30  H7  non d ame     -32.786  18.155  25.742  0.00  0.00     0.030 H 
ATOM     31  H8  non d ame     -32.857  19.708  26.609  0.00  0.00     0.030 H 
ATOM     32  H9  non d ame     -31.477  18.611  26.859  0.00  0.00     0.030 H 
ENDBRANCH  13  29
ENDBRANCH  10  13
ENDBRANCH   7   9
BRANCH   7  33
ATOM     33  C11 non d ame     -37.054  18.757  24.652  0.00  0.00    -0.033 C 
ATOM     34  H12 non d ame     -36.349  18.350  23.928  0.00  0.00     0.042 H 
BRANCH  33  35
ATOM     35  C12 non d ame     -38.493  18.470  24.119  0.00  0.00    -0.071 C 
ATOM     36  H13 non d ame     -38.429  17.934  23.172  0.00  0.00     0.028 H 
ATOM     37  H14 non d ame     -39.034  17.864  24.844  0.00  0.00     0.028 H 
ATOM     38  H15 non d ame     -39.019  19.413  23.968  0.00  0.00     0.028 H 
ENDBRANCH  33  35
BRANCH  33  39
ATOM     39  C13 non d ame     -36.791  20.293  24.772  0.00  0.00    -0.071 C 
ATOM     40  H16 non d ame     -37.242  20.668  25.691  0.00  0.00     0.028 H 
ATOM     41  H17 non d ame     -35.716  20.477  24.792  0.00  0.00     0.028 H 
ATOM     42  H18 non d ame     -37.230  20.805  23.915  0.00  0.00     0.028 H 
ENDBRANCH  33  39
ENDBRANCH   7  33
ENDBRANCH   4   7
ENDBRANCH   1   3
BRANCH   1  43
ATOM     43  C15 non d ame     -36.491  13.329  25.985  0.00  0.00     0.240 C 
ATOM     44  O5  non d ame     -36.613  13.396  27.165  0.00  0.00    -0.271 OA
ATOM     45  N6  non d ame     -35.535  12.350  25.393  0.00  0.00    -0.355 N 
ATOM     46  H46 non d ame     -35.426  12.280  24.392  0.00  0.00     0.162 HD
BRANCH  45  47
ATOM     47  C20 non d ame     -34.739  11.475  26.281  0.00  0.00     0.013 C 
ATOM     48  H30 non d ame     -35.027  11.690  27.310  0.00  0.00     0.072 H 
BRANCH  47  49
ATOM     49  C21 non d ame     -33.269  11.767  26.083  0.00  0.00    -0.038 C 
ATOM     50  H31 non d ame     -33.186  12.206  25.089  0.00  0.00     0.036 H 
ATOM     51  H32 non d ame     -32.962  12.338  26.960  0.00  0.00     0.036 H 
BRANCH  49  52
ATOM     52  C22 non d ame     -32.401  10.490  26.070  0.00  0.00     0.018 C 
ATOM     53  H33 non d ame     -31.716  10.589  26.911  0.00  0.00     0.048 H 
ATOM     54  H34 non d ame     -33.102   9.656  26.034  0.00  0.00     0.048 H 
BRANCH  52  55
ATOM     55  C23 non d ame     -31.508  10.353  24.805  0.00  0.00     0.259 C 
ATOM     56  O7  non d ame     -31.632   9.421  24.077  0.00  0.00    -0.265 OA
BRANCH  55  57
ATOM     57  O8  non d ame     -30.530  11.348  24.532  0.00  0.00    -0.317 OA
BRANCH  57  58
ATOM     58  C29 non d ame     -30.327  11.598  23.138  0.00  0.00     0.052 C 
ATOM     59  H47 non d ame     -29.334  11.209  22.910  0.00  0.00     0.082 H 
ATOM     60  H48 non d ame     -31.202  11.189  22.634  0.00  0.00     0.082 H 
BRANCH  58  61
ATOM     61  C35 non d ame     -30.313  13.136  22.924  0.00  0.00    -0.034 A 
ATOM     62  C30 non d ame     -29.571  13.688  21.885  0.00  0.00    -0.075 A 
ATOM     63  C31 non d ame     -29.558  15.068  21.693  0.00  0.00    -0.082 A 
ATOM     64  H49 non d ame     -28.999  13.039  21.221  0.00  0.00     0.084 H 
ATOM     65  C32 non d ame     -30.289  15.899  22.547  0.00  0.00    -0.083 A 
ATOM     66  H50 non d ame     -28.977  15.498  20.877  0.00  0.00     0.083 H 
ATOM     67  C33 non d ame     -31.025  15.343  23.585  0.00  0.00    -0.082 A 
ATOM     68  H51 non d ame     -30.285  16.979  22.404  0.00  0.00     0.083 H 
ATOM     69  C34 non d ame     -31.042  13.964  23.779  0.00  0.00    -0.075 A 
ATOM     70  H52 non d ame     -31.592  15.994  24.251  0.00  0.00     0.083 H 
ATOM     71  H53 non d ame     -31.624  13.535  24.596  0.00  0.00     0.084 H 
ENDBRANCH  58  61
ENDBRANCH  57  58
ENDBRANCH  55  57
ENDBRANCH  52  55
ENDBRANCH  49  52
ENDBRANCH  47  49
BRANCH  47  72
ATOM     72  C24 non d ame     -35.018  10.010  25.947  0.00  0.00    -0.039 C 
ATOM     73  H35 non d ame     -35.590  10.028  25.019  0.00  0.00     0.036 H 
ATOM     74  H36 non d ame     -34.047   9.516  25.979  0.00  0.00     0.036 H 
BRANCH  72  75
ATOM     75  C25 non d ame     -35.939   9.315  27.057  0.00  0.00    -0.001 C 
ATOM     76  C26 non d ame     -35.851  10.157  28.467  0.00  0.00    -0.035 C 
ATOM     77  C27 non d ame     -35.559   9.297  29.472  0.00  0.00     0.085 C 
ATOM     78  H38 non d ame     -34.992  10.827  28.448  0.00  0.00     0.036 H 
ATOM     79  H39 non d ame     -36.835  10.539  28.737  0.00  0.00     0.036 H 
ATOM     80  N5  non d ame     -35.119   8.003  28.831  0.00  0.00    -0.049 N 
ATOM     81  H40 non d ame     -34.713   9.739  29.997  0.00  0.00     0.075 H 
ATOM     82  H41 non d ame     -36.500   9.131  29.995  0.00  0.00     0.075 H 
ATOM     83  C28 non d ame     -35.564   8.100  27.282  0.00  0.00     0.193 C 
ATOM     84  H42 non d ame     -34.110   7.990  28.875  0.00  0.00     0.280 HD
ATOM     85  H43 non d ame     -35.653   7.269  29.274  0.00  0.00     0.280 HD
ATOM     86  H44 non d ame     -36.435   7.553  26.921  0.00  0.00     0.129 H 
ATOM     87  H37 non d ame     -36.936   9.082  26.680  0.00  0.00     0.046 H 
BRANCH  83  88
ATOM     88  O6  non d ame     -34.485   7.703  26.433  0.00  0.00    -0.369 OA
ATOM     89  H45 non d ame     -33.976   8.477  26.180  0.00  0.00     0.212 HD
ENDBRANCH  83  88
ENDBRANCH  72  75
ENDBRANCH  47  72
ENDBRANCH  45  47
ENDBRANCH   1  43
BRANCH   1  90
ATOM     90  C16 non d ame     -37.283  13.743  23.635  0.00  0.00    -0.035 C 
ATOM     91  H21 non d ame     -36.231  13.778  23.355  0.00  0.00     0.037 H 
ATOM     92  H22 non d ame     -37.812  12.790  23.650  0.00  0.00     0.037 H 
BRANCH  90  93
ATOM     93  C17 non d ame     -38.040  14.653  22.615  0.00  0.00    -0.059 C 
ATOM     94  H23 non d ame     -37.608  15.651  22.678  0.00  0.00     0.038 H 
BRANCH  93  95
ATOM     95  C18 non d ame     -37.873  14.153  21.144  0.00  0.00    -0.073 C 
ATOM     96  H24 non d ame     -38.184  14.939  20.456  0.00  0.00     0.028 H 
ATOM     97  H25 non d ame     -36.829  13.903  20.961  0.00  0.00     0.028 H 
ATOM     98  H26 non d ame     -38.491  13.269  20.988  0.00  0.00     0.028 H 
ENDBRANCH  93  95
BRANCH  93  99
ATOM     99  C19 non d ame     -39.520  14.774  22.984  0.00  0.00    -0.073 C 
ATOM    100  H27 non d ame     -39.873  13.825  23.388  0.00  0.00     0.028 H 
ATOM    101  H28 non d ame     -39.646  15.556  23.734  0.00  0.00     0.028 H 
ATOM    102  H29 non d ame     -40.097  15.028  22.096  0.00  0.00     0.028 H 
ENDBRANCH  93  99
ENDBRANCH  90  93
ENDBRANCH   1  90
TORSDOF 26
ENDMDL
MODEL 18
REMARK VINA RESULT:      -6.4      2.578      5.106
REMARK  26 active torsions:
REMARK  status: ('A' for Active; 'I' for Inactive)
REMARK    1  A    between atoms: C2_2  and  C3_3 
REMARK    2  A    between atoms: C4_6  and  C5_7 
REMARK       I    between atoms: C5_7  and  N2_9 
REMARK    3  A    between atoms: N2_9  and  C6_10 
REMARK    4  A    between atoms: C6_10  and  C7_11 
REMARK    5  A    between atoms: C6_10  and  C8_13 
REMARK       I    between atoms: C7_11  and  N3_14 
REMARK    6  A    between atoms: N3_14  and  C9_15 
REMARK    7  A    between atoms: C9_15  and  C10_16 
REMARK    8  A    between atoms: C9_15  and  C11_18 
REMARK       I    between atoms: C10_16  and  N4_21 
REMARK    9  A    between atoms: C11_18  and  C12_19 
REMARK   10  A    between atoms: C11_18  and  C13_20 
REMARK   11  A    between atoms: N4_21  and  C14_22 
REMARK   12  A    between atoms: C14_22  and  C15_23 
REMARK   13  A    between atoms: C14_22  and  C16_25 
REMARK       I    between atoms: C15_23  and  N6_40 
REMARK   14  A    between atoms: C16_25  and  C17_26 
REMARK   15  A    between atoms: C17_26  and  C18_27 
REMARK   16  A    between atoms: C17_26  and  C19_28 
REMARK   17  A    between atoms: C20_29  and  C21_30 
REMARK   18  A    between atoms: C20_29  and  C24_33 
REMARK   19  A    between atoms: C20_29  and  N6_40 
REMARK   20  A    between atoms: C21_30  and  C22_31 
REMARK   21  A    between atoms: C22_31  and  C23_32 
REMARK   22  A    between atoms: C23_32  and  O8_43 
REMARK   23  A    between atoms: C24_33  and  C25_34 
REMARK   24  A    between atoms: C28_38  and  O6_39 
REMARK   25  A    between atoms: C29_42  and  O8_43 
REMARK   26  A    between atoms: C29_42  and  C35_49 
ROOT
ATOM      1  C14 non d ame     -36.127  10.143  25.325  0.00  0.00     0.089 C 
ATOM      2  H20 non d ame     -37.148   9.762  25.285  0.00  0.00     0.087 H 
ENDROOT
BRANCH   1   3
ATOM      3  N4  non d ame     -35.677  10.050  26.705  0.00  0.00    -0.346 N 
ATOM      4  C10 non d ame     -36.475   9.264  27.715  0.00  0.00     0.241 C 
ATOM      5  O4  non d ame     -37.479   8.718  27.393  0.00  0.00    -0.271 OA
ATOM      6  H19 non d ame     -34.822  10.523  26.960  0.00  0.00     0.163 HD
BRANCH   4   7
ATOM      7  C9  non d ame     -35.992   9.173  29.139  0.00  0.00     0.092 C 
ATOM      8  H11 non d ame     -35.485   8.219  29.285  0.00  0.00     0.088 H 
BRANCH   7   9
ATOM      9  N3  non d ame     -35.007  10.230  29.389  0.00  0.00    -0.346 N 
ATOM     10  C7  non d ame     -33.600   9.914  29.405  0.00  0.00     0.240 C 
ATOM     11  O3  non d ame     -33.242   8.815  29.219  0.00  0.00    -0.271 OA
ATOM     12  H10 non d ame     -35.300  11.182  29.552  0.00  0.00     0.163 HD
BRANCH  10  13
ATOM     13  C6  non d ame     -32.556  11.042  29.675  0.00  0.00     0.086 C 
ATOM     14  H6  non d ame     -31.529  10.679  29.658  0.00  0.00     0.086 H 
BRANCH  13  15
ATOM     15  N2  non d ame     -32.662  12.043  28.626  0.00  0.00    -0.343 N 
ATOM     16  C5  non d ame     -31.463  12.765  28.195  0.00  0.00     0.273 C 
ATOM     17  O2  non d ame     -30.419  12.536  28.701  0.00  0.00    -0.266 OA
ATOM     18  H5  non d ame     -33.558  12.234  28.202  0.00  0.00     0.163 HD
BRANCH  16  19
ATOM     19  C4  non d ame     -31.560  13.825  27.087  0.00  0.00     0.154 A 
ATOM     20  C1  non d ame     -31.084  13.715  25.742  0.00  0.00    -0.017 A 
ATOM     21  C2  non d ame     -31.415  14.947  25.136  0.00  0.00     0.077 A 
ATOM     22  H1  non d ame     -30.576  12.870  25.276  0.00  0.00     0.091 H 
ATOM     23  O1  non d ame     -32.012  15.672  26.036  0.00  0.00    -0.218 OA
ATOM     24  N1  non d ame     -32.108  15.039  27.183  0.00  0.00    -0.123 NA
BRANCH  21  25
ATOM     25  C3  non d ame     -31.128  15.351  23.696  0.00  0.00    -0.029 C 
ATOM     26  H2  non d ame     -30.546  14.569  23.209  0.00  0.00     0.036 H 
ATOM     27  H3  non d ame     -32.068  15.490  23.164  0.00  0.00     0.036 H 
ATOM     28  H4  non d ame     -30.563  16.283  23.686  0.00  0.00     0.036 H 
ENDBRANCH  21  25
ENDBRANCH  16  19
ENDBRANCH  13  15
BRANCH  13  29
ATOM     29  C8  non d ame     -32.828  11.671  31.018  0.00  0.00    -0.049 C 
ATOM     30  H7  non d ame     -32.620  12.740  30.968  0.00  0.00     0.030 H 
ATOM     31  H8  non d ame     -33.873  11.517  31.286  0.00  0.00     0.030 H 
ATOM     32  H9  non d ame     -32.188  11.211  31.771  0.00  0.00     0.030 H 
ENDBRANCH  13  29
ENDBRANCH  10  13
ENDBRANCH   7   9
BRANCH   7  33
ATOM     33  C11 non d ame     -37.197   9.350  30.108  0.00  0.00    -0.033 C 
ATOM     34  H12 non d ame     -37.864   8.501  29.961  0.00  0.00     0.042 H 
BRANCH  33  35
ATOM     35  C12 non d ame     -36.735   9.332  31.598  0.00  0.00    -0.071 C 
ATOM     36  H13 non d ame     -36.420  10.333  31.894  0.00  0.00     0.028 H 
ATOM     37  H14 non d ame     -37.561   9.009  32.231  0.00  0.00     0.028 H 
ATOM     38  H15 non d ame     -35.899   8.641  31.711  0.00  0.00     0.028 H 
ENDBRANCH  33  35
BRANCH  33  39
ATOM     39  C13 non d ame     -37.993  10.654  29.778  0.00  0.00    -0.071 C 
ATOM     40  H16 non d ame     -37.886  10.886  28.718  0.00  0.00     0.028 H 
ATOM     41  H17 non d ame     -39.047  10.505  30.013  0.00  0.00     0.028 H 
ATOM     42  H18 non d ame     -37.602  11.479  30.373  0.00  0.00     0.028 H 
ENDBRANCH  33  39
ENDBRANCH   7  33
ENDBRANCH   4   7
ENDBRANCH   1   3
BRANCH   1  43
ATOM     43  C15 non d ame     -35.157   9.319  24.430  0.00  0.00     0.240 C 
ATOM     44  O5  non d ame     -35.079   9.556  23.268  0.00  0.00    -0.271 OA
ATOM     45  N6  non d ame     -34.319   8.239  25.025  0.00  0.00    -0.355 N 
ATOM     46  H46 non d ame     -34.373   8.032  26.012  0.00  0.00     0.162 HD
BRANCH  45  47
ATOM     47  C20 non d ame     -33.400   7.465  24.162  0.00  0.00     0.013 C 
ATOM     48  H30 non d ame     -33.777   7.517  23.140  0.00  0.00     0.072 H 
BRANCH  47  49
ATOM     49  C21 non d ame     -33.369   6.027  24.628  0.00  0.00    -0.038 C 
ATOM     50  H31 non d ame     -34.324   5.858  25.125  0.00  0.00     0.036 H 
ATOM     51  H32 non d ame     -33.098   5.439  23.751  0.00  0.00     0.036 H 
BRANCH  49  52
ATOM     52  C22 non d ame     -32.274   5.764  25.685  0.00  0.00     0.018 C 
ATOM     53  H33 non d ame     -31.866   4.782  25.449  0.00  0.00     0.048 H 
ATOM     54  H34 non d ame     -31.628   6.642  25.666  0.00  0.00     0.048 H 
BRANCH  52  55
ATOM     55  C23 non d ame     -32.817   5.664  27.138  0.00  0.00     0.259 C 
ATOM     56  O7  non d ame     -32.202   5.085  27.973  0.00  0.00    -0.265 OA
BRANCH  55  57
ATOM     57  O8  non d ame     -34.067   6.262  27.457  0.00  0.00    -0.317 OA
BRANCH  57  58
ATOM     58  C29 non d ame     -35.153   5.334  27.539  0.00  0.00     0.052 C 
ATOM     59  H47 non d ame     -35.859   5.637  26.765  0.00  0.00     0.082 H 
ATOM     60  H48 non d ame     -34.698   4.345  27.505  0.00  0.00     0.082 H 
BRANCH  58  61
ATOM     61  C35 non d ame     -35.833   5.514  28.922  0.00  0.00    -0.034 A 
ATOM     62  C30 non d ame     -35.057   5.619  30.072  0.00  0.00    -0.075 A 
ATOM     63  C31 non d ame     -35.668   5.781  31.314  0.00  0.00    -0.082 A 
ATOM     64  H49 non d ame     -33.970   5.575  30.000  0.00  0.00     0.084 H 
ATOM     65  C32 non d ame     -37.062   5.834  31.405  0.00  0.00    -0.083 A 
ATOM     66  H50 non d ame     -35.057   5.864  32.213  0.00  0.00     0.083 H 
ATOM     67  C33 non d ame     -37.832   5.725  30.256  0.00  0.00    -0.082 A 
ATOM     68  H51 non d ame     -37.547   5.961  32.373  0.00  0.00     0.083 H 
ATOM     69  C34 non d ame     -37.226   5.566  29.011  0.00  0.00    -0.075 A 
ATOM     70  H52 non d ame     -38.919   5.765  30.330  0.00  0.00     0.083 H 
ATOM     71  H53 non d ame     -37.838   5.482  28.113  0.00  0.00     0.084 H 
ENDBRANCH  58  61
ENDBRANCH  57  58
ENDBRANCH  55  57
ENDBRANCH  52  55
ENDBRANCH  49  52
ENDBRANCH  47  49
BRANCH  47  72
ATOM     72  C24 non d ame     -31.995   8.058  24.240  0.00  0.00    -0.039 C 
ATOM     73  H35 non d ame     -32.033   8.788  25.049  0.00  0.00     0.036 H 
ATOM     74  H36 non d ame     -31.323   7.203  24.309  0.00  0.00     0.036 H 
BRANCH  72  75
ATOM     75  C25 non d ame     -31.612   8.854  22.904  0.00  0.00    -0.001 C 
ATOM     76  C26 non d ame     -30.220   8.249  22.271  0.00  0.00    -0.035 C 
ATOM     77  C27 non d ame     -29.362   9.273  22.046  0.00  0.00     0.085 C 
ATOM     78  H38 non d ame     -29.703   7.644  23.016  0.00  0.00     0.036 H 
ATOM     79  H39 non d ame     -30.405   7.848  21.275  0.00  0.00     0.036 H 
ATOM     80  N5  non d ame     -29.914  10.479  22.767  0.00  0.00    -0.049 N 
ATOM     81  H40 non d ame     -28.424   8.976  22.515  0.00  0.00     0.075 H 
ATOM     82  H41 non d ame     -29.401   9.454  20.972  0.00  0.00     0.075 H 
ATOM     83  C28 non d ame     -31.441  10.112  23.141  0.00  0.00     0.193 C 
ATOM     84  H42 non d ame     -29.386  10.567  23.623  0.00  0.00     0.280 HD
ATOM     85  H43 non d ame     -29.920  11.235  22.097  0.00  0.00     0.280 HD
ATOM     86  H44 non d ame     -32.268  10.535  22.571  0.00  0.00     0.129 H 
ATOM     87  H37 non d ame     -32.460   8.957  22.227  0.00  0.00     0.046 H 
BRANCH  83  88
ATOM     88  O6  non d ame     -31.708  10.444  24.505  0.00  0.00    -0.369 OA
ATOM     89  H45 non d ame     -30.924  10.833  24.899  0.00  0.00     0.212 HD
ENDBRANCH  83  88
ENDBRANCH  72  75
ENDBRANCH  47  72
ENDBRANCH  45  47
ENDBRANCH   1  43
BRANCH   1  90
ATOM     90  C16 non d ame     -36.105  11.601  24.893  0.00  0.00    -0.035 C 
ATOM     91  H21 non d ame     -35.123  11.755  24.446  0.00  0.00     0.037 H 
ATOM     92  H22 non d ame     -37.005  11.738  24.294  0.00  0.00     0.037 H 
BRANCH  90  93
ATOM     93  C17 non d ame     -36.210  12.608  26.083  0.00  0.00    -0.059 C 
ATOM     94  H23 non d ame     -35.993  12.060  27.000  0.00  0.00     0.038 H 
BRANCH  93  95
ATOM     95  C18 non d ame     -35.172  13.770  25.965  0.00  0.00    -0.073 C 
ATOM     96  H24 non d ame     -35.096  14.085  24.925  0.00  0.00     0.028 H 
ATOM     97  H25 non d ame     -35.497  14.611  26.576  0.00  0.00     0.028 H 
ATOM     98  H26 non d ame     -34.199  13.424  26.312  0.00  0.00     0.028 H 
ENDBRANCH  93  95
BRANCH  93  99
ATOM     99  C19 non d ame     -37.632  13.159  26.209  0.00  0.00    -0.073 C 
ATOM    100  H27 non d ame     -37.819  13.872  25.405  0.00  0.00     0.028 H 
ATOM    101  H28 non d ame     -38.348  12.339  26.140  0.00  0.00     0.028 H 
ATOM    102  H29 non d ame     -37.745  13.659  27.171  0.00  0.00     0.028 H 
ENDBRANCH  93  99
ENDBRANCH  90  93
ENDBRANCH   1  90
TORSDOF 26
ENDMDL
MODEL 19
REMARK VINA RESULT:      -6.3      2.830      5.869
REMARK  26 active torsions:
REMARK  status: ('A' for Active; 'I' for Inactive)
REMARK    1  A    between atoms: C2_2  and  C3_3 
REMARK    2  A    between atoms: C4_6  and  C5_7 
REMARK       I    between atoms: C5_7  and  N2_9 
REMARK    3  A    between atoms: N2_9  and  C6_10 
REMARK    4  A    between atoms: C6_10  and  C7_11 
REMARK    5  A    between atoms: C6_10  and  C8_13 
REMARK       I    between atoms: C7_11  and  N3_14 
REMARK    6  A    between atoms: N3_14  and  C9_15 
REMARK    7  A    between atoms: C9_15  and  C10_16 
REMARK    8  A    between atoms: C9_15  and  C11_18 
REMARK       I    between atoms: C10_16  and  N4_21 
REMARK    9  A    between atoms: C11_18  and  C12_19 
REMARK   10  A    between atoms: C11_18  and  C13_20 
REMARK   11  A    between atoms: N4_21  and  C14_22 
REMARK   12  A    between atoms: C14_22  and  C15_23 
REMARK   13  A    between atoms: C14_22  and  C16_25 
REMARK       I    between atoms: C15_23  and  N6_40 
REMARK   14  A    between atoms: C16_25  and  C17_26 
REMARK   15  A    between atoms: C17_26  and  C18_27 
REMARK   16  A    between atoms: C17_26  and  C19_28 
REMARK   17  A    between atoms: C20_29  and  C21_30 
REMARK   18  A    between atoms: C20_29  and  C24_33 
REMARK   19  A    between atoms: C20_29  and  N6_40 
REMARK   20  A    between atoms: C21_30  and  C22_31 
REMARK   21  A    between atoms: C22_31  and  C23_32 
REMARK   22  A    between atoms: C23_32  and  O8_43 
REMARK   23  A    between atoms: C24_33  and  C25_34 
REMARK   24  A    between atoms: C28_38  and  O6_39 
REMARK   25  A    between atoms: C29_42  and  O8_43 
REMARK   26  A    between atoms: C29_42  and  C35_49 
ROOT
ATOM      1  C14 non d ame     -36.043  11.003  26.172  0.00  0.00     0.089 C 
ATOM      2  H20 non d ame     -37.022  10.662  26.509  0.00  0.00     0.087 H 
ENDROOT
BRANCH   1   3
ATOM      3  N4  non d ame     -35.086  10.700  27.225  0.00  0.00    -0.346 N 
ATOM      4  C10 non d ame     -35.549  10.536  28.651  0.00  0.00     0.241 C 
ATOM      5  O4  non d ame     -36.697  10.657  28.927  0.00  0.00    -0.271 OA
ATOM      6  H19 non d ame     -34.113  10.604  26.970  0.00  0.00     0.163 HD
BRANCH   4   7
ATOM      7  C9  non d ame     -34.545  10.217  29.727  0.00  0.00     0.092 C 
ATOM      8  H11 non d ame     -33.884   9.424  29.377  0.00  0.00     0.088 H 
BRANCH   7   9
ATOM      9  N3  non d ame     -33.711  11.395  29.984  0.00  0.00    -0.346 N 
ATOM     10  C7  non d ame     -32.505  11.604  29.221  0.00  0.00     0.240 C 
ATOM     11  O3  non d ame     -32.190  10.833  28.398  0.00  0.00    -0.271 OA
ATOM     12  H10 non d ame     -33.969  12.067  30.692  0.00  0.00     0.163 HD
BRANCH  10  13
ATOM     13  C6  non d ame     -31.620  12.858  29.501  0.00  0.00     0.086 C 
ATOM     14  H6  non d ame     -30.793  12.956  28.797  0.00  0.00     0.086 H 
BRANCH  13  15
ATOM     15  N2  non d ame     -32.435  14.052  29.354  0.00  0.00    -0.343 N 
ATOM     16  C5  non d ame     -32.151  14.990  28.265  0.00  0.00     0.273 C 
ATOM     17  O2  non d ame     -31.263  14.776  27.515  0.00  0.00    -0.266 OA
ATOM     18  H5  non d ame     -33.190  14.229  30.001  0.00  0.00     0.163 HD
BRANCH  16  19
ATOM     19  C4  non d ame     -33.006  16.256  28.097  0.00  0.00     0.154 A 
ATOM     20  C1  non d ame     -32.581  17.525  27.591  0.00  0.00    -0.017 A 
ATOM     21  C2  non d ame     -33.733  18.341  27.641  0.00  0.00     0.077 A 
ATOM     22  H1  non d ame     -31.588  17.811  27.242  0.00  0.00     0.091 H 
ATOM     23  O1  non d ame     -34.701  17.615  28.119  0.00  0.00    -0.218 OA
ATOM     24  N1  non d ame     -34.301  16.395  28.393  0.00  0.00    -0.123 NA
BRANCH  21  25
ATOM     25  C3  non d ame     -33.825  19.799  27.212  0.00  0.00    -0.029 C 
ATOM     26  H2  non d ame     -33.926  19.854  26.129  0.00  0.00     0.036 H 
ATOM     27  H3  non d ame     -34.693  20.262  27.682  0.00  0.00     0.036 H 
ATOM     28  H4  non d ame     -32.922  20.326  27.520  0.00  0.00     0.036 H 
ENDBRANCH  21  25
ENDBRANCH  16  19
ENDBRANCH  13  15
BRANCH  13  29
ATOM     29  C8  non d ame     -31.063  12.782  30.900  0.00  0.00    -0.049 C 
ATOM     30  H7  non d ame     -29.989  12.598  30.854  0.00  0.00     0.030 H 
ATOM     31  H8  non d ame     -31.248  13.723  31.416  0.00  0.00     0.030 H 
ATOM     32  H9  non d ame     -31.548  11.968  31.440  0.00  0.00     0.030 H 
ENDBRANCH  13  29
ENDBRANCH  10  13
ENDBRANCH   7   9
BRANCH   7  33
ATOM     33  C11 non d ame     -35.294   9.820  31.033  0.00  0.00    -0.033 C 
ATOM     34  H12 non d ame     -36.363   9.892  30.834  0.00  0.00     0.042 H 
BRANCH  33  35
ATOM     35  C12 non d ame     -34.990   8.343  31.437  0.00  0.00    -0.071 C 
ATOM     36  H13 non d ame     -35.647   7.673  30.883  0.00  0.00     0.028 H 
ATOM     37  H14 non d ame     -33.952   8.109  31.203  0.00  0.00     0.028 H 
ATOM     38  H15 non d ame     -35.160   8.217  32.506  0.00  0.00     0.028 H 
ENDBRANCH  33  35
BRANCH  33  39
ATOM     39  C13 non d ame     -34.951  10.807  32.196  0.00  0.00    -0.071 C 
ATOM     40  H16 non d ame     -33.960  10.576  32.588  0.00  0.00     0.028 H 
ATOM     41  H17 non d ame     -34.965  11.830  31.820  0.00  0.00     0.028 H 
ATOM     42  H18 non d ame     -35.690  10.702  32.990  0.00  0.00     0.028 H 
ENDBRANCH  33  39
ENDBRANCH   7  33
ENDBRANCH   4   7
ENDBRANCH   1   3
BRANCH   1  43
ATOM     43  C15 non d ame     -35.589  10.287  24.868  0.00  0.00     0.240 C 
ATOM     44  O5  non d ame     -36.056  10.608  23.823  0.00  0.00    -0.271 OA
ATOM     45  N6  non d ame     -34.565   9.205  24.921  0.00  0.00    -0.355 N 
ATOM     46  H46 non d ame     -34.157   8.926  25.801  0.00  0.00     0.162 HD
BRANCH  45  47
ATOM     47  C20 non d ame     -34.142   8.534  23.672  0.00  0.00     0.013 C 
ATOM     48  H30 non d ame     -34.355   9.207  22.841  0.00  0.00     0.072 H 
BRANCH  47  49
ATOM     49  C21 non d ame     -34.920   7.248  23.508  0.00  0.00    -0.038 C 
ATOM     50  H31 non d ame     -34.851   6.737  24.468  0.00  0.00     0.036 H 
ATOM     51  H32 non d ame     -35.894   7.541  23.115  0.00  0.00     0.036 H 
BRANCH  49  52
ATOM     52  C22 non d ame     -34.295   6.299  22.462  0.00  0.00     0.018 C 
ATOM     53  H33 non d ame     -35.032   6.211  21.665  0.00  0.00     0.048 H 
ATOM     54  H34 non d ame     -33.306   6.706  22.247  0.00  0.00     0.048 H 
BRANCH  52  55
ATOM     55  C23 non d ame     -34.058   4.856  22.988  0.00  0.00     0.259 C 
ATOM     56  O7  non d ame     -34.779   3.970  22.662  0.00  0.00    -0.265 OA
BRANCH  55  57
ATOM     57  O8  non d ame     -32.976   4.607  23.876  0.00  0.00    -0.317 OA
BRANCH  57  58
ATOM     58  C29 non d ame     -33.377   4.126  25.162  0.00  0.00     0.052 C 
ATOM     59  H47 non d ame     -34.404   3.782  25.041  0.00  0.00     0.082 H 
ATOM     60  H48 non d ame     -32.600   3.426  25.471  0.00  0.00     0.082 H 
BRANCH  58  61
ATOM     61  C35 non d ame     -33.374   5.327  26.145  0.00  0.00    -0.034 A 
ATOM     62  C30 non d ame     -34.550   5.709  26.783  0.00  0.00    -0.075 A 
ATOM     63  C31 non d ame     -34.548   6.788  27.665  0.00  0.00    -0.082 A 
ATOM     64  H49 non d ame     -35.474   5.163  26.590  0.00  0.00     0.084 H 
ATOM     65  C32 non d ame     -33.363   7.488  27.908  0.00  0.00    -0.083 A 
ATOM     66  H50 non d ame     -35.471   7.083  28.164  0.00  0.00     0.083 H 
ATOM     67  C33 non d ame     -32.193   7.106  27.267  0.00  0.00    -0.082 A 
ATOM     68  H51 non d ame     -33.352   8.333  28.597  0.00  0.00     0.083 H 
ATOM     69  C34 non d ame     -32.190   6.027  26.386  0.00  0.00    -0.075 A 
ATOM     70  H52 non d ame     -31.270   7.656  27.456  0.00  0.00     0.083 H 
ATOM     71  H53 non d ame     -31.266   5.732  25.887  0.00  0.00     0.084 H 
ENDBRANCH  58  61
ENDBRANCH  57  58
ENDBRANCH  55  57
ENDBRANCH  52  55
ENDBRANCH  49  52
ENDBRANCH  47  49
BRANCH  47  72
ATOM     72  C24 non d ame     -32.648   8.223  23.733  0.00  0.00    -0.039 C 
ATOM     73  H35 non d ame     -32.381   8.288  24.788  0.00  0.00     0.036 H 
ATOM     74  H36 non d ame     -32.526   7.282  23.197  0.00  0.00     0.036 H 
BRANCH  72  75
ATOM     75  C25 non d ame     -31.781   9.324  22.957  0.00  0.00    -0.001 C 
ATOM     76  C26 non d ame     -30.678   8.587  21.986  0.00  0.00    -0.035 C 
ATOM     77  C27 non d ame     -29.455   9.113  22.236  0.00  0.00     0.085 C 
ATOM     78  H38 non d ame     -30.569   7.541  22.271  0.00  0.00     0.036 H 
ATOM     79  H39 non d ame     -30.861   8.852  20.944  0.00  0.00     0.036 H 
ATOM     80  N5  non d ame     -29.570   9.906  23.515  0.00  0.00    -0.049 N 
ATOM     81  H40 non d ame     -28.800   8.258  22.405  0.00  0.00     0.075 H 
ATOM     82  H41 non d ame     -29.258   9.796  21.411  0.00  0.00     0.075 H 
ATOM     83  C28 non d ame     -31.151  10.090  23.784  0.00  0.00     0.193 C 
ATOM     84  H42 non d ame     -29.184   9.327  24.247  0.00  0.00     0.280 HD
ATOM     85  H43 non d ame     -29.168  10.813  23.325  0.00  0.00     0.280 HD
ATOM     86  H44 non d ame     -31.639  11.044  23.583  0.00  0.00     0.129 H 
ATOM     87  H37 non d ame     -32.404  10.096  22.504  0.00  0.00     0.046 H 
BRANCH  83  88
ATOM     88  O6  non d ame     -31.458   9.783  25.145  0.00  0.00    -0.369 OA
ATOM     89  H45 non d ame     -30.841  10.237  25.723  0.00  0.00     0.212 HD
ENDBRANCH  83  88
ENDBRANCH  72  75
ENDBRANCH  47  72
ENDBRANCH  45  47
ENDBRANCH   1  43
BRANCH   1  90
ATOM     90  C16 non d ame     -36.072  12.506  25.946  0.00  0.00    -0.035 C 
ATOM     91  H21 non d ame     -35.688  12.944  26.867  0.00  0.00     0.037 H 
ATOM     92  H22 non d ame     -35.545  12.667  25.005  0.00  0.00     0.037 H 
BRANCH  90  93
ATOM     93  C17 non d ame     -37.511  13.083  25.750  0.00  0.00    -0.059 C 
ATOM     94  H23 non d ame     -37.715  13.106  24.680  0.00  0.00     0.038 H 
BRANCH  93  95
ATOM     95  C18 non d ame     -38.600  12.189  26.424  0.00  0.00    -0.073 C 
ATOM     96  H24 non d ame     -39.373  11.947  25.696  0.00  0.00     0.028 H 
ATOM     97  H25 non d ame     -38.143  11.270  26.788  0.00  0.00     0.028 H 
ATOM     98  H26 non d ame     -39.046  12.728  27.260  0.00  0.00     0.028 H 
ENDBRANCH  93  95
BRANCH  93  99
ATOM     99  C19 non d ame     -37.596  14.524  26.260  0.00  0.00    -0.073 C 
ATOM    100  H27 non d ame     -37.094  14.598  27.225  0.00  0.00     0.028 H 
ATOM    101  H28 non d ame     -37.112  15.192  25.547  0.00  0.00     0.028 H 
ATOM    102  H29 non d ame     -38.642  14.809  26.371  0.00  0.00     0.028 H 
ENDBRANCH  93  99
ENDBRANCH  90  93
ENDBRANCH   1  90
TORSDOF 26
ENDMDL
MODEL 20
REMARK VINA RESULT:      -6.3      2.667      5.629
REMARK  26 active torsions:
REMARK  status: ('A' for Active; 'I' for Inactive)
REMARK    1  A    between atoms: C2_2  and  C3_3 
REMARK    2  A    between atoms: C4_6  and  C5_7 
REMARK       I    between atoms: C5_7  and  N2_9 
REMARK    3  A    between atoms: N2_9  and  C6_10 
REMARK    4  A    between atoms: C6_10  and  C7_11 
REMARK    5  A    between atoms: C6_10  and  C8_13 
REMARK       I    between atoms: C7_11  and  N3_14 
REMARK    6  A    between atoms: N3_14  and  C9_15 
REMARK    7  A    between atoms: C9_15  and  C10_16 
REMARK    8  A    between atoms: C9_15  and  C11_18 
REMARK       I    between atoms: C10_16  and  N4_21 
REMARK    9  A    between atoms: C11_18  and  C12_19 
REMARK   10  A    between atoms: C11_18  and  C13_20 
REMARK   11  A    between atoms: N4_21  and  C14_22 
REMARK   12  A    between atoms: C14_22  and  C15_23 
REMARK   13  A    between atoms: C14_22  and  C16_25 
REMARK       I    between atoms: C15_23  and  N6_40 
REMARK   14  A    between atoms: C16_25  and  C17_26 
REMARK   15  A    between atoms: C17_26  and  C18_27 
REMARK   16  A    between atoms: C17_26  and  C19_28 
REMARK   17  A    between atoms: C20_29  and  C21_30 
REMARK   18  A    between atoms: C20_29  and  C24_33 
REMARK   19  A    between atoms: C20_29  and  N6_40 
REMARK   20  A    between atoms: C21_30  and  C22_31 
REMARK   21  A    between atoms: C22_31  and  C23_32 
REMARK   22  A    between atoms: C23_32  and  O8_43 
REMARK   23  A    between atoms: C24_33  and  C25_34 
REMARK   24  A    between atoms: C28_38  and  O6_39 
REMARK   25  A    between atoms: C29_42  and  O8_43 
REMARK   26  A    between atoms: C29_42  and  C35_49 
ROOT
ATOM      1  C14 non d ame     -34.182   9.608  27.284  0.00  0.00     0.089 C 
ATOM      2  H20 non d ame     -33.462   8.941  27.760  0.00  0.00     0.087 H 
ENDROOT
BRANCH   1   3
ATOM      3  N4  non d ame     -33.608  10.945  27.284  0.00  0.00    -0.346 N 
ATOM      4  C10 non d ame     -32.129  11.139  27.066  0.00  0.00     0.241 C 
ATOM      5  O4  non d ame     -31.419  10.203  26.896  0.00  0.00    -0.271 OA
ATOM      6  H19 non d ame     -34.228  11.728  27.433  0.00  0.00     0.163 HD
BRANCH   4   7
ATOM      7  C9  non d ame     -31.553  12.531  27.064  0.00  0.00     0.092 C 
ATOM      8  H11 non d ame     -30.509  12.487  26.751  0.00  0.00     0.088 H 
BRANCH   7   9
ATOM      9  N3  non d ame     -32.265  13.354  26.082  0.00  0.00    -0.346 N 
ATOM     10  C7  non d ame     -31.526  14.081  25.079  0.00  0.00     0.240 C 
ATOM     11  O3  non d ame     -30.358  14.016  25.049  0.00  0.00    -0.271 OA
ATOM     12  H10 non d ame     -33.273  13.420  26.096  0.00  0.00     0.163 HD
BRANCH  10  13
ATOM     13  C6  non d ame     -32.290  14.957  24.038  0.00  0.00     0.086 C 
ATOM     14  H6  non d ame     -33.247  14.527  23.747  0.00  0.00     0.086 H 
BRANCH  13  15
ATOM     15  N2  non d ame     -32.579  16.251  24.634  0.00  0.00    -0.343 N 
ATOM     16  C5  non d ame     -33.847  16.453  25.339  0.00  0.00     0.273 C 
ATOM     17  O2  non d ame     -34.628  15.569  25.419  0.00  0.00    -0.266 OA
ATOM     18  H5  non d ame     -31.907  17.001  24.558  0.00  0.00     0.163 HD
BRANCH  16  19
ATOM     19  C4  non d ame     -34.165  17.815  25.975  0.00  0.00     0.154 A 
ATOM     20  C1  non d ame     -35.410  18.521  25.929  0.00  0.00    -0.017 A 
ATOM     21  C2  non d ame     -35.181  19.708  26.659  0.00  0.00     0.077 A 
ATOM     22  H1  non d ame     -36.336  18.218  25.440  0.00  0.00     0.091 H 
ATOM     23  O1  non d ame     -33.948  19.677  27.073  0.00  0.00    -0.218 OA
ATOM     24  N1  non d ame     -33.335  18.583  26.686  0.00  0.00    -0.123 NA
BRANCH  21  25
ATOM     25  C3  non d ame     -36.192  20.818  26.916  0.00  0.00    -0.029 C 
ATOM     26  H2  non d ame     -36.173  21.526  26.088  0.00  0.00     0.036 H 
ATOM     27  H3  non d ame     -37.190  20.387  27.001  0.00  0.00     0.036 H 
ATOM     28  H4  non d ame     -35.939  21.334  27.841  0.00  0.00     0.036 H 
ENDBRANCH  21  25
ENDBRANCH  16  19
ENDBRANCH  13  15
BRANCH  13  29
ATOM     29  C8  non d ame     -31.439  15.134  22.806  0.00  0.00    -0.049 C 
ATOM     30  H7  non d ame     -31.164  14.156  22.411  0.00  0.00     0.030 H 
ATOM     31  H8  non d ame     -32.002  15.685  22.053  0.00  0.00     0.030 H 
ATOM     32  H9  non d ame     -30.537  15.689  23.064  0.00  0.00     0.030 H 
ENDBRANCH  13  29
ENDBRANCH  10  13
ENDBRANCH   7   9
BRANCH   7  33
ATOM     33  C11 non d ame     -31.713  13.161  28.478  0.00  0.00    -0.033 C 
ATOM     34  H12 non d ame     -32.719  12.929  28.829  0.00  0.00     0.042 H 
BRANCH  33  35
ATOM     35  C12 non d ame     -30.706  12.539  29.495  0.00  0.00    -0.071 C 
ATOM     36  H13 non d ame     -31.249  12.177  30.369  0.00  0.00     0.028 H 
ATOM     37  H14 non d ame     -30.181  11.709  29.025  0.00  0.00     0.028 H 
ATOM     38  H15 non d ame     -29.987  13.297  29.804  0.00  0.00     0.028 H 
ENDBRANCH  33  35
BRANCH  33  39
ATOM     39  C13 non d ame     -31.570  14.716  28.418  0.00  0.00    -0.071 C 
ATOM     40  H16 non d ame     -30.864  14.985  27.632  0.00  0.00     0.028 H 
ATOM     41  H17 non d ame     -32.541  15.162  28.202  0.00  0.00     0.028 H 
ATOM     42  H18 non d ame     -31.206  15.085  29.377  0.00  0.00     0.028 H 
ENDBRANCH  33  39
ENDBRANCH   7  33
ENDBRANCH   4   7
ENDBRANCH   1   3
BRANCH   1  43
ATOM     43  C15 non d ame     -34.480   9.197  25.813  0.00  0.00     0.240 C 
ATOM     44  O5  non d ame     -35.528   9.469  25.324  0.00  0.00    -0.271 OA
ATOM     45  N6  non d ame     -33.454   8.471  25.012  0.00  0.00    -0.355 N 
ATOM     46  H46 non d ame     -32.558   8.239  25.415  0.00  0.00     0.162 HD
BRANCH  45  47
ATOM     47  C20 non d ame     -33.751   8.088  23.614  0.00  0.00     0.013 C 
ATOM     48  H30 non d ame     -34.803   8.302  23.425  0.00  0.00     0.072 H 
BRANCH  47  49
ATOM     49  C21 non d ame     -33.484   6.611  23.433  0.00  0.00    -0.038 C 
ATOM     50  H31 non d ame     -34.412   6.189  23.048  0.00  0.00     0.036 H 
ATOM     51  H32 non d ame     -32.570   6.549  22.842  0.00  0.00     0.036 H 
BRANCH  49  52
ATOM     52  C22 non d ame     -33.193   5.887  24.765  0.00  0.00     0.018 C 
ATOM     53  H33 non d ame     -32.243   5.374  24.621  0.00  0.00     0.048 H 
ATOM     54  H34 non d ame     -33.290   6.646  25.541  0.00  0.00     0.048 H 
BRANCH  52  55
ATOM     55  C23 non d ame     -34.227   4.781  25.115  0.00  0.00     0.259 C 
ATOM     56  O7  non d ame     -34.511   3.947  24.319  0.00  0.00    -0.265 OA
BRANCH  55  57
ATOM     57  O8  non d ame     -34.843   4.784  26.398  0.00  0.00    -0.317 OA
BRANCH  57  58
ATOM     58  C29 non d ame     -34.042   5.373  27.427  0.00  0.00     0.052 C 
ATOM     59  H47 non d ame     -33.299   4.620  27.689  0.00  0.00     0.082 H 
ATOM     60  H48 non d ame     -33.724   6.340  27.037  0.00  0.00     0.082 H 
BRANCH  58  61
ATOM     61  C35 non d ame     -34.951   5.617  28.661  0.00  0.00    -0.034 A 
ATOM     62  C30 non d ame     -34.442   5.450  29.945  0.00  0.00    -0.075 A 
ATOM     63  C31 non d ame     -35.259   5.669  31.053  0.00  0.00    -0.082 A 
ATOM     64  H49 non d ame     -33.404   5.148  30.083  0.00  0.00     0.084 H 
ATOM     65  C32 non d ame     -36.590   6.053  30.874  0.00  0.00    -0.083 A 
ATOM     66  H50 non d ame     -34.856   5.539  32.058  0.00  0.00     0.083 H 
ATOM     67  C33 non d ame     -37.095   6.214  29.591  0.00  0.00    -0.082 A 
ATOM     68  H51 non d ame     -37.235   6.226  31.736  0.00  0.00     0.083 H 
ATOM     69  C34 non d ame     -36.282   5.999  28.480  0.00  0.00    -0.075 A 
ATOM     70  H52 non d ame     -38.135   6.512  29.455  0.00  0.00     0.083 H 
ATOM     71  H53 non d ame     -36.685   6.129  27.476  0.00  0.00     0.084 H 
ENDBRANCH  58  61
ENDBRANCH  57  58
ENDBRANCH  55  57
ENDBRANCH  52  55
ENDBRANCH  49  52
ENDBRANCH  47  49
BRANCH  47  72
ATOM     72  C24 non d ame     -32.867   8.888  22.660  0.00  0.00    -0.039 C 
ATOM     73  H35 non d ame     -32.770   8.270  21.767  0.00  0.00     0.036 H 
ATOM     74  H36 non d ame     -33.329   9.873  22.593  0.00  0.00     0.036 H 
BRANCH  72  75
ATOM     75  C25 non d ame     -31.393   9.096  23.252  0.00  0.00    -0.001 C 
ATOM     76  C26 non d ame     -31.111  10.697  23.502  0.00  0.00    -0.035 C 
ATOM     77  C27 non d ame     -29.939  11.031  22.910  0.00  0.00     0.085 C 
ATOM     78  H38 non d ame     -31.847  11.294  22.965  0.00  0.00     0.036 H 
ATOM     79  H39 non d ame     -30.924  10.883  24.560  0.00  0.00     0.036 H 
ATOM     80  N5  non d ame     -29.560   9.885  22.004  0.00  0.00    -0.049 N 
ATOM     81  H40 non d ame     -30.161  11.908  22.301  0.00  0.00     0.075 H 
ATOM     82  H41 non d ame     -29.213  11.099  23.719  0.00  0.00     0.075 H 
ATOM     83  C28 non d ame     -30.495   8.644  22.442  0.00  0.00     0.193 C 
ATOM     84  H42 non d ame     -29.815  10.164  21.067  0.00  0.00     0.280 HD
ATOM     85  H43 non d ame     -28.600   9.657  22.219  0.00  0.00     0.280 HD
ATOM     86  H44 non d ame     -30.087   7.826  23.035  0.00  0.00     0.129 H 
ATOM     87  H37 non d ame     -31.182   8.420  24.081  0.00  0.00     0.046 H 
BRANCH  83  88
ATOM     88  O6  non d ame     -31.071   8.029  21.288  0.00  0.00    -0.369 OA
ATOM     89  H45 non d ame     -31.958   7.725  21.496  0.00  0.00     0.212 HD
ENDBRANCH  83  88
ENDBRANCH  72  75
ENDBRANCH  47  72
ENDBRANCH  45  47
ENDBRANCH   1  43
BRANCH   1  90
ATOM     90  C16 non d ame     -35.476   9.623  28.082  0.00  0.00    -0.035 C 
ATOM     91  H21 non d ame     -36.074  10.423  27.647  0.00  0.00     0.037 H 
ATOM     92  H22 non d ame     -35.841   8.596  28.060  0.00  0.00     0.037 H 
BRANCH  90  93
ATOM     93  C17 non d ame     -35.279   9.989  29.588  0.00  0.00    -0.059 C 
ATOM     94  H23 non d ame     -34.982  11.036  29.638  0.00  0.00     0.038 H 
BRANCH  93  95
ATOM     95  C18 non d ame     -36.597   9.827  30.411  0.00  0.00    -0.073 C 
ATOM     96  H24 non d ame     -36.738  10.701  31.046  0.00  0.00     0.028 H 
ATOM     97  H25 non d ame     -37.442   9.732  29.730  0.00  0.00     0.028 H 
ATOM     98  H26 non d ame     -36.529   8.934  31.032  0.00  0.00     0.028 H 
ENDBRANCH  93  95
BRANCH  93  99
ATOM     99  C19 non d ame     -34.145   9.166  30.206  0.00  0.00    -0.073 C 
ATOM    100  H27 non d ame     -33.570   8.686  29.414  0.00  0.00     0.028 H 
ATOM    101  H28 non d ame     -33.493   9.821  30.783  0.00  0.00     0.028 H 
ATOM    102  H29 non d ame     -34.566   8.404  30.863  0.00  0.00     0.028 H 
ENDBRANCH  93  99
ENDBRANCH  90  93
ENDBRANCH   1  90
TORSDOF 26
ENDMDL
