MODEL 1
REMARK VINA RESULT:      -7.2      0.000      0.000
REMARK  26 active torsions:
REMARK  status: ('A' for Active; 'I' for Inactive)
REMARK    1  A    between atoms: C2_2  and  C3_3 
REMARK    2  A    between atoms: C4_6  and  C5_7 
REMARK       I    between atoms: C5_7  and  N2_9 
REMARK    3  A    between atoms: N2_9  and  C6_10 
REMARK    4  A    between atoms: C6_10  and  C7_11 
REMARK    5  A    between atoms: C6_10  and  C8_13 
REMARK       I    between atoms: C7_11  and  N3_14 
REMARK    6  A    between atoms: N3_14  and  C9_15 
REMARK    7  A    between atoms: C9_15  and  C10_16 
REMARK    8  A    between atoms: C9_15  and  C11_18 
REMARK       I    between atoms: C10_16  and  N4_21 
REMARK    9  A    between atoms: C11_18  and  C12_19 
REMARK   10  A    between atoms: C11_18  and  C13_20 
REMARK   11  A    between atoms: N4_21  and  C14_22 
REMARK   12  A    between atoms: C14_22  and  C15_23 
REMARK   13  A    between atoms: C14_22  and  C16_25 
REMARK       I    between atoms: C15_23  and  N6_40 
REMARK   14  A    between atoms: C16_25  and  C17_26 
REMARK   15  A    between atoms: C17_26  and  C18_27 
REMARK   16  A    between atoms: C17_26  and  C19_28 
REMARK   17  A    between atoms: C20_29  and  C21_30 
REMARK   18  A    between atoms: C20_29  and  C24_33 
REMARK   19  A    between atoms: C20_29  and  N6_40 
REMARK   20  A    between atoms: C21_30  and  C22_31 
REMARK   21  A    between atoms: C22_31  and  C23_32 
REMARK   22  A    between atoms: C23_32  and  O8_43 
REMARK   23  A    between atoms: C24_33  and  C25_34 
REMARK   24  A    between atoms: C28_38  and  O6_39 
REMARK   25  A    between atoms: C29_42  and  O8_43 
REMARK   26  A    between atoms: C29_42  and  C35_49 
ROOT
ATOM      1  C14 non d ame     -31.213  14.099  24.571  0.00  0.00     0.089 C 
ATOM      2  H20 non d ame     -30.212  13.683  24.679  0.00  0.00     0.087 H 
ENDROOT
BRANCH   1   3
ATOM      3  N4  non d ame     -32.164  13.024  24.814  0.00  0.00    -0.346 N 
ATOM      4  C10 non d ame     -31.910  12.016  25.906  0.00  0.00     0.241 C 
ATOM      5  O4  non d ame     -30.933  12.089  26.576  0.00  0.00    -0.271 OA
ATOM      6  H19 non d ame     -32.988  12.978  24.232  0.00  0.00     0.163 HD
BRANCH   4   7
ATOM      7  C9  non d ame     -32.907  10.913  26.148  0.00  0.00     0.092 C 
ATOM      8  H11 non d ame     -33.257  10.965  27.179  0.00  0.00     0.088 H 
BRANCH   7   9
ATOM      9  N3  non d ame     -34.075  11.111  25.283  0.00  0.00    -0.346 N 
ATOM     10  C7  non d ame     -35.364  11.390  25.867  0.00  0.00     0.240 C 
ATOM     11  O3  non d ame     -35.480  11.458  27.030  0.00  0.00    -0.271 OA
ATOM     12  H10 non d ame     -33.990  11.054  24.279  0.00  0.00     0.163 HD
BRANCH  10  13
ATOM     13  C6  non d ame     -36.603  11.598  24.942  0.00  0.00     0.086 C 
ATOM     14  H6  non d ame     -37.548  11.461  25.467  0.00  0.00     0.086 H 
BRANCH  13  15
ATOM     15  N2  non d ame     -36.597  12.963  24.444  0.00  0.00    -0.343 N 
ATOM     16  C5  non d ame     -37.546  13.935  24.992  0.00  0.00     0.273 C 
ATOM     17  O2  non d ame     -38.312  13.607  25.831  0.00  0.00    -0.266 OA
ATOM     18  H5  non d ame     -35.941  13.234  23.726  0.00  0.00     0.163 HD
BRANCH  16  19
ATOM     19  C4  non d ame     -37.550  15.382  24.477  0.00  0.00     0.154 A 
ATOM     20  C1  non d ame     -37.039  16.540  25.145  0.00  0.00    -0.017 A 
ATOM     21  C2  non d ame     -37.283  17.610  24.256  0.00  0.00     0.077 A 
ATOM     22  H1  non d ame     -36.565  16.595  26.126  0.00  0.00     0.091 H 
ATOM     23  O1  non d ame     -37.863  17.115  23.203  0.00  0.00    -0.218 OA
ATOM     24  N1  non d ame     -38.030  15.816  23.308  0.00  0.00    -0.123 NA
BRANCH  21  25
ATOM     25  C3  non d ame     -36.929  19.073  24.488  0.00  0.00    -0.029 C 
ATOM     26  H2  non d ame     -36.020  19.137  25.087  0.00  0.00     0.036 H 
ATOM     27  H3  non d ame     -36.767  19.564  23.529  0.00  0.00     0.036 H 
ATOM     28  H4  non d ame     -37.746  19.566  25.015  0.00  0.00     0.036 H 
ENDBRANCH  21  25
ENDBRANCH  16  19
ENDBRANCH  13  15
BRANCH  13  29
ATOM     29  C8  non d ame     -36.542  10.627  23.790  0.00  0.00    -0.049 C 
ATOM     30  H7  non d ame     -37.241   9.810  23.966  0.00  0.00     0.030 H 
ATOM     31  H8  non d ame     -36.809  11.142  22.867  0.00  0.00     0.030 H 
ATOM     32  H9  non d ame     -35.530  10.229  23.704  0.00  0.00     0.030 H 
ENDBRANCH  13  29
ENDBRANCH  10  13
ENDBRANCH   7   9
BRANCH   7  33
ATOM     33  C11 non d ame     -32.250   9.540  25.820  0.00  0.00    -0.033 C 
ATOM     34  H12 non d ame     -31.197   9.606  26.093  0.00  0.00     0.042 H 
BRANCH  33  35
ATOM     35  C12 non d ame     -32.883   8.391  26.667  0.00  0.00    -0.071 C 
ATOM     36  H13 non d ame     -32.299   8.245  27.576  0.00  0.00     0.028 H 
ATOM     37  H14 non d ame     -33.906   8.656  26.931  0.00  0.00     0.028 H 
ATOM     38  H15 non d ame     -32.884   7.469  26.085  0.00  0.00     0.028 H 
ENDBRANCH  33  35
BRANCH  33  39
ATOM     39  C13 non d ame     -32.335   9.229  24.291  0.00  0.00    -0.071 C 
ATOM     40  H16 non d ame     -33.221   8.625  24.092  0.00  0.00     0.028 H 
ATOM     41  H17 non d ame     -32.399  10.164  23.734  0.00  0.00     0.028 H 
ATOM     42  H18 non d ame     -31.444   8.683  23.982  0.00  0.00     0.028 H 
ENDBRANCH  33  39
ENDBRANCH   7  33
ENDBRANCH   4   7
ENDBRANCH   1   3
BRANCH   1  43
ATOM     43  C15 non d ame     -31.488  15.242  25.590  0.00  0.00     0.240 C 
ATOM     44  O5  non d ame     -31.099  16.342  25.363  0.00  0.00    -0.271 OA
ATOM     45  N6  non d ame     -32.243  14.967  26.845  0.00  0.00    -0.355 N 
ATOM     46  H46 non d ame     -32.583  14.038  27.046  0.00  0.00     0.162 HD
BRANCH  45  47
ATOM     47  C20 non d ame     -32.497  16.065  27.803  0.00  0.00     0.013 C 
ATOM     48  H30 non d ame     -31.823  16.885  27.559  0.00  0.00     0.072 H 
BRANCH  47  49
ATOM     49  C21 non d ame     -32.228  15.574  29.208  0.00  0.00    -0.038 C 
ATOM     50  H31 non d ame     -31.815  16.429  29.744  0.00  0.00     0.036 H 
ATOM     51  H32 non d ame     -33.159  15.118  29.543  0.00  0.00     0.036 H 
BRANCH  49  52
ATOM     52  C22 non d ame     -31.154  14.466  29.260  0.00  0.00     0.018 C 
ATOM     53  H33 non d ame     -31.045  14.112  28.235  0.00  0.00     0.048 H 
ATOM     54  H34 non d ame     -30.302  14.904  29.779  0.00  0.00     0.048 H 
BRANCH  52  55
ATOM     55  C23 non d ame     -31.575  13.226  30.098  0.00  0.00     0.259 C 
ATOM     56  O7  non d ame     -30.913  12.867  31.017  0.00  0.00    -0.265 OA
BRANCH  55  57
ATOM     57  O8  non d ame     -32.755  12.515  29.746  0.00  0.00    -0.317 OA
BRANCH  57  58
ATOM     58  C29 non d ame     -32.600  11.093  29.748  0.00  0.00     0.052 C 
ATOM     59  H47 non d ame     -32.825  10.770  28.731  0.00  0.00     0.082 H 
ATOM     60  H48 non d ame     -31.616  10.903  30.174  0.00  0.00     0.082 H 
BRANCH  58  61
ATOM     61  C35 non d ame     -33.671  10.496  30.700  0.00  0.00    -0.034 A 
ATOM     62  C30 non d ame     -34.177   9.221  30.467  0.00  0.00    -0.075 A 
ATOM     63  C31 non d ame     -35.139   8.684  31.321  0.00  0.00    -0.082 A 
ATOM     64  H49 non d ame     -33.821   8.642  29.614  0.00  0.00     0.084 H 
ATOM     65  C32 non d ame     -35.596   9.429  32.412  0.00  0.00    -0.083 A 
ATOM     66  H50 non d ame     -35.532   7.685  31.137  0.00  0.00     0.083 H 
ATOM     67  C33 non d ame     -35.090  10.702  32.639  0.00  0.00    -0.082 A 
ATOM     68  H51 non d ame     -36.347   9.017  33.086  0.00  0.00     0.083 H 
ATOM     69  C34 non d ame     -34.127  11.241  31.788  0.00  0.00    -0.075 A 
ATOM     70  H52 non d ame     -35.451  11.281  33.489  0.00  0.00     0.083 H 
ATOM     71  H53 non d ame     -33.734  12.241  31.973  0.00  0.00     0.084 H 
ENDBRANCH  58  61
ENDBRANCH  57  58
ENDBRANCH  55  57
ENDBRANCH  52  55
ENDBRANCH  49  52
ENDBRANCH  47  49
BRANCH  47  72
ATOM     72  C24 non d ame     -33.950  16.521  27.692  0.00  0.00    -0.039 C 
ATOM     73  H35 non d ame     -34.420  15.828  26.994  0.00  0.00     0.036 H 
ATOM     74  H36 non d ame     -34.312  16.590  28.718  0.00  0.00     0.036 H 
BRANCH  72  75
ATOM     75  C25 non d ame     -34.064  17.985  27.052  0.00  0.00    -0.001 C 
ATOM     76  C26 non d ame     -32.618  18.761  27.166  0.00  0.00    -0.035 C 
ATOM     77  C27 non d ame     -32.819  19.977  27.727  0.00  0.00     0.085 C 
ATOM     78  H38 non d ame     -31.977  18.251  27.885  0.00  0.00     0.036 H 
ATOM     79  H39 non d ame     -32.241  18.998  26.171  0.00  0.00     0.036 H 
ATOM     80  N5  non d ame     -34.214  19.973  28.304  0.00  0.00    -0.049 N 
ATOM     81  H40 non d ame     -32.097  20.045  28.541  0.00  0.00     0.075 H 
ATOM     82  H41 non d ame     -32.778  20.688  26.902  0.00  0.00     0.075 H 
ATOM     83  C28 non d ame     -34.957  18.693  27.660  0.00  0.00     0.193 C 
ATOM     84  H42 non d ame     -34.112  19.820  29.297  0.00  0.00     0.280 HD
ATOM     85  H43 non d ame     -34.665  20.811  27.966  0.00  0.00     0.280 HD
ATOM     86  H44 non d ame     -35.687  18.821  26.860  0.00  0.00     0.129 H 
ATOM     87  H37 non d ame     -34.544  17.972  26.073  0.00  0.00     0.046 H 
BRANCH  83  88
ATOM     88  O6  non d ame     -35.632  17.951  28.677  0.00  0.00    -0.369 OA
ATOM     89  H45 non d ame     -36.318  18.497  29.069  0.00  0.00     0.212 HD
ENDBRANCH  83  88
ENDBRANCH  72  75
ENDBRANCH  47  72
ENDBRANCH  45  47
ENDBRANCH   1  43
BRANCH   1  90
ATOM     90  C16 non d ame     -31.404  14.619  23.155  0.00  0.00    -0.035 C 
ATOM     91  H21 non d ame     -32.007  13.865  22.649  0.00  0.00     0.037 H 
ATOM     92  H22 non d ame     -31.786  15.634  23.270  0.00  0.00     0.037 H 
BRANCH  90  93
ATOM     93  C17 non d ame     -30.074  14.736  22.346  0.00  0.00    -0.059 C 
ATOM     94  H23 non d ame     -29.349  15.254  22.974  0.00  0.00     0.038 H 
BRANCH  93  95
ATOM     95  C18 non d ame     -29.478  13.338  21.985  0.00  0.00    -0.073 C 
ATOM     96  H24 non d ame     -30.026  12.916  21.143  0.00  0.00     0.028 H 
ATOM     97  H25 non d ame     -28.428  13.448  21.716  0.00  0.00     0.028 H 
ATOM     98  H26 non d ame     -29.565  12.674  22.845  0.00  0.00     0.028 H 
ENDBRANCH  93  95
BRANCH  93  99
ATOM     99  C19 non d ame     -30.272  15.585  21.087  0.00  0.00    -0.073 C 
ATOM    100  H27 non d ame     -29.369  15.548  20.477  0.00  0.00     0.028 H 
ATOM    101  H28 non d ame     -31.114  15.194  20.514  0.00  0.00     0.028 H 
ATOM    102  H29 non d ame     -30.477  16.616  21.372  0.00  0.00     0.028 H 
ENDBRANCH  93  99
ENDBRANCH  90  93
ENDBRANCH   1  90
TORSDOF 26
ENDMDL
MODEL 2
REMARK VINA RESULT:      -7.0      2.889      7.239
REMARK  26 active torsions:
REMARK  status: ('A' for Active; 'I' for Inactive)
REMARK    1  A    between atoms: C2_2  and  C3_3 
REMARK    2  A    between atoms: C4_6  and  C5_7 
REMARK       I    between atoms: C5_7  and  N2_9 
REMARK    3  A    between atoms: N2_9  and  C6_10 
REMARK    4  A    between atoms: C6_10  and  C7_11 
REMARK    5  A    between atoms: C6_10  and  C8_13 
REMARK       I    between atoms: C7_11  and  N3_14 
REMARK    6  A    between atoms: N3_14  and  C9_15 
REMARK    7  A    between atoms: C9_15  and  C10_16 
REMARK    8  A    between atoms: C9_15  and  C11_18 
REMARK       I    between atoms: C10_16  and  N4_21 
REMARK    9  A    between atoms: C11_18  and  C12_19 
REMARK   10  A    between atoms: C11_18  and  C13_20 
REMARK   11  A    between atoms: N4_21  and  C14_22 
REMARK   12  A    between atoms: C14_22  and  C15_23 
REMARK   13  A    between atoms: C14_22  and  C16_25 
REMARK       I    between atoms: C15_23  and  N6_40 
REMARK   14  A    between atoms: C16_25  and  C17_26 
REMARK   15  A    between atoms: C17_26  and  C18_27 
REMARK   16  A    between atoms: C17_26  and  C19_28 
REMARK   17  A    between atoms: C20_29  and  C21_30 
REMARK   18  A    between atoms: C20_29  and  C24_33 
REMARK   19  A    between atoms: C20_29  and  N6_40 
REMARK   20  A    between atoms: C21_30  and  C22_31 
REMARK   21  A    between atoms: C22_31  and  C23_32 
REMARK   22  A    between atoms: C23_32  and  O8_43 
REMARK   23  A    between atoms: C24_33  and  C25_34 
REMARK   24  A    between atoms: C28_38  and  O6_39 
REMARK   25  A    between atoms: C29_42  and  O8_43 
REMARK   26  A    between atoms: C29_42  and  C35_49 
ROOT
ATOM      1  C14 non d ame     -32.417   9.389  24.577  0.00  0.00     0.089 C 
ATOM      2  H20 non d ame     -31.996   8.498  25.043  0.00  0.00     0.087 H 
ENDROOT
BRANCH   1   3
ATOM      3  N4  non d ame     -33.729   9.613  25.164  0.00  0.00    -0.346 N 
ATOM      4  C10 non d ame     -34.543   8.451  25.676  0.00  0.00     0.241 C 
ATOM      5  O4  non d ame     -34.121   7.344  25.601  0.00  0.00    -0.271 OA
ATOM      6  H19 non d ame     -34.071  10.562  25.216  0.00  0.00     0.163 HD
BRANCH   4   7
ATOM      7  C9  non d ame     -35.897   8.701  26.286  0.00  0.00     0.092 C 
ATOM      8  H11 non d ame     -36.370   7.745  26.513  0.00  0.00     0.088 H 
BRANCH   7   9
ATOM      9  N3  non d ame     -35.737   9.417  27.554  0.00  0.00    -0.346 N 
ATOM     10  C7  non d ame     -36.352   8.904  28.754  0.00  0.00     0.240 C 
ATOM     11  O3  non d ame     -36.980   7.917  28.716  0.00  0.00    -0.271 OA
ATOM     12  H10 non d ame     -35.200  10.271  27.602  0.00  0.00     0.163 HD
BRANCH  10  13
ATOM     13  C6  non d ame     -36.181   9.673  30.101  0.00  0.00     0.086 C 
ATOM     14  H6  non d ame     -35.927   9.016  30.932  0.00  0.00     0.086 H 
BRANCH  13  15
ATOM     15  N2  non d ame     -35.084  10.618  29.968  0.00  0.00    -0.343 N 
ATOM     16  C5  non d ame     -33.881  10.446  30.785  0.00  0.00     0.273 C 
ATOM     17  O2  non d ame     -33.806   9.545  31.547  0.00  0.00    -0.266 OA
ATOM     18  H5  non d ame     -35.158  11.386  29.316  0.00  0.00     0.163 HD
BRANCH  16  19
ATOM     19  C4  non d ame     -32.713  11.436  30.653  0.00  0.00     0.154 A 
ATOM     20  C1  non d ame     -32.726  12.706  29.993  0.00  0.00    -0.017 A 
ATOM     21  C2  non d ame     -31.419  13.214  30.158  0.00  0.00     0.077 A 
ATOM     22  H1  non d ame     -33.557  13.185  29.475  0.00  0.00     0.091 H 
ATOM     23  O1  non d ame     -30.742  12.333  30.835  0.00  0.00    -0.218 OA
ATOM     24  N1  non d ame     -31.476  11.287  31.136  0.00  0.00    -0.123 NA
BRANCH  21  25
ATOM     25  C3  non d ame     -30.898  14.548  29.638  0.00  0.00    -0.029 C 
ATOM     26  H2  non d ame     -30.525  14.422  28.622  0.00  0.00     0.036 H 
ATOM     27  H3  non d ame     -31.707  15.279  29.640  0.00  0.00     0.036 H 
ATOM     28  H4  non d ame     -30.091  14.898  30.281  0.00  0.00     0.036 H 
ENDBRANCH  21  25
ENDBRANCH  16  19
ENDBRANCH  13  15
BRANCH  13  29
ATOM     29  C8  non d ame     -37.457  10.406  30.430  0.00  0.00    -0.049 C 
ATOM     30  H7  non d ame     -37.648  10.338  31.501  0.00  0.00     0.030 H 
ATOM     31  H8  non d ame     -37.359  11.452  30.144  0.00  0.00     0.030 H 
ATOM     32  H9  non d ame     -38.286   9.955  29.884  0.00  0.00     0.030 H 
ENDBRANCH  13  29
ENDBRANCH  10  13
ENDBRANCH   7   9
BRANCH   7  33
ATOM     33  C11 non d ame     -36.754   9.561  25.311  0.00  0.00    -0.033 C 
ATOM     34  H12 non d ame     -36.191   9.667  24.384  0.00  0.00     0.042 H 
BRANCH  33  35
ATOM     35  C12 non d ame     -38.101   8.855  24.964  0.00  0.00    -0.071 C 
ATOM     36  H13 non d ame     -38.412   8.233  25.803  0.00  0.00     0.028 H 
ATOM     37  H14 non d ame     -38.865   9.607  24.766  0.00  0.00     0.028 H 
ATOM     38  H15 non d ame     -37.967   8.231  24.081  0.00  0.00     0.028 H 
ENDBRANCH  33  35
BRANCH  33  39
ATOM     39  C13 non d ame     -36.997  10.990  25.894  0.00  0.00    -0.071 C 
ATOM     40  H16 non d ame     -38.067  11.154  26.021  0.00  0.00     0.028 H 
ATOM     41  H17 non d ame     -36.499  11.079  26.860  0.00  0.00     0.028 H 
ATOM     42  H18 non d ame     -36.593  11.736  25.209  0.00  0.00     0.028 H 
ENDBRANCH  33  39
ENDBRANCH   7  33
ENDBRANCH   4   7
ENDBRANCH   1   3
BRANCH   1  43
ATOM     43  C15 non d ame     -31.542  10.651  24.826  0.00  0.00     0.240 C 
ATOM     44  O5  non d ame     -30.815  10.691  25.765  0.00  0.00    -0.271 OA
ATOM     45  N6  non d ame     -31.603  11.808  23.887  0.00  0.00    -0.355 N 
ATOM     46  H46 non d ame     -32.213  11.784  23.083  0.00  0.00     0.162 HD
BRANCH  45  47
ATOM     47  C20 non d ame     -30.764  13.000  24.136  0.00  0.00     0.013 C 
ATOM     48  H30 non d ame     -30.017  12.733  24.884  0.00  0.00     0.072 H 
BRANCH  47  49
ATOM     49  C21 non d ame     -31.633  14.124  24.652  0.00  0.00    -0.038 C 
ATOM     50  H31 non d ame     -31.057  15.037  24.498  0.00  0.00     0.036 H 
ATOM     51  H32 non d ame     -32.598  13.999  24.160  0.00  0.00     0.036 H 
BRANCH  49  52
ATOM     52  C22 non d ame     -31.901  14.027  26.169  0.00  0.00     0.018 C 
ATOM     53  H33 non d ame     -31.475  13.075  26.484  0.00  0.00     0.048 H 
ATOM     54  H34 non d ame     -31.528  14.959  26.595  0.00  0.00     0.048 H 
BRANCH  52  55
ATOM     55  C23 non d ame     -33.410  13.963  26.536  0.00  0.00     0.259 C 
ATOM     56  O7  non d ame     -33.957  12.915  26.656  0.00  0.00    -0.265 OA
BRANCH  55  57
ATOM     57  O8  non d ame     -34.135  15.173  26.717  0.00  0.00    -0.317 OA
BRANCH  57  58
ATOM     58  C29 non d ame     -33.679  15.967  27.816  0.00  0.00     0.052 C 
ATOM     59  H47 non d ame     -34.512  16.003  28.519  0.00  0.00     0.082 H 
ATOM     60  H48 non d ame     -32.728  15.531  28.120  0.00  0.00     0.082 H 
BRANCH  58  61
ATOM     61  C35 non d ame     -33.416  17.404  27.292  0.00  0.00    -0.034 A 
ATOM     62  C30 non d ame     -32.749  18.326  28.092  0.00  0.00    -0.075 A 
ATOM     63  C31 non d ame     -32.512  19.616  27.622  0.00  0.00    -0.082 A 
ATOM     64  H49 non d ame     -32.412  18.037  29.088  0.00  0.00     0.084 H 
ATOM     65  C32 non d ame     -32.947  19.985  26.346  0.00  0.00    -0.083 A 
ATOM     66  H50 non d ame     -31.987  20.336  28.251  0.00  0.00     0.083 H 
ATOM     67  C33 non d ame     -33.615  19.063  25.552  0.00  0.00    -0.082 A 
ATOM     68  H51 non d ame     -32.765  20.992  25.970  0.00  0.00     0.083 H 
ATOM     69  C34 non d ame     -33.852  17.771  26.018  0.00  0.00    -0.075 A 
ATOM     70  H52 non d ame     -33.956  19.354  24.558  0.00  0.00     0.083 H 
ATOM     71  H53 non d ame     -34.377  17.052  25.388  0.00  0.00     0.084 H 
ENDBRANCH  58  61
ENDBRANCH  57  58
ENDBRANCH  55  57
ENDBRANCH  52  55
ENDBRANCH  49  52
ENDBRANCH  47  49
BRANCH  47  72
ATOM     72  C24 non d ame     -30.085  13.434  22.839  0.00  0.00    -0.039 C 
ATOM     73  H35 non d ame     -29.027  13.204  22.975  0.00  0.00     0.036 H 
ATOM     74  H36 non d ame     -30.649  12.952  22.041  0.00  0.00     0.036 H 
BRANCH  72  75
ATOM     75  C25 non d ame     -30.199  15.015  22.611  0.00  0.00    -0.001 C 
ATOM     76  C26 non d ame     -31.129  15.324  21.290  0.00  0.00    -0.035 C 
ATOM     77  C27 non d ame     -30.457  16.168  20.471  0.00  0.00     0.085 C 
ATOM     78  H38 non d ame     -31.238  14.421  20.690  0.00  0.00     0.036 H 
ATOM     79  H39 non d ame     -32.010  15.897  21.579  0.00  0.00     0.036 H 
ATOM     80  N5  non d ame     -29.026  16.205  20.952  0.00  0.00    -0.049 N 
ATOM     81  H40 non d ame     -30.489  15.705  19.485  0.00  0.00     0.075 H 
ATOM     82  H41 non d ame     -30.909  17.147  20.628  0.00  0.00     0.075 H 
ATOM     83  C28 non d ame     -29.037  15.546  22.426  0.00  0.00     0.193 C 
ATOM     84  H42 non d ame     -28.502  15.602  20.334  0.00  0.00     0.280 HD
ATOM     85  H43 non d ame     -28.779  17.180  21.037  0.00  0.00     0.280 HD
ATOM     86  H44 non d ame     -28.963  16.175  23.314  0.00  0.00     0.129 H 
ATOM     87  H37 non d ame     -30.449  15.548  23.528  0.00  0.00     0.046 H 
BRANCH  83  88
ATOM     88  O6  non d ame     -27.982  14.590  22.546  0.00  0.00    -0.369 OA
ATOM     89  H45 non d ame     -28.026  13.971  21.813  0.00  0.00     0.212 HD
ENDBRANCH  83  88
ENDBRANCH  72  75
ENDBRANCH  47  72
ENDBRANCH  45  47
ENDBRANCH   1  43
BRANCH   1  90
ATOM     90  C16 non d ame     -32.574   9.163  23.082  0.00  0.00    -0.035 C 
ATOM     91  H21 non d ame     -33.574   8.749  22.956  0.00  0.00     0.037 H 
ATOM     92  H22 non d ame     -32.315  10.115  22.617  0.00  0.00     0.037 H 
BRANCH  90  93
ATOM     93  C17 non d ame     -31.584   8.104  22.501  0.00  0.00    -0.059 C 
ATOM     94  H23 non d ame     -32.056   7.654  21.628  0.00  0.00     0.038 H 
BRANCH  93  95
ATOM     95  C18 non d ame     -30.238   8.749  22.035  0.00  0.00    -0.073 C 
ATOM     96  H24 non d ame     -30.367   9.181  21.044  0.00  0.00     0.028 H 
ATOM     97  H25 non d ame     -29.948   9.530  22.737  0.00  0.00     0.028 H 
ATOM     98  H26 non d ame     -29.462   7.984  22.001  0.00  0.00     0.028 H 
ENDBRANCH  93  95
BRANCH  93  99
ATOM     99  C19 non d ame     -31.329   6.982  23.510  0.00  0.00    -0.073 C 
ATOM    100  H27 non d ame     -30.485   7.250  24.147  0.00  0.00     0.028 H 
ATOM    101  H28 non d ame     -32.217   6.838  24.126  0.00  0.00     0.028 H 
ATOM    102  H29 non d ame     -31.104   6.058  22.978  0.00  0.00     0.028 H 
ENDBRANCH  93  99
ENDBRANCH  90  93
ENDBRANCH   1  90
TORSDOF 26
ENDMDL
MODEL 3
REMARK VINA RESULT:      -6.9      2.886      7.056
REMARK  26 active torsions:
REMARK  status: ('A' for Active; 'I' for Inactive)
REMARK    1  A    between atoms: C2_2  and  C3_3 
REMARK    2  A    between atoms: C4_6  and  C5_7 
REMARK       I    between atoms: C5_7  and  N2_9 
REMARK    3  A    between atoms: N2_9  and  C6_10 
REMARK    4  A    between atoms: C6_10  and  C7_11 
REMARK    5  A    between atoms: C6_10  and  C8_13 
REMARK       I    between atoms: C7_11  and  N3_14 
REMARK    6  A    between atoms: N3_14  and  C9_15 
REMARK    7  A    between atoms: C9_15  and  C10_16 
REMARK    8  A    between atoms: C9_15  and  C11_18 
REMARK       I    between atoms: C10_16  and  N4_21 
REMARK    9  A    between atoms: C11_18  and  C12_19 
REMARK   10  A    between atoms: C11_18  and  C13_20 
REMARK   11  A    between atoms: N4_21  and  C14_22 
REMARK   12  A    between atoms: C14_22  and  C15_23 
REMARK   13  A    between atoms: C14_22  and  C16_25 
REMARK       I    between atoms: C15_23  and  N6_40 
REMARK   14  A    between atoms: C16_25  and  C17_26 
REMARK   15  A    between atoms: C17_26  and  C18_27 
REMARK   16  A    between atoms: C17_26  and  C19_28 
REMARK   17  A    between atoms: C20_29  and  C21_30 
REMARK   18  A    between atoms: C20_29  and  C24_33 
REMARK   19  A    between atoms: C20_29  and  N6_40 
REMARK   20  A    between atoms: C21_30  and  C22_31 
REMARK   21  A    between atoms: C22_31  and  C23_32 
REMARK   22  A    between atoms: C23_32  and  O8_43 
REMARK   23  A    between atoms: C24_33  and  C25_34 
REMARK   24  A    between atoms: C28_38  and  O6_39 
REMARK   25  A    between atoms: C29_42  and  O8_43 
REMARK   26  A    between atoms: C29_42  and  C35_49 
ROOT
ATOM      1  C14 non d ame     -31.065  14.719  23.906  0.00  0.00     0.089 C 
ATOM      2  H20 non d ame     -29.980  14.815  23.962  0.00  0.00     0.087 H 
ENDROOT
BRANCH   1   3
ATOM      3  N4  non d ame     -31.403  13.348  24.256  0.00  0.00    -0.346 N 
ATOM      4  C10 non d ame     -30.695  12.195  23.588  0.00  0.00     0.241 C 
ATOM      5  O4  non d ame     -29.858  12.397  22.771  0.00  0.00    -0.271 OA
ATOM      6  H19 non d ame     -32.119  13.197  24.952  0.00  0.00     0.163 HD
BRANCH   4   7
ATOM      7  C9  non d ame     -31.053  10.782  23.966  0.00  0.00     0.092 C 
ATOM      8  H11 non d ame     -30.358  10.427  24.727  0.00  0.00     0.088 H 
BRANCH   7   9
ATOM      9  N3  non d ame     -32.394  10.759  24.558  0.00  0.00    -0.346 N 
ATOM     10  C7  non d ame     -32.551  10.554  25.977  0.00  0.00     0.240 C 
ATOM     11  O3  non d ame     -31.610  10.405  26.657  0.00  0.00    -0.271 OA
ATOM     12  H10 non d ame     -33.215  10.885  23.984  0.00  0.00     0.163 HD
BRANCH  10  13
ATOM     13  C6  non d ame     -33.981  10.527  26.601  0.00  0.00     0.086 C 
ATOM     14  H6  non d ame     -34.705  10.006  25.975  0.00  0.00     0.086 H 
BRANCH  13  15
ATOM     15  N2  non d ame     -33.930   9.809  27.864  0.00  0.00    -0.343 N 
ATOM     16  C5  non d ame     -35.052   8.950  28.251  0.00  0.00     0.273 C 
ATOM     17  O2  non d ame     -35.991   8.846  27.540  0.00  0.00    -0.266 OA
ATOM     18  H5  non d ame     -33.125   9.906  28.466  0.00  0.00     0.163 HD
BRANCH  16  19
ATOM     19  C4  non d ame     -35.011   8.184  29.582  0.00  0.00     0.154 A 
ATOM     20  C1  non d ame     -34.951   6.766  29.762  0.00  0.00    -0.017 A 
ATOM     21  C2  non d ame     -34.934   6.578  31.162  0.00  0.00     0.077 A 
ATOM     22  H1  non d ame     -34.924   5.992  28.995  0.00  0.00     0.091 H 
ATOM     23  O1  non d ame     -34.978   7.756  31.712  0.00  0.00    -0.218 OA
ATOM     24  N1  non d ame     -35.024   8.709  30.811  0.00  0.00    -0.123 NA
BRANCH  21  25
ATOM     25  C3  non d ame     -34.873   5.242  31.892  0.00  0.00    -0.029 C 
ATOM     26  H2  non d ame     -35.593   4.554  31.450  0.00  0.00     0.036 H 
ATOM     27  H3  non d ame     -33.871   4.825  31.803  0.00  0.00     0.036 H 
ATOM     28  H4  non d ame     -35.113   5.391  32.944  0.00  0.00     0.036 H 
ENDBRANCH  21  25
ENDBRANCH  16  19
ENDBRANCH  13  15
BRANCH  13  29
ATOM     29  C8  non d ame     -34.459  11.939  26.828  0.00  0.00    -0.049 C 
ATOM     30  H7  non d ame     -35.198  11.947  27.630  0.00  0.00     0.030 H 
ATOM     31  H8  non d ame     -33.615  12.568  27.106  0.00  0.00     0.030 H 
ATOM     32  H9  non d ame     -34.912  12.321  25.913  0.00  0.00     0.030 H 
ENDBRANCH  13  29
ENDBRANCH  10  13
ENDBRANCH   7   9
BRANCH   7  33
ATOM     33  C11 non d ame     -31.036   9.885  22.693  0.00  0.00    -0.033 C 
ATOM     34  H12 non d ame     -30.991  10.545  21.827  0.00  0.00     0.042 H 
BRANCH  33  35
ATOM     35  C12 non d ame     -29.768   8.976  22.656  0.00  0.00    -0.071 C 
ATOM     36  H13 non d ame     -29.242   9.047  23.608  0.00  0.00     0.028 H 
ATOM     37  H14 non d ame     -30.067   7.943  22.482  0.00  0.00     0.028 H 
ATOM     38  H15 non d ame     -29.109   9.305  21.852  0.00  0.00     0.028 H 
ENDBRANCH  33  35
BRANCH  33  39
ATOM     39  C13 non d ame     -32.344   9.037  22.589  0.00  0.00    -0.071 C 
ATOM     40  H16 non d ame     -32.129   8.003  22.857  0.00  0.00     0.028 H 
ATOM     41  H17 non d ame     -33.094   9.441  23.269  0.00  0.00     0.028 H 
ATOM     42  H18 non d ame     -32.722   9.077  21.567  0.00  0.00     0.028 H 
ENDBRANCH  33  39
ENDBRANCH   7  33
ENDBRANCH   4   7
ENDBRANCH   1   3
BRANCH   1  43
ATOM     43  C15 non d ame     -31.790  15.675  24.897  0.00  0.00     0.240 C 
ATOM     44  O5  non d ame     -32.071  16.778  24.555  0.00  0.00    -0.271 OA
ATOM     45  N6  non d ame     -32.142  15.212  26.269  0.00  0.00    -0.355 N 
ATOM     46  H46 non d ame     -31.913  14.276  26.570  0.00  0.00     0.162 HD
BRANCH  45  47
ATOM     47  C20 non d ame     -32.833  16.133  27.198  0.00  0.00     0.013 C 
ATOM     48  H30 non d ame     -33.855  16.262  26.844  0.00  0.00     0.072 H 
BRANCH  47  49
ATOM     49  C21 non d ame     -32.116  17.464  27.207  0.00  0.00    -0.038 C 
ATOM     50  H31 non d ame     -31.271  17.340  27.884  0.00  0.00     0.036 H 
ATOM     51  H32 non d ame     -31.944  17.712  26.160  0.00  0.00     0.036 H 
BRANCH  49  52
ATOM     52  C22 non d ame     -32.979  18.605  27.790  0.00  0.00     0.018 C 
ATOM     53  H33 non d ame     -33.927  18.146  28.067  0.00  0.00     0.048 H 
ATOM     54  H34 non d ame     -32.361  19.082  28.552  0.00  0.00     0.048 H 
BRANCH  52  55
ATOM     55  C23 non d ame     -33.325  19.717  26.762  0.00  0.00     0.259 C 
ATOM     56  O7  non d ame     -32.605  19.933  25.841  0.00  0.00    -0.265 OA
BRANCH  55  57
ATOM     57  O8  non d ame     -34.509  20.485  26.939  0.00  0.00    -0.317 OA
BRANCH  57  58
ATOM     58  C29 non d ame     -35.714  19.777  26.636  0.00  0.00     0.052 C 
ATOM     59  H47 non d ame     -36.172  20.315  25.806  0.00  0.00     0.082 H 
ATOM     60  H48 non d ame     -35.420  18.734  26.514  0.00  0.00     0.082 H 
BRANCH  58  61
ATOM     61  C35 non d ame     -36.653  19.881  27.867  0.00  0.00    -0.034 A 
ATOM     62  C30 non d ame     -37.567  20.925  27.960  0.00  0.00    -0.075 A 
ATOM     63  C31 non d ame     -38.410  21.019  29.066  0.00  0.00    -0.082 A 
ATOM     64  H49 non d ame     -37.623  21.671  27.166  0.00  0.00     0.084 H 
ATOM     65  C32 non d ame     -38.335  20.064  30.084  0.00  0.00    -0.083 A 
ATOM     66  H50 non d ame     -39.127  21.838  29.135  0.00  0.00     0.083 H 
ATOM     67  C33 non d ame     -37.419  19.026  29.989  0.00  0.00    -0.082 A 
ATOM     68  H51 non d ame     -38.991  20.130  30.952  0.00  0.00     0.083 H 
ATOM     69  C34 non d ame     -36.576  18.927  28.884  0.00  0.00    -0.075 A 
ATOM     70  H52 non d ame     -37.362  18.284  30.785  0.00  0.00     0.083 H 
ATOM     71  H53 non d ame     -35.860  18.107  28.816  0.00  0.00     0.084 H 
ENDBRANCH  58  61
ENDBRANCH  57  58
ENDBRANCH  55  57
ENDBRANCH  52  55
ENDBRANCH  49  52
ENDBRANCH  47  49
BRANCH  47  72
ATOM     72  C24 non d ame     -32.830  15.543  28.607  0.00  0.00    -0.039 C 
ATOM     73  H35 non d ame     -32.728  16.396  29.279  0.00  0.00     0.036 H 
ATOM     74  H36 non d ame     -33.717  14.912  28.659  0.00  0.00     0.036 H 
BRANCH  72  75
ATOM     75  C25 non d ame     -31.561  14.595  28.850  0.00  0.00    -0.001 C 
ATOM     76  C26 non d ame     -32.058  13.051  29.118  0.00  0.00    -0.035 C 
ATOM     77  C27 non d ame     -31.477  12.596  30.253  0.00  0.00     0.085 C 
ATOM     78  H38 non d ame     -33.122  13.037  29.353  0.00  0.00     0.036 H 
ATOM     79  H39 non d ame     -31.662  12.391  28.346  0.00  0.00     0.036 H 
ATOM     80  N5  non d ame     -30.888  13.794  30.959  0.00  0.00    -0.049 N 
ATOM     81  H40 non d ame     -32.291  12.193  30.856  0.00  0.00     0.075 H 
ATOM     82  H41 non d ame     -30.668  11.944  29.925  0.00  0.00     0.075 H 
ATOM     83  C28 non d ame     -30.874  14.987  29.871  0.00  0.00     0.193 C 
ATOM     84  H42 non d ame     -31.534  14.038  31.696  0.00  0.00     0.280 HD
ATOM     85  H43 non d ame     -29.933  13.552  31.184  0.00  0.00     0.280 HD
ATOM     86  H44 non d ame     -29.944  15.281  29.384  0.00  0.00     0.129 H 
ATOM     87  H37 non d ame     -30.785  14.743  28.099  0.00  0.00     0.046 H 
BRANCH  83  88
ATOM     88  O6  non d ame     -31.399  16.185  30.447  0.00  0.00    -0.369 OA
ATOM     89  H45 non d ame     -30.763  16.545  31.070  0.00  0.00     0.212 HD
ENDBRANCH  83  88
ENDBRANCH  72  75
ENDBRANCH  47  72
ENDBRANCH  45  47
ENDBRANCH   1  43
BRANCH   1  90
ATOM     90  C16 non d ame     -31.535  15.001  22.488  0.00  0.00    -0.035 C 
ATOM     91  H21 non d ame     -31.659  14.022  22.026  0.00  0.00     0.037 H 
ATOM     92  H22 non d ame     -32.392  15.665  22.595  0.00  0.00     0.037 H 
BRANCH  90  93
ATOM     93  C17 non d ame     -30.487  15.768  21.621  0.00  0.00    -0.059 C 
ATOM     94  H23 non d ame     -30.711  16.832  21.696  0.00  0.00     0.038 H 
BRANCH  93  95
ATOM     95  C18 non d ame     -29.027  15.552  22.134  0.00  0.00    -0.073 C 
ATOM     96  H24 non d ame     -28.484  16.495  22.094  0.00  0.00     0.028 H 
ATOM     97  H25 non d ame     -29.052  15.191  23.162  0.00  0.00     0.028 H 
ATOM     98  H26 non d ame     -28.525  14.817  21.504  0.00  0.00     0.028 H 
ENDBRANCH  93  95
BRANCH  93  99
ATOM     99  C19 non d ame     -30.609  15.380  20.145  0.00  0.00    -0.073 C 
ATOM    100  H27 non d ame     -30.631  14.293  20.056  0.00  0.00     0.028 H 
ATOM    101  H28 non d ame     -31.528  15.797  19.734  0.00  0.00     0.028 H 
ATOM    102  H29 non d ame     -29.754  15.773  19.595  0.00  0.00     0.028 H 
ENDBRANCH  93  99
ENDBRANCH  90  93
ENDBRANCH   1  90
TORSDOF 26
ENDMDL
MODEL 4
REMARK VINA RESULT:      -6.8      3.618      8.181
REMARK  26 active torsions:
REMARK  status: ('A' for Active; 'I' for Inactive)
REMARK    1  A    between atoms: C2_2  and  C3_3 
REMARK    2  A    between atoms: C4_6  and  C5_7 
REMARK       I    between atoms: C5_7  and  N2_9 
REMARK    3  A    between atoms: N2_9  and  C6_10 
REMARK    4  A    between atoms: C6_10  and  C7_11 
REMARK    5  A    between atoms: C6_10  and  C8_13 
REMARK       I    between atoms: C7_11  and  N3_14 
REMARK    6  A    between atoms: N3_14  and  C9_15 
REMARK    7  A    between atoms: C9_15  and  C10_16 
REMARK    8  A    between atoms: C9_15  and  C11_18 
REMARK       I    between atoms: C10_16  and  N4_21 
REMARK    9  A    between atoms: C11_18  and  C12_19 
REMARK   10  A    between atoms: C11_18  and  C13_20 
REMARK   11  A    between atoms: N4_21  and  C14_22 
REMARK   12  A    between atoms: C14_22  and  C15_23 
REMARK   13  A    between atoms: C14_22  and  C16_25 
REMARK       I    between atoms: C15_23  and  N6_40 
REMARK   14  A    between atoms: C16_25  and  C17_26 
REMARK   15  A    between atoms: C17_26  and  C18_27 
REMARK   16  A    between atoms: C17_26  and  C19_28 
REMARK   17  A    between atoms: C20_29  and  C21_30 
REMARK   18  A    between atoms: C20_29  and  C24_33 
REMARK   19  A    between atoms: C20_29  and  N6_40 
REMARK   20  A    between atoms: C21_30  and  C22_31 
REMARK   21  A    between atoms: C22_31  and  C23_32 
REMARK   22  A    between atoms: C23_32  and  O8_43 
REMARK   23  A    between atoms: C24_33  and  C25_34 
REMARK   24  A    between atoms: C28_38  and  O6_39 
REMARK   25  A    between atoms: C29_42  and  O8_43 
REMARK   26  A    between atoms: C29_42  and  C35_49 
ROOT
ATOM      1  C14 non d ame     -31.422  14.522  24.243  0.00  0.00     0.089 C 
ATOM      2  H20 non d ame     -30.399  14.487  24.621  0.00  0.00     0.087 H 
ENDROOT
BRANCH   1   3
ATOM      3  N4  non d ame     -31.898  13.151  24.140  0.00  0.00    -0.346 N 
ATOM      4  C10 non d ame     -31.641  12.169  25.255  0.00  0.00     0.241 C 
ATOM      5  O4  non d ame     -31.045  12.505  26.225  0.00  0.00    -0.271 OA
ATOM      6  H19 non d ame     -32.401  12.884  23.305  0.00  0.00     0.163 HD
BRANCH   4   7
ATOM      7  C9  non d ame     -32.146  10.755  25.134  0.00  0.00     0.092 C 
ATOM      8  H11 non d ame     -33.009  10.739  24.469  0.00  0.00     0.088 H 
BRANCH   7   9
ATOM      9  N3  non d ame     -31.111   9.917  24.522  0.00  0.00    -0.346 N 
ATOM     10  C7  non d ame     -31.370   9.252  23.268  0.00  0.00     0.240 C 
ATOM     11  O3  non d ame     -32.406   9.380  22.739  0.00  0.00    -0.271 OA
ATOM     12  H10 non d ame     -30.213   9.796  24.967  0.00  0.00     0.163 HD
BRANCH  10  13
ATOM     13  C6  non d ame     -30.266   8.359  22.623  0.00  0.00     0.086 C 
ATOM     14  H6  non d ame     -29.811   7.670  23.335  0.00  0.00     0.086 H 
BRANCH  13  15
ATOM     15  N2  non d ame     -30.868   7.543  21.582  0.00  0.00    -0.343 N 
ATOM     16  C5  non d ame     -31.484   6.262  21.935  0.00  0.00     0.273 C 
ATOM     17  O2  non d ame     -31.487   5.896  23.059  0.00  0.00    -0.266 OA
ATOM     18  H5  non d ame     -30.858   7.862  20.624  0.00  0.00     0.163 HD
BRANCH  16  19
ATOM     19  C4  non d ame     -32.126   5.390  20.845  0.00  0.00     0.154 A 
ATOM     20  C1  non d ame     -32.043   3.967  20.715  0.00  0.00    -0.017 A 
ATOM     21  C2  non d ame     -32.798   3.663  19.561  0.00  0.00     0.077 A 
ATOM     22  H1  non d ame     -31.516   3.264  21.360  0.00  0.00     0.091 H 
ATOM     23  O1  non d ame     -33.257   4.785  19.091  0.00  0.00    -0.218 OA
ATOM     24  N1  non d ame     -32.878   5.808  19.823  0.00  0.00    -0.123 NA
BRANCH  21  25
ATOM     25  C3  non d ame     -33.031   2.276  18.976  0.00  0.00    -0.029 C 
ATOM     26  H2  non d ame     -33.850   2.317  18.258  0.00  0.00     0.036 H 
ATOM     27  H3  non d ame     -32.125   1.937  18.474  0.00  0.00     0.036 H 
ATOM     28  H4  non d ame     -33.284   1.582  19.777  0.00  0.00     0.036 H 
ENDBRANCH  21  25
ENDBRANCH  16  19
ENDBRANCH  13  15
BRANCH  13  29
ATOM     29  C8  non d ame     -29.187   9.233  22.035  0.00  0.00    -0.049 C 
ATOM     30  H7  non d ame     -29.646  10.069  21.506  0.00  0.00     0.030 H 
ATOM     31  H8  non d ame     -28.553   9.614  22.835  0.00  0.00     0.030 H 
ATOM     32  H9  non d ame     -28.585   8.650  21.339  0.00  0.00     0.030 H 
ENDBRANCH  13  29
ENDBRANCH  10  13
ENDBRANCH   7   9
BRANCH   7  33
ATOM     33  C11 non d ame     -32.487  10.203  26.549  0.00  0.00    -0.033 C 
ATOM     34  H12 non d ame     -31.733  10.582  27.240  0.00  0.00     0.042 H 
BRANCH  33  35
ATOM     35  C12 non d ame     -33.875  10.719  27.041  0.00  0.00    -0.071 C 
ATOM     36  H13 non d ame     -34.667  10.146  26.558  0.00  0.00     0.028 H 
ATOM     37  H14 non d ame     -33.946  10.597  28.122  0.00  0.00     0.028 H 
ATOM     38  H15 non d ame     -33.983  11.773  26.786  0.00  0.00     0.028 H 
ENDBRANCH  33  35
BRANCH  33  39
ATOM     39  C13 non d ame     -32.422   8.642  26.571  0.00  0.00    -0.071 C 
ATOM     40  H16 non d ame     -32.378   8.266  25.549  0.00  0.00     0.028 H 
ATOM     41  H17 non d ame     -31.531   8.323  27.115  0.00  0.00     0.028 H 
ATOM     42  H18 non d ame     -33.309   8.249  27.067  0.00  0.00     0.028 H 
ENDBRANCH  33  39
ENDBRANCH   7  33
ENDBRANCH   4   7
ENDBRANCH   1   3
BRANCH   1  43
ATOM     43  C15 non d ame     -32.372  15.306  25.193  0.00  0.00     0.240 C 
ATOM     44  O5  non d ame     -33.308  15.887  24.745  0.00  0.00    -0.271 OA
ATOM     45  N6  non d ame     -32.120  15.326  26.662  0.00  0.00    -0.355 N 
ATOM     46  H46 non d ame     -31.332  14.833  27.054  0.00  0.00     0.162 HD
BRANCH  45  47
ATOM     47  C20 non d ame     -33.034  16.075  27.552  0.00  0.00     0.013 C 
ATOM     48  H30 non d ame     -34.051  15.926  27.190  0.00  0.00     0.072 H 
BRANCH  47  49
ATOM     49  C21 non d ame     -32.680  17.545  27.509  0.00  0.00    -0.038 C 
ATOM     50  H31 non d ame     -31.996  17.707  28.341  0.00  0.00     0.036 H 
ATOM     51  H32 non d ame     -32.352  17.738  26.487  0.00  0.00     0.036 H 
BRANCH  49  52
ATOM     52  C22 non d ame     -33.897  18.462  27.758  0.00  0.00     0.018 C 
ATOM     53  H33 non d ame     -34.768  17.890  27.438  0.00  0.00     0.048 H 
ATOM     54  H34 non d ame     -33.812  18.791  28.794  0.00  0.00     0.048 H 
BRANCH  52  55
ATOM     55  C23 non d ame     -33.894  19.755  26.896  0.00  0.00     0.259 C 
ATOM     56  O7  non d ame     -33.004  20.537  26.986  0.00  0.00    -0.265 OA
BRANCH  55  57
ATOM     57  O8  non d ame     -34.975  20.002  26.006  0.00  0.00    -0.317 OA
BRANCH  57  58
ATOM     58  C29 non d ame     -35.604  18.816  25.510  0.00  0.00     0.052 C 
ATOM     59  H47 non d ame     -34.988  18.483  24.675  0.00  0.00     0.082 H 
ATOM     60  H48 non d ame     -35.741  18.170  26.378  0.00  0.00     0.082 H 
BRANCH  58  61
ATOM     61  C35 non d ame     -37.002  19.208  24.964  0.00  0.00    -0.034 A 
ATOM     62  C30 non d ame     -38.004  18.248  24.860  0.00  0.00    -0.075 A 
ATOM     63  C31 non d ame     -39.260  18.600  24.369  0.00  0.00    -0.082 A 
ATOM     64  H49 non d ame     -37.804  17.220  25.163  0.00  0.00     0.084 H 
ATOM     65  C32 non d ame     -39.513  19.917  23.978  0.00  0.00    -0.083 A 
ATOM     66  H50 non d ame     -40.043  17.845  24.291  0.00  0.00     0.083 H 
ATOM     67  C33 non d ame     -38.509  20.871  24.081  0.00  0.00    -0.082 A 
ATOM     68  H51 non d ame     -40.492  20.201  23.594  0.00  0.00     0.083 H 
ATOM     69  C34 non d ame     -37.253  20.525  24.573  0.00  0.00    -0.075 A 
ATOM     70  H52 non d ame     -38.709  21.898  23.773  0.00  0.00     0.083 H 
ATOM     71  H53 non d ame     -36.470  21.280  24.651  0.00  0.00     0.084 H 
ENDBRANCH  58  61
ENDBRANCH  57  58
ENDBRANCH  55  57
ENDBRANCH  52  55
ENDBRANCH  49  52
ENDBRANCH  47  49
BRANCH  47  72
ATOM     72  C24 non d ame     -32.899  15.560  28.983  0.00  0.00    -0.039 C 
ATOM     73  H35 non d ame     -32.519  16.403  29.560  0.00  0.00     0.036 H 
ATOM     74  H36 non d ame     -33.868  15.125  29.227  0.00  0.00     0.036 H 
BRANCH  72  75
ATOM     75  C25 non d ame     -31.813  14.387  29.091  0.00  0.00    -0.001 C 
ATOM     76  C26 non d ame     -32.535  13.001  29.604  0.00  0.00    -0.035 C 
ATOM     77  C27 non d ame     -31.838  12.510  30.657  0.00  0.00     0.085 C 
ATOM     78  H38 non d ame     -33.514  13.225  30.028  0.00  0.00     0.036 H 
ATOM     79  H39 non d ame     -32.434  12.224  28.847  0.00  0.00     0.036 H 
ATOM     80  N5  non d ame     -30.903  13.603  31.115  0.00  0.00    -0.049 N 
ATOM     81  H40 non d ame     -32.579  12.327  31.435  0.00  0.00     0.075 H 
ATOM     82  H41 non d ame     -31.251  11.684  30.258  0.00  0.00     0.075 H 
ATOM     83  C28 non d ame     -30.875  14.692  29.924  0.00  0.00     0.193 C 
ATOM     84  H42 non d ame     -31.330  14.024  31.927  0.00  0.00     0.280 HD
ATOM     85  H43 non d ame     -29.987  13.182  31.187  0.00  0.00     0.280 HD
ATOM     86  H44 non d ame     -30.022  14.753  29.248  0.00  0.00     0.129 H 
ATOM     87  H37 non d ame     -31.188  14.319  28.200  0.00  0.00     0.046 H 
BRANCH  83  88
ATOM     88  O6  non d ame     -31.035  16.008  30.456  0.00  0.00    -0.369 OA
ATOM     89  H45 non d ame     -31.250  16.617  29.745  0.00  0.00     0.212 HD
ENDBRANCH  83  88
ENDBRANCH  72  75
ENDBRANCH  47  72
ENDBRANCH  45  47
ENDBRANCH   1  43
BRANCH   1  90
ATOM     90  C16 non d ame     -31.439  15.158  22.863  0.00  0.00    -0.035 C 
ATOM     91  H21 non d ame     -32.365  14.818  22.400  0.00  0.00     0.037 H 
ATOM     92  H22 non d ame     -31.274  16.223  23.033  0.00  0.00     0.037 H 
BRANCH  90  93
ATOM     93  C17 non d ame     -30.279  14.675  21.935  0.00  0.00    -0.059 C 
ATOM     94  H23 non d ame     -30.340  13.589  21.867  0.00  0.00     0.038 H 
BRANCH  93  95
ATOM     95  C18 non d ame     -30.403  15.251  20.488  0.00  0.00    -0.073 C 
ATOM     96  H24 non d ame     -30.109  14.488  19.767  0.00  0.00     0.028 H 
ATOM     97  H25 non d ame     -31.435  15.547  20.302  0.00  0.00     0.028 H 
ATOM     98  H26 non d ame     -29.752  16.118  20.385  0.00  0.00     0.028 H 
ENDBRANCH  93  95
BRANCH  93  99
ATOM     99  C19 non d ame     -28.916  15.017  22.542  0.00  0.00    -0.073 C 
ATOM    100  H27 non d ame     -28.684  16.065  22.349  0.00  0.00     0.028 H 
ATOM    101  H28 non d ame     -28.943  14.843  23.618  0.00  0.00     0.028 H 
ATOM    102  H29 non d ame     -28.149  14.386  22.092  0.00  0.00     0.028 H 
ENDBRANCH  93  99
ENDBRANCH  90  93
ENDBRANCH   1  90
TORSDOF 26
ENDMDL
MODEL 5
REMARK VINA RESULT:      -6.8      3.808      9.859
REMARK  26 active torsions:
REMARK  status: ('A' for Active; 'I' for Inactive)
REMARK    1  A    between atoms: C2_2  and  C3_3 
REMARK    2  A    between atoms: C4_6  and  C5_7 
REMARK       I    between atoms: C5_7  and  N2_9 
REMARK    3  A    between atoms: N2_9  and  C6_10 
REMARK    4  A    between atoms: C6_10  and  C7_11 
REMARK    5  A    between atoms: C6_10  and  C8_13 
REMARK       I    between atoms: C7_11  and  N3_14 
REMARK    6  A    between atoms: N3_14  and  C9_15 
REMARK    7  A    between atoms: C9_15  and  C10_16 
REMARK    8  A    between atoms: C9_15  and  C11_18 
REMARK       I    between atoms: C10_16  and  N4_21 
REMARK    9  A    between atoms: C11_18  and  C12_19 
REMARK   10  A    between atoms: C11_18  and  C13_20 
REMARK   11  A    between atoms: N4_21  and  C14_22 
REMARK   12  A    between atoms: C14_22  and  C15_23 
REMARK   13  A    between atoms: C14_22  and  C16_25 
REMARK       I    between atoms: C15_23  and  N6_40 
REMARK   14  A    between atoms: C16_25  and  C17_26 
REMARK   15  A    between atoms: C17_26  and  C18_27 
REMARK   16  A    between atoms: C17_26  and  C19_28 
REMARK   17  A    between atoms: C20_29  and  C21_30 
REMARK   18  A    between atoms: C20_29  and  C24_33 
REMARK   19  A    between atoms: C20_29  and  N6_40 
REMARK   20  A    between atoms: C21_30  and  C22_31 
REMARK   21  A    between atoms: C22_31  and  C23_32 
REMARK   22  A    between atoms: C23_32  and  O8_43 
REMARK   23  A    between atoms: C24_33  and  C25_34 
REMARK   24  A    between atoms: C28_38  and  O6_39 
REMARK   25  A    between atoms: C29_42  and  O8_43 
REMARK   26  A    between atoms: C29_42  and  C35_49 
ROOT
ATOM      1  C14 non d ame     -35.228   6.383  30.774  0.00  0.00     0.089 C 
ATOM      2  H20 non d ame     -34.734   6.541  31.733  0.00  0.00     0.087 H 
ENDROOT
BRANCH   1   3
ATOM      3  N4  non d ame     -35.385   7.685  30.142  0.00  0.00    -0.346 N 
ATOM      4  C10 non d ame     -34.794   8.917  30.780  0.00  0.00     0.241 C 
ATOM      5  O4  non d ame     -34.199   8.836  31.803  0.00  0.00    -0.271 OA
ATOM      6  H19 non d ame     -35.897   7.732  29.272  0.00  0.00     0.163 HD
BRANCH   4   7
ATOM      7  C9  non d ame     -34.961  10.255  30.109  0.00  0.00     0.092 C 
ATOM      8  H11 non d ame     -35.342  10.974  30.833  0.00  0.00     0.088 H 
BRANCH   7   9
ATOM      9  N3  non d ame     -33.653  10.743  29.660  0.00  0.00    -0.346 N 
ATOM     10  C7  non d ame     -32.916  11.678  30.474  0.00  0.00     0.240 C 
ATOM     11  O3  non d ame     -33.360  12.049  31.491  0.00  0.00    -0.271 OA
ATOM     12  H10 non d ame     -33.258  10.434  28.784  0.00  0.00     0.163 HD
BRANCH  10  13
ATOM     13  C6  non d ame     -31.526  12.197  29.990  0.00  0.00     0.086 C 
ATOM     14  H6  non d ame     -31.280  11.865  28.982  0.00  0.00     0.086 H 
BRANCH  13  15
ATOM     15  N2  non d ame     -31.551  13.650  29.954  0.00  0.00    -0.343 N 
ATOM     16  C5  non d ame     -32.315  14.333  28.908  0.00  0.00     0.273 C 
ATOM     17  O2  non d ame     -32.903  13.704  28.097  0.00  0.00    -0.266 OA
ATOM     18  H5  non d ame     -31.043  14.179  30.649  0.00  0.00     0.163 HD
BRANCH  16  19
ATOM     19  C4  non d ame     -32.351  15.868  28.859  0.00  0.00     0.154 A 
ATOM     20  C1  non d ame     -32.889  16.687  27.816  0.00  0.00    -0.017 A 
ATOM     21  C2  non d ame     -32.678  18.015  28.252  0.00  0.00     0.077 A 
ATOM     22  H1  non d ame     -33.360  16.368  26.886  0.00  0.00     0.091 H 
ATOM     23  O1  non d ame     -32.090  17.953  29.410  0.00  0.00    -0.218 OA
ATOM     24  N1  non d ame     -31.888  16.711  29.786  0.00  0.00    -0.123 NA
BRANCH  21  25
ATOM     25  C3  non d ame     -33.069  19.282  27.503  0.00  0.00    -0.029 C 
ATOM     26  H2  non d ame     -32.173  19.767  27.117  0.00  0.00     0.036 H 
ATOM     27  H3  non d ame     -33.728  19.025  26.675  0.00  0.00     0.036 H 
ATOM     28  H4  non d ame     -33.586  19.960  28.182  0.00  0.00     0.036 H 
ENDBRANCH  21  25
ENDBRANCH  16  19
ENDBRANCH  13  15
BRANCH  13  29
ATOM     29  C8  non d ame     -30.452  11.722  30.935  0.00  0.00    -0.049 C 
ATOM     30  H7  non d ame     -30.380  10.635  30.887  0.00  0.00     0.030 H 
ATOM     31  H8  non d ame     -29.497  12.162  30.650  0.00  0.00     0.030 H 
ATOM     32  H9  non d ame     -30.703  12.025  31.952  0.00  0.00     0.030 H 
ENDBRANCH  13  29
ENDBRANCH  10  13
ENDBRANCH   7   9
BRANCH   7  33
ATOM     33  C11 non d ame     -35.905  10.105  28.880  0.00  0.00    -0.033 C 
ATOM     34  H12 non d ame     -35.909   9.053  28.595  0.00  0.00     0.042 H 
BRANCH  33  35
ATOM     35  C12 non d ame     -37.371  10.501  29.238  0.00  0.00    -0.071 C 
ATOM     36  H13 non d ame     -37.409  11.559  29.496  0.00  0.00     0.028 H 
ATOM     37  H14 non d ame     -38.018  10.312  28.382  0.00  0.00     0.028 H 
ATOM     38  H15 non d ame     -37.710   9.908  30.088  0.00  0.00     0.028 H 
ENDBRANCH  33  35
BRANCH  33  39
ATOM     39  C13 non d ame     -35.376  10.932  27.664  0.00  0.00    -0.071 C 
ATOM     40  H16 non d ame     -36.089  10.867  26.843  0.00  0.00     0.028 H 
ATOM     41  H17 non d ame     -35.255  11.975  27.959  0.00  0.00     0.028 H 
ATOM     42  H18 non d ame     -34.414  10.532  27.344  0.00  0.00     0.028 H 
ENDBRANCH  33  39
ENDBRANCH   7  33
ENDBRANCH   4   7
ENDBRANCH   1   3
BRANCH   1  43
ATOM     43  C15 non d ame     -34.398   5.469  29.828  0.00  0.00     0.240 C 
ATOM     44  O5  non d ame     -33.766   4.569  30.279  0.00  0.00    -0.271 OA
ATOM     45  N6  non d ame     -34.397   5.711  28.357  0.00  0.00    -0.355 N 
ATOM     46  H46 non d ame     -34.933   6.470  27.961  0.00  0.00     0.162 HD
BRANCH  45  47
ATOM     47  C20 non d ame     -33.603   4.833  27.470  0.00  0.00     0.013 C 
ATOM     48  H30 non d ame     -33.311   3.954  28.044  0.00  0.00     0.072 H 
BRANCH  47  49
ATOM     49  C21 non d ame     -32.373   5.577  27.001  0.00  0.00    -0.038 C 
ATOM     50  H31 non d ame     -31.930   6.009  27.898  0.00  0.00     0.036 H 
ATOM     51  H32 non d ame     -31.808   4.862  26.403  0.00  0.00     0.036 H 
BRANCH  49  52
ATOM     52  C22 non d ame     -32.708   6.760  26.067  0.00  0.00     0.018 C 
ATOM     53  H33 non d ame     -31.872   6.832  25.371  0.00  0.00     0.048 H 
ATOM     54  H34 non d ame     -33.713   6.565  25.693  0.00  0.00     0.048 H 
BRANCH  52  55
ATOM     55  C23 non d ame     -32.780   8.131  26.794  0.00  0.00     0.259 C 
ATOM     56  O7  non d ame     -32.920   8.182  27.973  0.00  0.00    -0.265 OA
BRANCH  55  57
ATOM     57  O8  non d ame     -32.690   9.329  26.032  0.00  0.00    -0.317 OA
BRANCH  57  58
ATOM     58  C29 non d ame     -33.138   9.195  24.681  0.00  0.00     0.052 C 
ATOM     59  H47 non d ame     -33.490   8.168  24.587  0.00  0.00     0.082 H 
ATOM     60  H48 non d ame     -33.825  10.024  24.514  0.00  0.00     0.082 H 
BRANCH  58  61
ATOM     61  C35 non d ame     -31.911   9.380  23.749  0.00  0.00    -0.034 A 
ATOM     62  C30 non d ame     -31.206  10.579  23.754  0.00  0.00    -0.075 A 
ATOM     63  C31 non d ame     -30.104  10.745  22.917  0.00  0.00    -0.082 A 
ATOM     64  H49 non d ame     -31.518  11.389  24.414  0.00  0.00     0.084 H 
ATOM     65  C32 non d ame     -29.709   9.707  22.069  0.00  0.00    -0.083 A 
ATOM     66  H50 non d ame     -29.553  11.686  22.925  0.00  0.00     0.083 H 
ATOM     67  C33 non d ame     -30.417   8.513  22.065  0.00  0.00    -0.082 A 
ATOM     68  H51 non d ame     -28.848   9.828  21.412  0.00  0.00     0.083 H 
ATOM     69  C34 non d ame     -31.518   8.342  22.902  0.00  0.00    -0.075 A 
ATOM     70  H52 non d ame     -30.107   7.705  21.401  0.00  0.00     0.083 H 
ATOM     71  H53 non d ame     -32.068   7.401  22.893  0.00  0.00     0.084 H 
ENDBRANCH  58  61
ENDBRANCH  57  58
ENDBRANCH  55  57
ENDBRANCH  52  55
ENDBRANCH  49  52
ENDBRANCH  47  49
BRANCH  47  72
ATOM     72  C24 non d ame     -34.443   4.423  26.262  0.00  0.00    -0.039 C 
ATOM     73  H35 non d ame     -34.169   5.119  25.469  0.00  0.00     0.036 H 
ATOM     74  H36 non d ame     -34.267   3.355  26.135  0.00  0.00     0.036 H 
BRANCH  72  75
ATOM     75  C25 non d ame     -36.010   4.614  26.538  0.00  0.00    -0.001 C 
ATOM     76  C26 non d ame     -36.653   3.213  27.110  0.00  0.00    -0.035 C 
ATOM     77  C27 non d ame     -37.743   2.899  26.370  0.00  0.00     0.085 C 
ATOM     78  H38 non d ame     -35.970   2.384  26.922  0.00  0.00     0.036 H 
ATOM     79  H39 non d ame     -37.059   3.368  28.110  0.00  0.00     0.036 H 
ATOM     80  N5  non d ame     -37.713   3.779  25.144  0.00  0.00    -0.049 N 
ATOM     81  H40 non d ame     -37.601   1.862  26.068  0.00  0.00     0.075 H 
ATOM     82  H41 non d ame     -38.600   3.175  26.984  0.00  0.00     0.075 H 
ATOM     83  C28 non d ame     -36.638   4.942  25.458  0.00  0.00     0.193 C 
ATOM     84  H42 non d ame     -37.359   3.208  24.391  0.00  0.00     0.280 HD
ATOM     85  H43 non d ame     -38.629   4.199  25.072  0.00  0.00     0.280 HD
ATOM     86  H44 non d ame     -36.969   5.947  25.718  0.00  0.00     0.129 H 
ATOM     87  H37 non d ame     -36.222   5.523  27.100  0.00  0.00     0.046 H 
BRANCH  83  88
ATOM     88  O6  non d ame     -35.753   5.106  24.349  0.00  0.00    -0.369 OA
ATOM     89  H45 non d ame     -36.118   4.664  23.579  0.00  0.00     0.212 HD
ENDBRANCH  83  88
ENDBRANCH  72  75
ENDBRANCH  47  72
ENDBRANCH  45  47
ENDBRANCH   1  43
BRANCH   1  90
ATOM     90  C16 non d ame     -36.602   5.772  30.998  0.00  0.00    -0.035 C 
ATOM     91  H21 non d ame     -36.511   4.733  30.683  0.00  0.00     0.037 H 
ATOM     92  H22 non d ame     -36.858   6.008  32.031  0.00  0.00     0.037 H 
BRANCH  90  93
ATOM     93  C17 non d ame     -37.722   6.405  30.111  0.00  0.00    -0.059 C 
ATOM     94  H23 non d ame     -37.235   6.951  29.303  0.00  0.00     0.038 H 
BRANCH  93  95
ATOM     95  C18 non d ame     -38.644   5.321  29.465  0.00  0.00    -0.073 C 
ATOM     96  H24 non d ame     -38.136   4.358  29.475  0.00  0.00     0.028 H 
ATOM     97  H25 non d ame     -39.571   5.248  30.033  0.00  0.00     0.028 H 
ATOM     98  H26 non d ame     -38.869   5.603  28.437  0.00  0.00     0.028 H 
ENDBRANCH  93  95
BRANCH  93  99
ATOM     99  C19 non d ame     -38.547   7.416  30.911  0.00  0.00    -0.073 C 
ATOM    100  H27 non d ame     -39.367   6.901  31.412  0.00  0.00     0.028 H 
ATOM    101  H28 non d ame     -37.911   7.897  31.655  0.00  0.00     0.028 H 
ATOM    102  H29 non d ame     -38.950   8.171  30.236  0.00  0.00     0.028 H 
ENDBRANCH  93  99
ENDBRANCH  90  93
ENDBRANCH   1  90
TORSDOF 26
ENDMDL
MODEL 6
REMARK VINA RESULT:      -6.8      2.401      5.588
REMARK  26 active torsions:
REMARK  status: ('A' for Active; 'I' for Inactive)
REMARK    1  A    between atoms: C2_2  and  C3_3 
REMARK    2  A    between atoms: C4_6  and  C5_7 
REMARK       I    between atoms: C5_7  and  N2_9 
REMARK    3  A    between atoms: N2_9  and  C6_10 
REMARK    4  A    between atoms: C6_10  and  C7_11 
REMARK    5  A    between atoms: C6_10  and  C8_13 
REMARK       I    between atoms: C7_11  and  N3_14 
REMARK    6  A    between atoms: N3_14  and  C9_15 
REMARK    7  A    between atoms: C9_15  and  C10_16 
REMARK    8  A    between atoms: C9_15  and  C11_18 
REMARK       I    between atoms: C10_16  and  N4_21 
REMARK    9  A    between atoms: C11_18  and  C12_19 
REMARK   10  A    between atoms: C11_18  and  C13_20 
REMARK   11  A    between atoms: N4_21  and  C14_22 
REMARK   12  A    between atoms: C14_22  and  C15_23 
REMARK   13  A    between atoms: C14_22  and  C16_25 
REMARK       I    between atoms: C15_23  and  N6_40 
REMARK   14  A    between atoms: C16_25  and  C17_26 
REMARK   15  A    between atoms: C17_26  and  C18_27 
REMARK   16  A    between atoms: C17_26  and  C19_28 
REMARK   17  A    between atoms: C20_29  and  C21_30 
REMARK   18  A    between atoms: C20_29  and  C24_33 
REMARK   19  A    between atoms: C20_29  and  N6_40 
REMARK   20  A    between atoms: C21_30  and  C22_31 
REMARK   21  A    between atoms: C22_31  and  C23_32 
REMARK   22  A    between atoms: C23_32  and  O8_43 
REMARK   23  A    between atoms: C24_33  and  C25_34 
REMARK   24  A    between atoms: C28_38  and  O6_39 
REMARK   25  A    between atoms: C29_42  and  O8_43 
REMARK   26  A    between atoms: C29_42  and  C35_49 
ROOT
ATOM      1  C14 non d ame     -31.064  14.616  23.797  0.00  0.00     0.089 C 
ATOM      2  H20 non d ame     -29.986  14.706  23.929  0.00  0.00     0.087 H 
ENDROOT
BRANCH   1   3
ATOM      3  N4  non d ame     -31.429  13.240  24.103  0.00  0.00    -0.346 N 
ATOM      4  C10 non d ame     -30.686  12.095  23.462  0.00  0.00     0.241 C 
ATOM      5  O4  non d ame     -29.800  12.305  22.701  0.00  0.00    -0.271 OA
ATOM      6  H19 non d ame     -32.187  13.083  24.751  0.00  0.00     0.163 HD
BRANCH   4   7
ATOM      7  C9  non d ame     -31.073  10.678  23.794  0.00  0.00     0.092 C 
ATOM      8  H11 non d ame     -30.547  10.364  24.696  0.00  0.00     0.088 H 
BRANCH   7   9
ATOM      9  N3  non d ame     -32.508  10.619  24.088  0.00  0.00    -0.346 N 
ATOM     10  C7  non d ame     -32.973  10.780  25.444  0.00  0.00     0.240 C 
ATOM     11  O3  non d ame     -32.207  10.957  26.310  0.00  0.00    -0.271 OA
ATOM     12  H10 non d ame     -33.181  10.465  23.351  0.00  0.00     0.163 HD
BRANCH  10  13
ATOM     13  C6  non d ame     -34.502  10.713  25.750  0.00  0.00     0.086 C 
ATOM     14  H6  non d ame     -34.718  10.718  26.818  0.00  0.00     0.086 H 
BRANCH  13  15
ATOM     15  N2  non d ame     -35.147  11.889  25.190  0.00  0.00    -0.343 N 
ATOM     16  C5  non d ame     -35.250  13.107  25.996  0.00  0.00     0.273 C 
ATOM     17  O2  non d ame     -34.814  13.131  27.094  0.00  0.00    -0.266 OA
ATOM     18  H5  non d ame     -35.519  11.859  24.252  0.00  0.00     0.163 HD
BRANCH  16  19
ATOM     19  C4  non d ame     -35.928  14.359  25.416  0.00  0.00     0.154 A 
ATOM     20  C1  non d ame     -35.937  15.675  25.976  0.00  0.00    -0.017 A 
ATOM     21  C2  non d ame     -36.689  16.452  25.066  0.00  0.00     0.077 A 
ATOM     22  H1  non d ame     -35.470  16.015  26.901  0.00  0.00     0.091 H 
ATOM     23  O1  non d ame     -37.062  15.665  24.100  0.00  0.00    -0.218 OA
ATOM     24  N1  non d ame     -36.630  14.438  24.282  0.00  0.00    -0.123 NA
BRANCH  21  25
ATOM     25  C3  non d ame     -37.003  17.937  25.193  0.00  0.00    -0.029 C 
ATOM     26  H2  non d ame     -36.077  18.493  25.340  0.00  0.00     0.036 H 
ATOM     27  H3  non d ame     -37.494  18.283  24.284  0.00  0.00     0.036 H 
ATOM     28  H4  non d ame     -37.662  18.098  26.046  0.00  0.00     0.036 H 
ENDBRANCH  21  25
ENDBRANCH  16  19
ENDBRANCH  13  15
BRANCH  13  29
ATOM     29  C8  non d ame     -35.085   9.464  25.140  0.00  0.00    -0.049 C 
ATOM     30  H7  non d ame     -36.172   9.496  25.216  0.00  0.00     0.030 H 
ATOM     31  H8  non d ame     -34.796   9.403  24.091  0.00  0.00     0.030 H 
ATOM     32  H9  non d ame     -34.710   8.590  25.673  0.00  0.00     0.030 H 
ENDBRANCH  13  29
ENDBRANCH  10  13
ENDBRANCH   7   9
BRANCH   7  33
ATOM     33  C11 non d ame     -30.756   9.756  22.580  0.00  0.00    -0.033 C 
ATOM     34  H12 non d ame     -30.645  10.394  21.704  0.00  0.00     0.042 H 
BRANCH  33  35
ATOM     35  C12 non d ame     -29.409   8.994  22.781  0.00  0.00    -0.071 C 
ATOM     36  H13 non d ame     -29.360   8.606  23.798  0.00  0.00     0.028 H 
ATOM     37  H14 non d ame     -29.350   8.168  22.073  0.00  0.00     0.028 H 
ATOM     38  H15 non d ame     -28.577   9.678  22.613  0.00  0.00     0.028 H 
ENDBRANCH  33  35
BRANCH  33  39
ATOM     39  C13 non d ame     -31.933   8.764  22.309  0.00  0.00    -0.071 C 
ATOM     40  H16 non d ame     -32.472   8.577  23.239  0.00  0.00     0.028 H 
ATOM     41  H17 non d ame     -32.613   9.198  21.576  0.00  0.00     0.028 H 
ATOM     42  H18 non d ame     -31.535   7.825  21.924  0.00  0.00     0.028 H 
ENDBRANCH  33  39
ENDBRANCH   7  33
ENDBRANCH   4   7
ENDBRANCH   1   3
BRANCH   1  43
ATOM     43  C15 non d ame     -31.853  15.560  24.749  0.00  0.00     0.240 C 
ATOM     44  O5  non d ame     -32.406  16.515  24.309  0.00  0.00    -0.271 OA
ATOM     45  N6  non d ame     -31.925  15.269  26.209  0.00  0.00    -0.355 N 
ATOM     46  H46 non d ame     -31.463  14.458  26.595  0.00  0.00     0.162 HD
BRANCH  45  47
ATOM     47  C20 non d ame     -32.680  16.176  27.101  0.00  0.00     0.013 C 
ATOM     48  H30 non d ame     -33.689  16.278  26.700  0.00  0.00     0.072 H 
BRANCH  47  49
ATOM     49  C21 non d ame     -31.999  17.525  27.134  0.00  0.00    -0.038 C 
ATOM     50  H31 non d ame     -31.083  17.379  27.707  0.00  0.00     0.036 H 
ATOM     51  H32 non d ame     -31.946  17.854  26.096  0.00  0.00     0.036 H 
BRANCH  49  52
ATOM     52  C22 non d ame     -32.820  18.593  27.889  0.00  0.00     0.018 C 
ATOM     53  H33 non d ame     -33.657  18.059  28.339  0.00  0.00     0.048 H 
ATOM     54  H34 non d ame     -32.107  19.122  28.521  0.00  0.00     0.048 H 
BRANCH  52  55
ATOM     55  C23 non d ame     -33.450  19.670  26.961  0.00  0.00     0.259 C 
ATOM     56  O7  non d ame     -32.845  20.092  26.030  0.00  0.00    -0.265 OA
BRANCH  55  57
ATOM     57  O8  non d ame     -34.756  20.156  27.245  0.00  0.00    -0.317 OA
BRANCH  57  58
ATOM     58  C29 non d ame     -35.426  19.449  28.293  0.00  0.00     0.052 C 
ATOM     59  H47 non d ame     -35.457  18.408  27.973  0.00  0.00     0.082 H 
ATOM     60  H48 non d ame     -34.906  19.721  29.212  0.00  0.00     0.082 H 
BRANCH  58  61
ATOM     61  C35 non d ame     -36.881  19.982  28.376  0.00  0.00    -0.034 A 
ATOM     62  C30 non d ame     -37.794  19.383  29.239  0.00  0.00    -0.075 A 
ATOM     63  C31 non d ame     -39.101  19.861  29.314  0.00  0.00    -0.082 A 
ATOM     64  H49 non d ame     -37.485  18.539  29.856  0.00  0.00     0.084 H 
ATOM     65  C32 non d ame     -39.496  20.941  28.519  0.00  0.00    -0.083 A 
ATOM     66  H50 non d ame     -39.814  19.391  29.992  0.00  0.00     0.083 H 
ATOM     67  C33 non d ame     -38.582  21.533  27.657  0.00  0.00    -0.082 A 
ATOM     68  H51 non d ame     -40.516  21.322  28.572  0.00  0.00     0.083 H 
ATOM     69  C34 non d ame     -37.274  21.060  27.581  0.00  0.00    -0.075 A 
ATOM     70  H52 non d ame     -38.894  22.374  27.037  0.00  0.00     0.083 H 
ATOM     71  H53 non d ame     -36.562  21.531  26.902  0.00  0.00     0.084 H 
ENDBRANCH  58  61
ENDBRANCH  57  58
ENDBRANCH  55  57
ENDBRANCH  52  55
ENDBRANCH  49  52
ENDBRANCH  47  49
BRANCH  47  72
ATOM     72  C24 non d ame     -32.727  15.593  28.512  0.00  0.00    -0.039 C 
ATOM     73  H35 non d ame     -32.657  16.450  29.182  0.00  0.00     0.036 H 
ATOM     74  H36 non d ame     -33.610  14.955  28.533  0.00  0.00     0.036 H 
BRANCH  72  75
ATOM     75  C25 non d ame     -31.461  14.658  28.808  0.00  0.00    -0.001 C 
ATOM     76  C26 non d ame     -31.954  13.107  29.048  0.00  0.00    -0.035 C 
ATOM     77  C27 non d ame     -31.419  12.654  30.207  0.00  0.00     0.085 C 
ATOM     78  H38 non d ame     -33.027  13.081  29.236  0.00  0.00     0.036 H 
ATOM     79  H39 non d ame     -31.516  12.455  28.293  0.00  0.00     0.036 H 
ATOM     80  N5  non d ame     -30.875  13.855  30.942  0.00  0.00    -0.049 N 
ATOM     81  H40 non d ame     -32.255  12.240  30.771  0.00  0.00     0.075 H 
ATOM     82  H41 non d ame     -30.589  12.012  29.913  0.00  0.00     0.075 H 
ATOM     83  C28 non d ame     -30.824  15.052  29.860  0.00  0.00     0.193 C 
ATOM     84  H42 non d ame     -31.555  14.090  31.650  0.00  0.00     0.280 HD
ATOM     85  H43 non d ame     -29.929  13.622  31.209  0.00  0.00     0.280 HD
ATOM     86  H44 non d ame     -29.877  15.357  29.416  0.00  0.00     0.129 H 
ATOM     87  H37 non d ame     -30.653  14.816  28.093  0.00  0.00     0.046 H 
BRANCH  83  88
ATOM     88  O6  non d ame     -31.386  16.242  30.416  0.00  0.00    -0.369 OA
ATOM     89  H45 non d ame     -32.309  16.089  30.633  0.00  0.00     0.212 HD
ENDBRANCH  83  88
ENDBRANCH  72  75
ENDBRANCH  47  72
ENDBRANCH  45  47
ENDBRANCH   1  43
BRANCH   1  90
ATOM     90  C16 non d ame     -31.435  14.918  22.354  0.00  0.00    -0.035 C 
ATOM     91  H21 non d ame     -31.450  13.952  21.852  0.00  0.00     0.037 H 
ATOM     92  H22 non d ame     -32.343  15.518  22.409  0.00  0.00     0.037 H 
BRANCH  90  93
ATOM     93  C17 non d ame     -30.376  15.788  21.605  0.00  0.00    -0.059 C 
ATOM     94  H23 non d ame     -30.577  16.832  21.844  0.00  0.00     0.038 H 
BRANCH  93  95
ATOM     95  C18 non d ame     -28.918  15.466  22.064  0.00  0.00    -0.073 C 
ATOM     96  H24 non d ame     -28.213  16.045  21.467  0.00  0.00     0.028 H 
ATOM     97  H25 non d ame     -28.801  15.726  23.115  0.00  0.00     0.028 H 
ATOM     98  H26 non d ame     -28.721  14.403  21.928  0.00  0.00     0.028 H 
ENDBRANCH  93  95
BRANCH  93  99
ATOM     99  C19 non d ame     -30.516  15.634  20.088  0.00  0.00    -0.073 C 
ATOM    100  H27 non d ame     -31.430  15.084  19.862  0.00  0.00     0.028 H 
ATOM    101  H28 non d ame     -30.562  16.619  19.625  0.00  0.00     0.028 H 
ATOM    102  H29 non d ame     -29.658  15.088  19.697  0.00  0.00     0.028 H 
ENDBRANCH  93  99
ENDBRANCH  90  93
ENDBRANCH   1  90
TORSDOF 26
ENDMDL
MODEL 7
REMARK VINA RESULT:      -6.7      2.106      8.669
REMARK  26 active torsions:
REMARK  status: ('A' for Active; 'I' for Inactive)
REMARK    1  A    between atoms: C2_2  and  C3_3 
REMARK    2  A    between atoms: C4_6  and  C5_7 
REMARK       I    between atoms: C5_7  and  N2_9 
REMARK    3  A    between atoms: N2_9  and  C6_10 
REMARK    4  A    between atoms: C6_10  and  C7_11 
REMARK    5  A    between atoms: C6_10  and  C8_13 
REMARK       I    between atoms: C7_11  and  N3_14 
REMARK    6  A    between atoms: N3_14  and  C9_15 
REMARK    7  A    between atoms: C9_15  and  C10_16 
REMARK    8  A    between atoms: C9_15  and  C11_18 
REMARK       I    between atoms: C10_16  and  N4_21 
REMARK    9  A    between atoms: C11_18  and  C12_19 
REMARK   10  A    between atoms: C11_18  and  C13_20 
REMARK   11  A    between atoms: N4_21  and  C14_22 
REMARK   12  A    between atoms: C14_22  and  C15_23 
REMARK   13  A    between atoms: C14_22  and  C16_25 
REMARK       I    between atoms: C15_23  and  N6_40 
REMARK   14  A    between atoms: C16_25  and  C17_26 
REMARK   15  A    between atoms: C17_26  and  C18_27 
REMARK   16  A    between atoms: C17_26  and  C19_28 
REMARK   17  A    between atoms: C20_29  and  C21_30 
REMARK   18  A    between atoms: C20_29  and  C24_33 
REMARK   19  A    between atoms: C20_29  and  N6_40 
REMARK   20  A    between atoms: C21_30  and  C22_31 
REMARK   21  A    between atoms: C22_31  and  C23_32 
REMARK   22  A    between atoms: C23_32  and  O8_43 
REMARK   23  A    between atoms: C24_33  and  C25_34 
REMARK   24  A    between atoms: C28_38  and  O6_39 
REMARK   25  A    between atoms: C29_42  and  O8_43 
REMARK   26  A    between atoms: C29_42  and  C35_49 
ROOT
ATOM      1  C14 non d ame     -36.529  15.833  26.511  0.00  0.00     0.089 C 
ATOM      2  H20 non d ame     -37.136  16.371  27.240  0.00  0.00     0.087 H 
ENDROOT
BRANCH   1   3
ATOM      3  N4  non d ame     -35.134  16.020  26.880  0.00  0.00    -0.346 N 
ATOM      4  C10 non d ame     -34.731  17.156  27.786  0.00  0.00     0.241 C 
ATOM      5  O4  non d ame     -35.547  17.909  28.204  0.00  0.00    -0.271 OA
ATOM      6  H19 non d ame     -34.454  15.369  26.513  0.00  0.00     0.163 HD
BRANCH   4   7
ATOM      7  C9  non d ame     -33.283  17.330  28.163  0.00  0.00     0.092 C 
ATOM      8  H11 non d ame     -33.221  17.867  29.109  0.00  0.00     0.088 H 
BRANCH   7   9
ATOM      9  N3  non d ame     -32.670  16.015  28.369  0.00  0.00    -0.346 N 
ATOM     10  C7  non d ame     -31.778  15.803  29.483  0.00  0.00     0.240 C 
ATOM     11  O3  non d ame     -31.542  16.679  30.222  0.00  0.00    -0.271 OA
ATOM     12  H10 non d ame     -32.862  15.249  27.739  0.00  0.00     0.163 HD
BRANCH  10  13
ATOM     13  C6  non d ame     -31.125  14.401  29.696  0.00  0.00     0.086 C 
ATOM     14  H6  non d ame     -30.506  14.356  30.591  0.00  0.00     0.086 H 
BRANCH  13  15
ATOM     15  N2  non d ame     -32.177  13.413  29.868  0.00  0.00    -0.343 N 
ATOM     16  C5  non d ame     -31.890  12.172  30.590  0.00  0.00     0.273 C 
ATOM     17  O2  non d ame     -30.808  11.977  31.026  0.00  0.00    -0.266 OA
ATOM     18  H5  non d ame     -33.098  13.587  29.489  0.00  0.00     0.163 HD
BRANCH  16  19
ATOM     19  C4  non d ame     -32.992  11.119  30.780  0.00  0.00     0.154 A 
ATOM     20  C1  non d ame     -33.387  10.103  29.853  0.00  0.00    -0.017 A 
ATOM     21  C2  non d ame     -34.431   9.405  30.501  0.00  0.00     0.077 A 
ATOM     22  H1  non d ame     -32.979   9.902  28.863  0.00  0.00     0.091 H 
ATOM     23  O1  non d ame     -34.606   9.962  31.664  0.00  0.00    -0.218 OA
ATOM     24  N1  non d ame     -33.778  10.965  31.850  0.00  0.00    -0.123 NA
BRANCH  21  25
ATOM     25  C3  non d ame     -35.206   8.220  29.942  0.00  0.00    -0.029 C 
ATOM     26  H2  non d ame     -36.191   8.177  30.407  0.00  0.00     0.036 H 
ATOM     27  H3  non d ame     -35.319   8.336  28.864  0.00  0.00     0.036 H 
ATOM     28  H4  non d ame     -34.664   7.298  30.153  0.00  0.00     0.036 H 
ENDBRANCH  21  25
ENDBRANCH  16  19
ENDBRANCH  13  15
BRANCH  13  29
ATOM     29  C8  non d ame     -30.278  14.051  28.499  0.00  0.00    -0.049 C 
ATOM     30  H7  non d ame     -30.207  12.967  28.409  0.00  0.00     0.030 H 
ATOM     31  H8  non d ame     -30.735  14.461  27.598  0.00  0.00     0.030 H 
ATOM     32  H9  non d ame     -29.280  14.472  28.624  0.00  0.00     0.030 H 
ENDBRANCH  13  29
ENDBRANCH  10  13
ENDBRANCH   7   9
BRANCH   7  33
ATOM     33  C11 non d ame     -32.536  18.074  27.018  0.00  0.00    -0.033 C 
ATOM     34  H12 non d ame     -31.485  17.789  27.072  0.00  0.00     0.042 H 
BRANCH  33  35
ATOM     35  C12 non d ame     -33.067  17.640  25.616  0.00  0.00    -0.071 C 
ATOM     36  H13 non d ame     -34.059  17.200  25.724  0.00  0.00     0.028 H 
ATOM     37  H14 non d ame     -33.125  18.511  24.964  0.00  0.00     0.028 H 
ATOM     38  H15 non d ame     -32.389  16.905  25.182  0.00  0.00     0.028 H 
ENDBRANCH  33  35
BRANCH  33  39
ATOM     39  C13 non d ame     -32.627  19.623  27.204  0.00  0.00    -0.071 C 
ATOM     40  H16 non d ame     -31.750  20.094  26.760  0.00  0.00     0.028 H 
ATOM     41  H17 non d ame     -33.527  19.995  26.714  0.00  0.00     0.028 H 
ATOM     42  H18 non d ame     -32.669  19.859  28.267  0.00  0.00     0.028 H 
ENDBRANCH  33  39
ENDBRANCH   7  33
ENDBRANCH   4   7
ENDBRANCH   1   3
BRANCH   1  43
ATOM     43  C15 non d ame     -36.839  14.309  26.498  0.00  0.00     0.240 C 
ATOM     44  O5  non d ame     -37.835  13.904  27.004  0.00  0.00    -0.271 OA
ATOM     45  N6  non d ame     -35.898  13.355  25.846  0.00  0.00    -0.355 N 
ATOM     46  H46 non d ame     -35.051  13.687  25.408  0.00  0.00     0.162 HD
BRANCH  45  47
ATOM     47  C20 non d ame     -36.207  11.908  25.840  0.00  0.00     0.013 C 
ATOM     48  H30 non d ame     -37.092  11.753  26.457  0.00  0.00     0.072 H 
BRANCH  47  49
ATOM     49  C21 non d ame     -35.036  11.145  26.416  0.00  0.00    -0.038 C 
ATOM     50  H31 non d ame     -34.842  11.593  27.390  0.00  0.00     0.036 H 
ATOM     51  H32 non d ame     -35.308  10.091  26.344  0.00  0.00     0.036 H 
BRANCH  49  52
ATOM     52  C22 non d ame     -33.743  11.319  25.590  0.00  0.00     0.018 C 
ATOM     53  H33 non d ame     -33.197  10.382  25.695  0.00  0.00     0.048 H 
ATOM     54  H34 non d ame     -34.066  11.654  24.604  0.00  0.00     0.048 H 
BRANCH  52  55
ATOM     55  C23 non d ame     -32.798  12.427  26.131  0.00  0.00     0.259 C 
ATOM     56  O7  non d ame     -33.215  13.276  26.851  0.00  0.00    -0.265 OA
BRANCH  55  57
ATOM     57  O8  non d ame     -31.429  12.424  25.747  0.00  0.00    -0.317 OA
BRANCH  57  58
ATOM     58  C29 non d ame     -31.204  12.016  24.394  0.00  0.00     0.052 C 
ATOM     59  H47 non d ame     -30.436  11.244  24.443  0.00  0.00     0.082 H 
ATOM     60  H48 non d ame     -32.188  11.781  23.990  0.00  0.00     0.082 H 
BRANCH  58  61
ATOM     61  C35 non d ame     -30.631  13.230  23.616  0.00  0.00    -0.034 A 
ATOM     62  C30 non d ame     -30.893  14.524  24.054  0.00  0.00    -0.075 A 
ATOM     63  C31 non d ame     -30.378  15.615  23.355  0.00  0.00    -0.082 A 
ATOM     64  H49 non d ame     -31.501  14.684  24.945  0.00  0.00     0.084 H 
ATOM     65  C32 non d ame     -29.601  15.408  22.212  0.00  0.00    -0.083 A 
ATOM     66  H50 non d ame     -30.584  16.628  23.702  0.00  0.00     0.083 H 
ATOM     67  C33 non d ame     -29.346  14.115  21.777  0.00  0.00    -0.082 A 
ATOM     68  H51 non d ame     -29.195  16.256  21.660  0.00  0.00     0.083 H 
ATOM     69  C34 non d ame     -29.856  13.022  22.474  0.00  0.00    -0.075 A 
ATOM     70  H52 non d ame     -28.742  13.957  20.883  0.00  0.00     0.083 H 
ATOM     71  H53 non d ame     -29.651  12.009  22.126  0.00  0.00     0.084 H 
ENDBRANCH  58  61
ENDBRANCH  57  58
ENDBRANCH  55  57
ENDBRANCH  52  55
ENDBRANCH  49  52
ENDBRANCH  47  49
BRANCH  47  72
ATOM     72  C24 non d ame     -36.468  11.441  24.410  0.00  0.00    -0.039 C 
ATOM     73  H35 non d ame     -36.285  12.314  23.782  0.00  0.00     0.036 H 
ATOM     74  H36 non d ame     -35.862  10.543  24.283  0.00  0.00     0.036 H 
BRANCH  72  75
ATOM     75  C25 non d ame     -37.997  11.015  24.195  0.00  0.00    -0.001 C 
ATOM     76  C26 non d ame     -38.651  10.536  25.625  0.00  0.00    -0.035 C 
ATOM     77  C27 non d ame     -39.235   9.326  25.455  0.00  0.00     0.085 C 
ATOM     78  H38 non d ame     -37.862  10.339  26.350  0.00  0.00     0.036 H 
ATOM     79  H39 non d ame     -39.485  11.186  25.891  0.00  0.00     0.036 H 
ATOM     80  N5  non d ame     -38.757   8.788  24.128  0.00  0.00    -0.049 N 
ATOM     81  H40 non d ame     -38.843   8.699  26.255  0.00  0.00     0.075 H 
ATOM     82  H41 non d ame     -40.304   9.525  25.392  0.00  0.00     0.075 H 
ATOM     83  C28 non d ame     -38.096  10.041  23.353  0.00  0.00     0.193 C 
ATOM     84  H42 non d ame     -38.029   8.119  24.336  0.00  0.00     0.280 HD
ATOM     85  H43 non d ame     -39.582   8.497  23.624  0.00  0.00     0.280 HD
ATOM     86  H44 non d ame     -38.632  10.534  22.541  0.00  0.00     0.129 H 
ATOM     87  H37 non d ame     -38.554  11.753  23.617  0.00  0.00     0.046 H 
BRANCH  83  88
ATOM     88  O6  non d ame     -36.830   9.670  22.805  0.00  0.00    -0.369 OA
ATOM     89  H45 non d ame     -36.131   9.931  23.410  0.00  0.00     0.212 HD
ENDBRANCH  83  88
ENDBRANCH  72  75
ENDBRANCH  47  72
ENDBRANCH  45  47
ENDBRANCH   1  43
BRANCH   1  90
ATOM     90  C16 non d ame     -36.757  16.413  25.124  0.00  0.00    -0.035 C 
ATOM     91  H21 non d ame     -35.765  16.658  24.747  0.00  0.00     0.037 H 
ATOM     92  H22 non d ame     -37.373  15.681  24.603  0.00  0.00     0.037 H 
BRANCH  90  93
ATOM     93  C17 non d ame     -37.568  17.749  25.129  0.00  0.00    -0.059 C 
ATOM     94  H23 non d ame     -38.179  17.768  24.227  0.00  0.00     0.038 H 
BRANCH  93  95
ATOM     95  C18 non d ame     -38.528  17.851  26.357  0.00  0.00    -0.073 C 
ATOM     96  H24 non d ame     -39.015  16.890  26.519  0.00  0.00     0.028 H 
ATOM     97  H25 non d ame     -37.956  18.121  27.244  0.00  0.00     0.028 H 
ATOM     98  H26 non d ame     -39.282  18.613  26.165  0.00  0.00     0.028 H 
ENDBRANCH  93  95
BRANCH  93  99
ATOM     99  C19 non d ame     -36.630  18.957  25.068  0.00  0.00    -0.073 C 
ATOM    100  H27 non d ame     -35.597  18.613  25.009  0.00  0.00     0.028 H 
ATOM    101  H28 non d ame     -36.864  19.556  24.188  0.00  0.00     0.028 H 
ATOM    102  H29 non d ame     -36.761  19.564  25.964  0.00  0.00     0.028 H 
ENDBRANCH  93  99
ENDBRANCH  90  93
ENDBRANCH   1  90
TORSDOF 26
ENDMDL
MODEL 8
REMARK VINA RESULT:      -6.7      3.037      8.858
REMARK  26 active torsions:
REMARK  status: ('A' for Active; 'I' for Inactive)
REMARK    1  A    between atoms: C2_2  and  C3_3 
REMARK    2  A    between atoms: C4_6  and  C5_7 
REMARK       I    between atoms: C5_7  and  N2_9 
REMARK    3  A    between atoms: N2_9  and  C6_10 
REMARK    4  A    between atoms: C6_10  and  C7_11 
REMARK    5  A    between atoms: C6_10  and  C8_13 
REMARK       I    between atoms: C7_11  and  N3_14 
REMARK    6  A    between atoms: N3_14  and  C9_15 
REMARK    7  A    between atoms: C9_15  and  C10_16 
REMARK    8  A    between atoms: C9_15  and  C11_18 
REMARK       I    between atoms: C10_16  and  N4_21 
REMARK    9  A    between atoms: C11_18  and  C12_19 
REMARK   10  A    between atoms: C11_18  and  C13_20 
REMARK   11  A    between atoms: N4_21  and  C14_22 
REMARK   12  A    between atoms: C14_22  and  C15_23 
REMARK   13  A    between atoms: C14_22  and  C16_25 
REMARK       I    between atoms: C15_23  and  N6_40 
REMARK   14  A    between atoms: C16_25  and  C17_26 
REMARK   15  A    between atoms: C17_26  and  C18_27 
REMARK   16  A    between atoms: C17_26  and  C19_28 
REMARK   17  A    between atoms: C20_29  and  C21_30 
REMARK   18  A    between atoms: C20_29  and  C24_33 
REMARK   19  A    between atoms: C20_29  and  N6_40 
REMARK   20  A    between atoms: C21_30  and  C22_31 
REMARK   21  A    between atoms: C22_31  and  C23_32 
REMARK   22  A    between atoms: C23_32  and  O8_43 
REMARK   23  A    between atoms: C24_33  and  C25_34 
REMARK   24  A    between atoms: C28_38  and  O6_39 
REMARK   25  A    between atoms: C29_42  and  O8_43 
REMARK   26  A    between atoms: C29_42  and  C35_49 
ROOT
ATOM      1  C14 non d ame     -33.892   6.925  27.841  0.00  0.00     0.089 C 
ATOM      2  H20 non d ame     -33.415   6.453  28.701  0.00  0.00     0.087 H 
ENDROOT
BRANCH   1   3
ATOM      3  N4  non d ame     -34.369   8.232  28.268  0.00  0.00    -0.346 N 
ATOM      4  C10 non d ame     -34.863   8.440  29.678  0.00  0.00     0.241 C 
ATOM      5  O4  non d ame     -34.870   7.539  30.450  0.00  0.00    -0.271 OA
ATOM      6  H19 non d ame     -34.358   8.985  27.595  0.00  0.00     0.163 HD
BRANCH   4   7
ATOM      7  C9  non d ame     -35.348   9.801  30.104  0.00  0.00     0.092 C 
ATOM      8  H11 non d ame     -35.319   9.867  31.191  0.00  0.00     0.088 H 
BRANCH   7   9
ATOM      9  N3  non d ame     -34.442  10.828  29.582  0.00  0.00    -0.346 N 
ATOM     10  C7  non d ame     -33.288  11.228  30.350  0.00  0.00     0.240 C 
ATOM     11  O3  non d ame     -33.075  10.735  31.390  0.00  0.00    -0.271 OA
ATOM     12  H10 non d ame     -34.614  11.264  28.688  0.00  0.00     0.163 HD
BRANCH  10  13
ATOM     13  C6  non d ame     -32.329  12.325  29.791  0.00  0.00     0.086 C 
ATOM     14  H6  non d ame     -31.892  12.053  28.830  0.00  0.00     0.086 H 
BRANCH  13  15
ATOM     15  N2  non d ame     -33.086  13.546  29.573  0.00  0.00    -0.343 N 
ATOM     16  C5  non d ame     -32.555  14.573  28.674  0.00  0.00     0.273 C 
ATOM     17  O2  non d ame     -31.517  14.407  28.132  0.00  0.00    -0.266 OA
ATOM     18  H5  non d ame     -33.971  13.681  30.042  0.00  0.00     0.163 HD
BRANCH  16  19
ATOM     19  C4  non d ame     -33.345  15.869  28.433  0.00  0.00     0.154 A 
ATOM     20  C1  non d ame     -34.662  15.990  27.886  0.00  0.00    -0.017 A 
ATOM     21  C2  non d ame     -34.925  17.378  27.875  0.00  0.00     0.077 A 
ATOM     22  H1  non d ame     -35.325  15.193  27.549  0.00  0.00     0.091 H 
ATOM     23  O1  non d ame     -33.876  17.974  28.361  0.00  0.00    -0.218 OA
ATOM     24  N1  non d ame     -32.941  17.115  28.694  0.00  0.00    -0.123 NA
BRANCH  21  25
ATOM     25  C3  non d ame     -36.200  18.050  27.384  0.00  0.00    -0.029 C 
ATOM     26  H2  non d ame     -36.954  17.291  27.177  0.00  0.00     0.036 H 
ATOM     27  H3  non d ame     -36.571  18.729  28.152  0.00  0.00     0.036 H 
ATOM     28  H4  non d ame     -35.989  18.611  26.474  0.00  0.00     0.036 H 
ENDBRANCH  21  25
ENDBRANCH  16  19
ENDBRANCH  13  15
BRANCH  13  29
ATOM     29  C8  non d ame     -31.218  12.575  30.778  0.00  0.00    -0.049 C 
ATOM     30  H7  non d ame     -31.327  11.899  31.627  0.00  0.00     0.030 H 
ATOM     31  H8  non d ame     -30.257  12.398  30.296  0.00  0.00     0.030 H 
ATOM     32  H9  non d ame     -31.266  13.607  31.127  0.00  0.00     0.030 H 
ENDBRANCH  13  29
ENDBRANCH  10  13
ENDBRANCH   7   9
BRANCH   7  33
ATOM     33  C11 non d ame     -36.780  10.041  29.540  0.00  0.00    -0.033 C 
ATOM     34  H12 non d ame     -37.199   9.069  29.282  0.00  0.00     0.042 H 
BRANCH  33  35
ATOM     35  C12 non d ame     -37.713  10.683  30.613  0.00  0.00    -0.071 C 
ATOM     36  H13 non d ame     -38.060   9.912  31.301  0.00  0.00     0.028 H 
ATOM     37  H14 non d ame     -37.161  11.442  31.167  0.00  0.00     0.028 H 
ATOM     38  H15 non d ame     -38.569  11.144  30.121  0.00  0.00     0.028 H 
ENDBRANCH  33  35
BRANCH  33  39
ATOM     39  C13 non d ame     -36.731  10.907  28.240  0.00  0.00    -0.071 C 
ATOM     40  H16 non d ame     -37.299  11.825  28.394  0.00  0.00     0.028 H 
ATOM     41  H17 non d ame     -35.695  11.155  28.007  0.00  0.00     0.028 H 
ATOM     42  H18 non d ame     -37.164  10.345  27.413  0.00  0.00     0.028 H 
ENDBRANCH  33  39
ENDBRANCH   7  33
ENDBRANCH   4   7
ENDBRANCH   1   3
BRANCH   1  43
ATOM     43  C15 non d ame     -32.905   7.121  26.656  0.00  0.00     0.240 C 
ATOM     44  O5  non d ame     -31.885   6.512  26.629  0.00  0.00    -0.271 OA
ATOM     45  N6  non d ame     -33.235   8.063  25.548  0.00  0.00    -0.355 N 
ATOM     46  H46 non d ame     -34.101   8.583  25.557  0.00  0.00     0.162 HD
BRANCH  45  47
ATOM     47  C20 non d ame     -32.286   8.237  24.427  0.00  0.00     0.013 C 
ATOM     48  H30 non d ame     -31.285   8.021  24.798  0.00  0.00     0.072 H 
BRANCH  47  49
ATOM     49  C21 non d ame     -32.357   9.663  23.930  0.00  0.00    -0.038 C 
ATOM     50  H31 non d ame     -32.450   9.593  22.846  0.00  0.00     0.036 H 
ATOM     51  H32 non d ame     -33.143  10.140  24.515  0.00  0.00     0.036 H 
BRANCH  49  52
ATOM     52  C22 non d ame     -31.062  10.459  24.207  0.00  0.00     0.018 C 
ATOM     53  H33 non d ame     -30.295   9.713  24.408  0.00  0.00     0.048 H 
ATOM     54  H34 non d ame     -30.950  11.143  23.365  0.00  0.00     0.048 H 
BRANCH  52  55
ATOM     55  C23 non d ame     -31.136  11.352  25.476  0.00  0.00     0.259 C 
ATOM     56  O7  non d ame     -31.471  10.891  26.519  0.00  0.00    -0.265 OA
BRANCH  55  57
ATOM     57  O8  non d ame     -30.809  12.733  25.377  0.00  0.00    -0.317 OA
BRANCH  57  58
ATOM     58  C29 non d ame     -31.800  13.518  24.709  0.00  0.00     0.052 C 
ATOM     59  H47 non d ame     -32.534  12.807  24.328  0.00  0.00     0.082 H 
ATOM     60  H48 non d ame     -32.103  14.283  25.424  0.00  0.00     0.082 H 
BRANCH  58  61
ATOM     61  C35 non d ame     -31.122  14.218  23.501  0.00  0.00    -0.034 A 
ATOM     62  C30 non d ame     -31.588  15.453  23.060  0.00  0.00    -0.075 A 
ATOM     63  C31 non d ame     -30.979  16.082  21.975  0.00  0.00    -0.082 A 
ATOM     64  H49 non d ame     -32.430  15.928  23.564  0.00  0.00     0.084 H 
ATOM     65  C32 non d ame     -29.902  15.470  21.328  0.00  0.00    -0.083 A 
ATOM     66  H50 non d ame     -31.345  17.050  21.632  0.00  0.00     0.083 H 
ATOM     67  C33 non d ame     -29.443  14.236  21.770  0.00  0.00    -0.082 A 
ATOM     68  H51 non d ame     -29.420  15.955  20.479  0.00  0.00     0.083 H 
ATOM     69  C34 non d ame     -30.047  13.605  22.855  0.00  0.00    -0.075 A 
ATOM     70  H52 non d ame     -28.604  13.760  21.262  0.00  0.00     0.083 H 
ATOM     71  H53 non d ame     -29.680  12.637  23.197  0.00  0.00     0.084 H 
ENDBRANCH  58  61
ENDBRANCH  57  58
ENDBRANCH  55  57
ENDBRANCH  52  55
ENDBRANCH  49  52
ENDBRANCH  47  49
BRANCH  47  72
ATOM     72  C24 non d ame     -32.648   7.283  23.291  0.00  0.00    -0.039 C 
ATOM     73  H35 non d ame     -31.795   6.610  23.194  0.00  0.00     0.036 H 
ATOM     74  H36 non d ame     -33.629   6.884  23.549  0.00  0.00     0.036 H 
BRANCH  72  75
ATOM     75  C25 non d ame     -32.803   8.054  21.896  0.00  0.00    -0.001 C 
ATOM     76  C26 non d ame     -34.390   8.133  21.473  0.00  0.00    -0.035 C 
ATOM     77  C27 non d ame     -34.526   7.682  20.203  0.00  0.00     0.085 C 
ATOM     78  H38 non d ame     -34.969   7.420  22.060  0.00  0.00     0.036 H 
ATOM     79  H39 non d ame     -34.709   9.173  21.409  0.00  0.00     0.036 H 
ATOM     80  N5  non d ame     -33.232   6.998  19.836  0.00  0.00    -0.049 N 
ATOM     81  H40 non d ame     -35.323   6.938  20.242  0.00  0.00     0.075 H 
ATOM     82  H41 non d ame     -34.643   8.573  19.588  0.00  0.00     0.075 H 
ATOM     83  C28 non d ame     -32.158   7.450  20.954  0.00  0.00     0.193 C 
ATOM     84  H42 non d ame     -33.395   6.005  19.930  0.00  0.00     0.280 HD
ATOM     85  H43 non d ame     -32.949   7.380  18.945  0.00  0.00     0.280 HD
ATOM     86  H44 non d ame     -31.400   8.198  20.722  0.00  0.00     0.129 H 
ATOM     87  H37 non d ame     -32.237   8.985  21.873  0.00  0.00     0.046 H 
BRANCH  83  88
ATOM     88  O6  non d ame     -31.439   6.314  21.435  0.00  0.00    -0.369 OA
ATOM     89  H45 non d ame     -31.383   6.353  22.393  0.00  0.00     0.212 HD
ENDBRANCH  83  88
ENDBRANCH  72  75
ENDBRANCH  47  72
ENDBRANCH  45  47
ENDBRANCH   1  43
BRANCH   1  90
ATOM     90  C16 non d ame     -35.077   6.088  27.387  0.00  0.00    -0.035 C 
ATOM     91  H21 non d ame     -34.719   5.523  26.527  0.00  0.00     0.037 H 
ATOM     92  H22 non d ame     -35.420   5.565  28.279  0.00  0.00     0.037 H 
BRANCH  90  93
ATOM     93  C17 non d ame     -36.287   6.938  26.882  0.00  0.00    -0.059 C 
ATOM     94  H23 non d ame     -36.035   7.989  27.023  0.00  0.00     0.038 H 
BRANCH  93  95
ATOM     95  C18 non d ame     -36.568   6.716  25.361  0.00  0.00    -0.073 C 
ATOM     96  H24 non d ame     -36.318   5.691  25.091  0.00  0.00     0.028 H 
ATOM     97  H25 non d ame     -37.623   6.898  25.156  0.00  0.00     0.028 H 
ATOM     98  H26 non d ame     -35.961   7.405  24.775  0.00  0.00     0.028 H 
ENDBRANCH  93  95
BRANCH  93  99
ATOM     99  C19 non d ame     -37.540   6.654  27.714  0.00  0.00    -0.073 C 
ATOM    100  H27 non d ame     -37.363   5.788  28.354  0.00  0.00     0.028 H 
ATOM    101  H28 non d ame     -37.770   7.521  28.333  0.00  0.00     0.028 H 
ATOM    102  H29 non d ame     -38.379   6.450  27.050  0.00  0.00     0.028 H 
ENDBRANCH  93  99
ENDBRANCH  90  93
ENDBRANCH   1  90
TORSDOF 26
ENDMDL
MODEL 9
REMARK VINA RESULT:      -6.5      2.752      7.682
REMARK  26 active torsions:
REMARK  status: ('A' for Active; 'I' for Inactive)
REMARK    1  A    between atoms: C2_2  and  C3_3 
REMARK    2  A    between atoms: C4_6  and  C5_7 
REMARK       I    between atoms: C5_7  and  N2_9 
REMARK    3  A    between atoms: N2_9  and  C6_10 
REMARK    4  A    between atoms: C6_10  and  C7_11 
REMARK    5  A    between atoms: C6_10  and  C8_13 
REMARK       I    between atoms: C7_11  and  N3_14 
REMARK    6  A    between atoms: N3_14  and  C9_15 
REMARK    7  A    between atoms: C9_15  and  C10_16 
REMARK    8  A    between atoms: C9_15  and  C11_18 
REMARK       I    between atoms: C10_16  and  N4_21 
REMARK    9  A    between atoms: C11_18  and  C12_19 
REMARK   10  A    between atoms: C11_18  and  C13_20 
REMARK   11  A    between atoms: N4_21  and  C14_22 
REMARK   12  A    between atoms: C14_22  and  C15_23 
REMARK   13  A    between atoms: C14_22  and  C16_25 
REMARK       I    between atoms: C15_23  and  N6_40 
REMARK   14  A    between atoms: C16_25  and  C17_26 
REMARK   15  A    between atoms: C17_26  and  C18_27 
REMARK   16  A    between atoms: C17_26  and  C19_28 
REMARK   17  A    between atoms: C20_29  and  C21_30 
REMARK   18  A    between atoms: C20_29  and  C24_33 
REMARK   19  A    between atoms: C20_29  and  N6_40 
REMARK   20  A    between atoms: C21_30  and  C22_31 
REMARK   21  A    between atoms: C22_31  and  C23_32 
REMARK   22  A    between atoms: C23_32  and  O8_43 
REMARK   23  A    between atoms: C24_33  and  C25_34 
REMARK   24  A    between atoms: C28_38  and  O6_39 
REMARK   25  A    between atoms: C29_42  and  O8_43 
REMARK   26  A    between atoms: C29_42  and  C35_49 
ROOT
ATOM      1  C14 non d ame     -32.755  13.033  27.694  0.00  0.00     0.089 C 
ATOM      2  H20 non d ame     -33.819  13.040  27.458  0.00  0.00     0.087 H 
ENDROOT
BRANCH   1   3
ATOM      3  N4  non d ame     -32.185  11.825  27.114  0.00  0.00    -0.346 N 
ATOM      4  C10 non d ame     -32.960  11.033  26.092  0.00  0.00     0.241 C 
ATOM      5  O4  non d ame     -34.042  11.385  25.753  0.00  0.00    -0.271 OA
ATOM      6  H19 non d ame     -31.265  11.541  27.418  0.00  0.00     0.163 HD
BRANCH   4   7
ATOM      7  C9  non d ame     -32.353   9.789  25.498  0.00  0.00     0.092 C 
ATOM      8  H11 non d ame     -31.449   9.533  26.049  0.00  0.00     0.088 H 
BRANCH   7   9
ATOM      9  N3  non d ame     -33.286   8.668  25.652  0.00  0.00    -0.346 N 
ATOM     10  C7  non d ame     -33.195   7.808  26.806  0.00  0.00     0.240 C 
ATOM     11  O3  non d ame     -32.376   8.002  27.620  0.00  0.00    -0.271 OA
ATOM     12  H10 non d ame     -33.997   8.487  24.957  0.00  0.00     0.163 HD
BRANCH  10  13
ATOM     13  C6  non d ame     -34.189   6.615  26.963  0.00  0.00     0.086 C 
ATOM     14  H6  non d ame     -33.729   5.742  27.426  0.00  0.00     0.086 H 
BRANCH  13  15
ATOM     15  N2  non d ame     -35.280   7.022  27.832  0.00  0.00    -0.343 N 
ATOM     16  C5  non d ame     -35.448   6.370  29.133  0.00  0.00     0.273 C 
ATOM     17  O2  non d ame     -34.701   5.517  29.469  0.00  0.00    -0.266 OA
ATOM     18  H5  non d ame     -35.915   7.750  27.536  0.00  0.00     0.163 HD
BRANCH  16  19
ATOM     19  C4  non d ame     -36.596   6.791  30.062  0.00  0.00     0.154 A 
ATOM     20  C1  non d ame     -37.156   8.100  30.208  0.00  0.00    -0.017 A 
ATOM     21  C2  non d ame     -38.174   7.955  31.176  0.00  0.00     0.077 A 
ATOM     22  H1  non d ame     -36.867   9.015  29.690  0.00  0.00     0.091 H 
ATOM     23  O1  non d ame     -38.191   6.705  31.537  0.00  0.00    -0.218 OA
ATOM     24  N1  non d ame     -37.279   6.006  30.901  0.00  0.00    -0.123 NA
BRANCH  21  25
ATOM     25  C3  non d ame     -39.085   9.058  31.699  0.00  0.00    -0.029 C 
ATOM     26  H2  non d ame     -38.579  10.019  31.611  0.00  0.00     0.036 H 
ATOM     27  H3  non d ame     -40.005   9.077  31.115  0.00  0.00     0.036 H 
ATOM     28  H4  non d ame     -39.323   8.868  32.745  0.00  0.00     0.036 H 
ENDBRANCH  21  25
ENDBRANCH  16  19
ENDBRANCH  13  15
BRANCH  13  29
ATOM     29  C8  non d ame     -34.725   6.223  25.609  0.00  0.00    -0.049 C 
ATOM     30  H7  non d ame     -34.461   6.988  24.879  0.00  0.00     0.030 H 
ATOM     31  H8  non d ame     -34.291   5.270  25.310  0.00  0.00     0.030 H 
ATOM     32  H9  non d ame     -35.810   6.129  25.662  0.00  0.00     0.030 H 
ENDBRANCH  13  29
ENDBRANCH  10  13
ENDBRANCH   7   9
BRANCH   7  33
ATOM     33  C11 non d ame     -32.071  10.021  23.985  0.00  0.00    -0.033 C 
ATOM     34  H12 non d ame     -32.481  10.995  23.719  0.00  0.00     0.042 H 
BRANCH  33  35
ATOM     35  C12 non d ame     -30.538  10.062  23.692  0.00  0.00    -0.071 C 
ATOM     36  H13 non d ame     -30.056   9.204  24.160  0.00  0.00     0.028 H 
ATOM     37  H14 non d ame     -30.373  10.030  22.616  0.00  0.00     0.028 H 
ATOM     38  H15 non d ame     -30.116  10.981  24.098  0.00  0.00     0.028 H 
ENDBRANCH  33  35
BRANCH  33  39
ATOM     39  C13 non d ame     -32.785   8.941  23.110  0.00  0.00    -0.071 C 
ATOM     40  H16 non d ame     -32.521   7.947  23.472  0.00  0.00     0.028 H 
ATOM     41  H17 non d ame     -33.866   9.076  23.176  0.00  0.00     0.028 H 
ATOM     42  H18 non d ame     -32.470   9.046  22.072  0.00  0.00     0.028 H 
ENDBRANCH  33  39
ENDBRANCH   7  33
ENDBRANCH   4   7
ENDBRANCH   1   3
BRANCH   1  43
ATOM     43  C15 non d ame     -32.013  14.264  27.099  0.00  0.00     0.240 C 
ATOM     44  O5  non d ame     -30.960  14.591  27.543  0.00  0.00    -0.271 OA
ATOM     45  N6  non d ame     -32.613  15.032  25.971  0.00  0.00    -0.355 N 
ATOM     46  H46 non d ame     -33.505  14.761  25.583  0.00  0.00     0.162 HD
BRANCH  45  47
ATOM     47  C20 non d ame     -31.895  16.200  25.416  0.00  0.00     0.013 C 
ATOM     48  H30 non d ame     -31.019  16.382  26.039  0.00  0.00     0.072 H 
BRANCH  47  49
ATOM     49  C21 non d ame     -32.807  17.405  25.441  0.00  0.00    -0.038 C 
ATOM     50  H31 non d ame     -32.558  17.982  24.549  0.00  0.00     0.036 H 
ATOM     51  H32 non d ame     -33.814  17.009  25.571  0.00  0.00     0.036 H 
BRANCH  49  52
ATOM     52  C22 non d ame     -32.543  18.332  26.648  0.00  0.00     0.018 C 
ATOM     53  H33 non d ame     -31.539  18.087  26.994  0.00  0.00     0.048 H 
ATOM     54  H34 non d ame     -32.770  19.340  26.301  0.00  0.00     0.048 H 
BRANCH  52  55
ATOM     55  C23 non d ame     -33.487  18.072  27.855  0.00  0.00     0.259 C 
ATOM     56  O7  non d ame     -33.471  17.027  28.418  0.00  0.00    -0.265 OA
BRANCH  55  57
ATOM     57  O8  non d ame     -34.381  19.096  28.272  0.00  0.00    -0.317 OA
BRANCH  57  58
ATOM     58  C29 non d ame     -35.757  18.703  28.273  0.00  0.00     0.052 C 
ATOM     59  H47 non d ame     -35.766  17.663  28.600  0.00  0.00     0.082 H 
ATOM     60  H48 non d ame     -36.280  19.462  28.855  0.00  0.00     0.082 H 
BRANCH  58  61
ATOM     61  C35 non d ame     -36.273  18.764  26.811  0.00  0.00    -0.034 A 
ATOM     62  C30 non d ame     -36.697  17.602  26.173  0.00  0.00    -0.075 A 
ATOM     63  C31 non d ame     -37.161  17.656  24.860  0.00  0.00    -0.082 A 
ATOM     64  H49 non d ame     -36.666  16.649  26.702  0.00  0.00     0.084 H 
ATOM     65  C32 non d ame     -37.197  18.878  24.182  0.00  0.00    -0.083 A 
ATOM     66  H50 non d ame     -37.494  16.744  24.363  0.00  0.00     0.083 H 
ATOM     67  C33 non d ame     -36.769  20.034  24.821  0.00  0.00    -0.082 A 
ATOM     68  H51 non d ame     -37.558  18.929  23.155  0.00  0.00     0.083 H 
ATOM     69  C34 non d ame     -36.307  19.985  26.135  0.00  0.00    -0.075 A 
ATOM     70  H52 non d ame     -36.796  20.985  24.289  0.00  0.00     0.083 H 
ATOM     71  H53 non d ame     -35.974  20.897  26.630  0.00  0.00     0.084 H 
ENDBRANCH  58  61
ENDBRANCH  57  58
ENDBRANCH  55  57
ENDBRANCH  52  55
ENDBRANCH  49  52
ENDBRANCH  47  49
BRANCH  47  72
ATOM     72  C24 non d ame     -31.471  15.910  23.977  0.00  0.00    -0.039 C 
ATOM     73  H35 non d ame     -32.275  15.307  23.554  0.00  0.00     0.036 H 
ATOM     74  H36 non d ame     -31.233  16.882  23.544  0.00  0.00     0.036 H 
BRANCH  72  75
ATOM     75  C25 non d ame     -30.136  15.027  23.919  0.00  0.00    -0.001 C 
ATOM     76  C26 non d ame     -29.185  15.531  22.676  0.00  0.00    -0.035 C 
ATOM     77  C27 non d ame     -28.846  14.458  21.923  0.00  0.00     0.085 C 
ATOM     78  H38 non d ame     -29.763  16.151  21.991  0.00  0.00     0.036 H 
ATOM     79  H39 non d ame     -28.228  15.887  23.058  0.00  0.00     0.036 H 
ATOM     80  N5  non d ame     -29.742  13.320  22.347  0.00  0.00    -0.049 N 
ATOM     81  H40 non d ame     -29.084  14.736  20.896  0.00  0.00     0.075 H 
ATOM     82  H41 non d ame     -27.818  14.222  22.199  0.00  0.00     0.075 H 
ATOM     83  C28 non d ame     -30.410  13.777  23.744  0.00  0.00     0.193 C 
ATOM     84  H42 non d ame     -30.470  13.253  21.649  0.00  0.00     0.280 HD
ATOM     85  H43 non d ame     -29.137  12.530  22.523  0.00  0.00     0.280 HD
ATOM     86  H44 non d ame     -30.057  13.362  24.688  0.00  0.00     0.129 H 
ATOM     87  H37 non d ame     -29.664  14.927  24.897  0.00  0.00     0.046 H 
BRANCH  83  88
ATOM     88  O6  non d ame     -31.817  13.531  23.721  0.00  0.00    -0.369 OA
ATOM     89  H45 non d ame     -32.066  13.023  24.497  0.00  0.00     0.212 HD
ENDBRANCH  83  88
ENDBRANCH  72  75
ENDBRANCH  47  72
ENDBRANCH  45  47
ENDBRANCH   1  43
BRANCH   1  90
ATOM     90  C16 non d ame     -32.561  12.998  29.201  0.00  0.00    -0.035 C 
ATOM     91  H21 non d ame     -31.882  13.820  29.424  0.00  0.00     0.037 H 
ATOM     92  H22 non d ame     -33.567  12.993  29.621  0.00  0.00     0.037 H 
BRANCH  90  93
ATOM     93  C17 non d ame     -31.863  11.699  29.714  0.00  0.00    -0.059 C 
ATOM     94  H23 non d ame     -31.491  11.158  28.844  0.00  0.00     0.038 H 
BRANCH  93  95
ATOM     95  C18 non d ame     -30.642  12.011  30.638  0.00  0.00    -0.073 C 
ATOM     96  H24 non d ame     -30.592  13.083  30.823  0.00  0.00     0.028 H 
ATOM     97  H25 non d ame     -30.760  11.484  31.585  0.00  0.00     0.028 H 
ATOM     98  H26 non d ame     -29.725  11.682  30.151  0.00  0.00     0.028 H 
ENDBRANCH  93  95
BRANCH  93  99
ATOM     99  C19 non d ame     -32.864  10.783  30.424  0.00  0.00    -0.073 C 
ATOM    100  H27 non d ame     -32.697   9.752  30.113  0.00  0.00     0.028 H 
ATOM    101  H28 non d ame     -32.728  10.864  31.503  0.00  0.00     0.028 H 
ATOM    102  H29 non d ame     -33.878  11.083  30.163  0.00  0.00     0.028 H 
ENDBRANCH  93  99
ENDBRANCH  90  93
ENDBRANCH   1  90
TORSDOF 26
ENDMDL
MODEL 10
REMARK VINA RESULT:      -6.4      3.144      7.763
REMARK  26 active torsions:
REMARK  status: ('A' for Active; 'I' for Inactive)
REMARK    1  A    between atoms: C2_2  and  C3_3 
REMARK    2  A    between atoms: C4_6  and  C5_7 
REMARK       I    between atoms: C5_7  and  N2_9 
REMARK    3  A    between atoms: N2_9  and  C6_10 
REMARK    4  A    between atoms: C6_10  and  C7_11 
REMARK    5  A    between atoms: C6_10  and  C8_13 
REMARK       I    between atoms: C7_11  and  N3_14 
REMARK    6  A    between atoms: N3_14  and  C9_15 
REMARK    7  A    between atoms: C9_15  and  C10_16 
REMARK    8  A    between atoms: C9_15  and  C11_18 
REMARK       I    between atoms: C10_16  and  N4_21 
REMARK    9  A    between atoms: C11_18  and  C12_19 
REMARK   10  A    between atoms: C11_18  and  C13_20 
REMARK   11  A    between atoms: N4_21  and  C14_22 
REMARK   12  A    between atoms: C14_22  and  C15_23 
REMARK   13  A    between atoms: C14_22  and  C16_25 
REMARK       I    between atoms: C15_23  and  N6_40 
REMARK   14  A    between atoms: C16_25  and  C17_26 
REMARK   15  A    between atoms: C17_26  and  C18_27 
REMARK   16  A    between atoms: C17_26  and  C19_28 
REMARK   17  A    between atoms: C20_29  and  C21_30 
REMARK   18  A    between atoms: C20_29  and  C24_33 
REMARK   19  A    between atoms: C20_29  and  N6_40 
REMARK   20  A    between atoms: C21_30  and  C22_31 
REMARK   21  A    between atoms: C22_31  and  C23_32 
REMARK   22  A    between atoms: C23_32  and  O8_43 
REMARK   23  A    between atoms: C24_33  and  C25_34 
REMARK   24  A    between atoms: C28_38  and  O6_39 
REMARK   25  A    between atoms: C29_42  and  O8_43 
REMARK   26  A    between atoms: C29_42  and  C35_49 
ROOT
ATOM      1  C14 non d ame     -33.286  10.081  29.983  0.00  0.00     0.089 C 
ATOM      2  H20 non d ame     -32.459   9.417  29.731  0.00  0.00     0.087 H 
ENDROOT
BRANCH   1   3
ATOM      3  N4  non d ame     -33.860  10.559  28.734  0.00  0.00    -0.346 N 
ATOM      4  C10 non d ame     -33.166  10.287  27.423  0.00  0.00     0.241 C 
ATOM      5  O4  non d ame     -32.145   9.683  27.399  0.00  0.00    -0.271 OA
ATOM      6  H19 non d ame     -34.729  11.072  28.777  0.00  0.00     0.163 HD
BRANCH   4   7
ATOM      7  C9  non d ame     -33.778  10.784  26.140  0.00  0.00     0.092 C 
ATOM      8  H11 non d ame     -34.856  10.881  26.270  0.00  0.00     0.088 H 
BRANCH   7   9
ATOM      9  N3  non d ame     -33.257  12.120  25.835  0.00  0.00    -0.346 N 
ATOM     10  C7  non d ame     -33.846  13.282  26.455  0.00  0.00     0.240 C 
ATOM     11  O3  non d ame     -34.740  13.160  27.201  0.00  0.00    -0.271 OA
ATOM     12  H10 non d ame     -32.487  12.241  25.193  0.00  0.00     0.163 HD
BRANCH  10  13
ATOM     13  C6  non d ame     -33.289  14.701  26.125  0.00  0.00     0.086 C 
ATOM     14  H6  non d ame     -32.532  15.033  26.835  0.00  0.00     0.086 H 
BRANCH  13  15
ATOM     15  N2  non d ame     -32.647  14.664  24.821  0.00  0.00    -0.343 N 
ATOM     16  C5  non d ame     -31.502  15.538  24.555  0.00  0.00     0.273 C 
ATOM     17  O2  non d ame     -31.107  16.269  25.395  0.00  0.00    -0.266 OA
ATOM     18  H5  non d ame     -32.993  14.038  24.108  0.00  0.00     0.163 HD
BRANCH  16  19
ATOM     19  C4  non d ame     -30.814  15.508  23.182  0.00  0.00     0.154 A 
ATOM     20  C1  non d ame     -31.440  15.596  21.898  0.00  0.00    -0.017 A 
ATOM     21  C2  non d ame     -30.378  15.522  20.969  0.00  0.00     0.077 A 
ATOM     22  H1  non d ame     -32.502  15.699  21.675  0.00  0.00     0.091 H 
ATOM     23  O1  non d ame     -29.276  15.406  21.650  0.00  0.00    -0.218 OA
ATOM     24  N1  non d ame     -29.504  15.395  22.943  0.00  0.00    -0.123 NA
BRANCH  21  25
ATOM     25  C3  non d ame     -30.502  15.570  19.452  0.00  0.00    -0.029 C 
ATOM     26  H2  non d ame     -29.737  14.937  19.004  0.00  0.00     0.036 H 
ATOM     27  H3  non d ame     -31.488  15.212  19.157  0.00  0.00     0.036 H 
ATOM     28  H4  non d ame     -30.371  16.596  19.109  0.00  0.00     0.036 H 
ENDBRANCH  21  25
ENDBRANCH  16  19
ENDBRANCH  13  15
BRANCH  13  29
ATOM     29  C8  non d ame     -34.419  15.698  26.116  0.00  0.00    -0.049 C 
ATOM     30  H7  non d ame     -34.203  16.487  25.395  0.00  0.00     0.030 H 
ATOM     31  H8  non d ame     -35.345  15.195  25.836  0.00  0.00     0.030 H 
ATOM     32  H9  non d ame     -34.528  16.134  27.109  0.00  0.00     0.030 H 
ENDBRANCH  13  29
ENDBRANCH  10  13
ENDBRANCH   7   9
BRANCH   7  33
ATOM     33  C11 non d ame     -33.413   9.811  24.981  0.00  0.00    -0.033 C 
ATOM     34  H12 non d ame     -33.144   8.854  25.427  0.00  0.00     0.042 H 
BRANCH  33  35
ATOM     35  C12 non d ame     -34.635   9.563  24.041  0.00  0.00    -0.071 C 
ATOM     36  H13 non d ame     -34.516   8.604  23.537  0.00  0.00     0.028 H 
ATOM     37  H14 non d ame     -35.550   9.553  24.631  0.00  0.00     0.028 H 
ATOM     38  H15 non d ame     -34.689  10.359  23.299  0.00  0.00     0.028 H 
ENDBRANCH  33  35
BRANCH  33  39
ATOM     39  C13 non d ame     -32.179  10.335  24.178  0.00  0.00    -0.071 C 
ATOM     40  H16 non d ame     -31.411   9.562  24.148  0.00  0.00     0.028 H 
ATOM     41  H17 non d ame     -32.485  10.584  23.162  0.00  0.00     0.028 H 
ATOM     42  H18 non d ame     -31.780  11.225  24.665  0.00  0.00     0.028 H 
ENDBRANCH  33  39
ENDBRANCH   7  33
ENDBRANCH   4   7
ENDBRANCH   1   3
BRANCH   1  43
ATOM     43  C15 non d ame     -34.397   9.353  30.793  0.00  0.00     0.240 C 
ATOM     44  O5  non d ame     -34.605   9.663  31.922  0.00  0.00    -0.271 OA
ATOM     45  N6  non d ame     -35.209   8.276  30.159  0.00  0.00    -0.355 N 
ATOM     46  H46 non d ame     -35.045   8.007  29.199  0.00  0.00     0.162 HD
BRANCH  45  47
ATOM     47  C20 non d ame     -36.263   7.595  30.942  0.00  0.00     0.013 C 
ATOM     48  H30 non d ame     -36.051   7.755  31.999  0.00  0.00     0.072 H 
BRANCH  47  49
ATOM     49  C21 non d ame     -36.241   6.116  30.629  0.00  0.00    -0.038 C 
ATOM     50  H31 non d ame     -36.752   5.631  31.461  0.00  0.00     0.036 H 
ATOM     51  H32 non d ame     -36.636   6.023  29.617  0.00  0.00     0.036 H 
BRANCH  49  52
ATOM     52  C22 non d ame     -34.812   5.532  30.595  0.00  0.00     0.018 C 
ATOM     53  H33 non d ame     -34.156   6.337  30.923  0.00  0.00     0.048 H 
ATOM     54  H34 non d ame     -34.859   4.602  31.163  0.00  0.00     0.048 H 
BRANCH  52  55
ATOM     55  C23 non d ame     -34.329   5.139  29.171  0.00  0.00     0.259 C 
ATOM     56  O7  non d ame     -33.396   4.417  29.028  0.00  0.00    -0.265 OA
BRANCH  55  57
ATOM     57  O8  non d ame     -35.008   5.663  28.036  0.00  0.00    -0.317 OA
BRANCH  57  58
ATOM     58  C29 non d ame     -34.397   6.831  27.481  0.00  0.00     0.052 C 
ATOM     59  H47 non d ame     -35.213   7.529  27.293  0.00  0.00     0.082 H 
ATOM     60  H48 non d ame     -33.596   7.101  28.169  0.00  0.00     0.082 H 
BRANCH  58  61
ATOM     61  C35 non d ame     -33.763   6.439  26.120  0.00  0.00    -0.034 A 
ATOM     62  C30 non d ame     -32.383   6.482  25.956  0.00  0.00    -0.075 A 
ATOM     63  C31 non d ame     -31.813   6.130  24.733  0.00  0.00    -0.082 A 
ATOM     64  H49 non d ame     -31.747   6.792  26.785  0.00  0.00     0.084 H 
ATOM     65  C32 non d ame     -32.630   5.735  23.670  0.00  0.00    -0.083 A 
ATOM     66  H50 non d ame     -30.730   6.163  24.609  0.00  0.00     0.083 H 
ATOM     67  C33 non d ame     -34.008   5.697  23.838  0.00  0.00    -0.082 A 
ATOM     68  H51 non d ame     -32.193   5.458  22.711  0.00  0.00     0.083 H 
ATOM     69  C34 non d ame     -34.581   6.046  25.058  0.00  0.00    -0.075 A 
ATOM     70  H52 non d ame     -34.643   5.391  23.006  0.00  0.00     0.083 H 
ATOM     71  H53 non d ame     -35.664   6.012  25.182  0.00  0.00     0.084 H 
ENDBRANCH  58  61
ENDBRANCH  57  58
ENDBRANCH  55  57
ENDBRANCH  52  55
ENDBRANCH  49  52
ENDBRANCH  47  49
BRANCH  47  72
ATOM     72  C24 non d ame     -37.629   8.173  30.580  0.00  0.00    -0.039 C 
ATOM     73  H35 non d ame     -38.293   7.312  30.490  0.00  0.00     0.036 H 
ATOM     74  H36 non d ame     -37.829   8.937  31.331  0.00  0.00     0.036 H 
BRANCH  72  75
ATOM     75  C25 non d ame     -37.606   8.903  29.155  0.00  0.00    -0.001 C 
ATOM     76  C26 non d ame     -37.874  10.515  29.347  0.00  0.00    -0.035 C 
ATOM     77  C27 non d ame     -38.870  10.894  28.511  0.00  0.00     0.085 C 
ATOM     78  H38 non d ame     -38.284  10.709  30.338  0.00  0.00     0.036 H 
ATOM     79  H39 non d ame     -37.013  11.082  28.992  0.00  0.00     0.036 H 
ATOM     80  N5  non d ame     -39.526   9.632  28.005  0.00  0.00    -0.049 N 
ATOM     81  H40 non d ame     -39.579  11.440  29.133  0.00  0.00     0.075 H 
ATOM     82  H41 non d ame     -38.376  11.395  27.679  0.00  0.00     0.075 H 
ATOM     83  C28 non d ame     -38.515   8.428  28.371  0.00  0.00     0.193 C 
ATOM     84  H42 non d ame     -40.373   9.515  28.543  0.00  0.00     0.280 HD
ATOM     85  H43 non d ame     -39.574   9.719  27.000  0.00  0.00     0.280 HD
ATOM     86  H44 non d ame     -37.893   7.974  27.599  0.00  0.00     0.129 H 
ATOM     87  H37 non d ame     -36.743   8.612  28.556  0.00  0.00     0.046 H 
BRANCH  83  88
ATOM     88  O6  non d ame     -39.232   7.347  28.969  0.00  0.00    -0.369 OA
ATOM     89  H45 non d ame     -39.981   7.114  28.416  0.00  0.00     0.212 HD
ENDBRANCH  83  88
ENDBRANCH  72  75
ENDBRANCH  47  72
ENDBRANCH  45  47
ENDBRANCH   1  43
BRANCH   1  90
ATOM     90  C16 non d ame     -32.768  11.269  30.778  0.00  0.00    -0.035 C 
ATOM     91  H21 non d ame     -33.626  11.930  30.899  0.00  0.00     0.037 H 
ATOM     92  H22 non d ame     -32.282  10.840  31.655  0.00  0.00     0.037 H 
BRANCH  90  93
ATOM     93  C17 non d ame     -31.676  12.096  30.028  0.00  0.00    -0.059 C 
ATOM     94  H23 non d ame     -31.473  11.595  29.082  0.00  0.00     0.038 H 
BRANCH  93  95
ATOM     95  C18 non d ame     -32.155  13.548  29.706  0.00  0.00    -0.073 C 
ATOM     96  H24 non d ame     -32.474  13.603  28.665  0.00  0.00     0.028 H 
ATOM     97  H25 non d ame     -32.990  13.808  30.355  0.00  0.00     0.028 H 
ATOM     98  H26 non d ame     -31.335  14.246  29.872  0.00  0.00     0.028 H 
ENDBRANCH  93  95
BRANCH  93  99
ATOM     99  C19 non d ame     -30.367  12.118  30.821  0.00  0.00    -0.073 C 
ATOM    100  H27 non d ame     -30.099  11.101  31.109  0.00  0.00     0.028 H 
ATOM    101  H28 non d ame     -29.574  12.542  30.204  0.00  0.00     0.028 H 
ATOM    102  H29 non d ame     -30.494  12.727  31.716  0.00  0.00     0.028 H 
ENDBRANCH  93  99
ENDBRANCH  90  93
ENDBRANCH   1  90
TORSDOF 26
ENDMDL
MODEL 11
REMARK VINA RESULT:      -6.4      3.029      6.782
REMARK  26 active torsions:
REMARK  status: ('A' for Active; 'I' for Inactive)
REMARK    1  A    between atoms: C2_2  and  C3_3 
REMARK    2  A    between atoms: C4_6  and  C5_7 
REMARK       I    between atoms: C5_7  and  N2_9 
REMARK    3  A    between atoms: N2_9  and  C6_10 
REMARK    4  A    between atoms: C6_10  and  C7_11 
REMARK    5  A    between atoms: C6_10  and  C8_13 
REMARK       I    between atoms: C7_11  and  N3_14 
REMARK    6  A    between atoms: N3_14  and  C9_15 
REMARK    7  A    between atoms: C9_15  and  C10_16 
REMARK    8  A    between atoms: C9_15  and  C11_18 
REMARK       I    between atoms: C10_16  and  N4_21 
REMARK    9  A    between atoms: C11_18  and  C12_19 
REMARK   10  A    between atoms: C11_18  and  C13_20 
REMARK   11  A    between atoms: N4_21  and  C14_22 
REMARK   12  A    between atoms: C14_22  and  C15_23 
REMARK   13  A    between atoms: C14_22  and  C16_25 
REMARK       I    between atoms: C15_23  and  N6_40 
REMARK   14  A    between atoms: C16_25  and  C17_26 
REMARK   15  A    between atoms: C17_26  and  C18_27 
REMARK   16  A    between atoms: C17_26  and  C19_28 
REMARK   17  A    between atoms: C20_29  and  C21_30 
REMARK   18  A    between atoms: C20_29  and  C24_33 
REMARK   19  A    between atoms: C20_29  and  N6_40 
REMARK   20  A    between atoms: C21_30  and  C22_31 
REMARK   21  A    between atoms: C22_31  and  C23_32 
REMARK   22  A    between atoms: C23_32  and  O8_43 
REMARK   23  A    between atoms: C24_33  and  C25_34 
REMARK   24  A    between atoms: C28_38  and  O6_39 
REMARK   25  A    between atoms: C29_42  and  O8_43 
REMARK   26  A    between atoms: C29_42  and  C35_49 
ROOT
ATOM      1  C14 non d ame     -31.832   9.205  24.436  0.00  0.00     0.089 C 
ATOM      2  H20 non d ame     -31.083   8.437  24.630  0.00  0.00     0.087 H 
ENDROOT
BRANCH   1   3
ATOM      3  N4  non d ame     -33.001   8.892  25.243  0.00  0.00    -0.346 N 
ATOM      4  C10 non d ame     -33.080   7.587  25.995  0.00  0.00     0.241 C 
ATOM      5  O4  non d ame     -32.191   6.803  25.932  0.00  0.00    -0.271 OA
ATOM      6  H19 non d ame     -33.748   9.571  25.282  0.00  0.00     0.163 HD
BRANCH   4   7
ATOM      7  C9  non d ame     -34.296   7.281  26.831  0.00  0.00     0.092 C 
ATOM      8  H11 non d ame     -34.023   6.576  27.616  0.00  0.00     0.088 H 
BRANCH   7   9
ATOM      9  N3  non d ame     -34.757   8.507  27.490  0.00  0.00    -0.346 N 
ATOM     10  C7  non d ame     -35.258   8.453  28.841  0.00  0.00     0.240 C 
ATOM     11  O3  non d ame     -35.299   7.432  29.412  0.00  0.00    -0.271 OA
ATOM     12  H10 non d ame     -34.729   9.395  27.010  0.00  0.00     0.163 HD
BRANCH  10  13
ATOM     13  C6  non d ame     -35.750   9.760  29.537  0.00  0.00     0.086 C 
ATOM     14  H6  non d ame     -35.974   9.617  30.594  0.00  0.00     0.086 H 
BRANCH  13  15
ATOM     15  N2  non d ame     -34.695  10.757  29.466  0.00  0.00    -0.343 N 
ATOM     16  C5  non d ame     -33.661  10.788  30.503  0.00  0.00     0.273 C 
ATOM     17  O2  non d ame     -33.689  10.008  31.391  0.00  0.00    -0.266 OA
ATOM     18  H5  non d ame     -34.681  11.422  28.706  0.00  0.00     0.163 HD
BRANCH  16  19
ATOM     19  C4  non d ame     -32.539  11.836  30.441  0.00  0.00     0.154 A 
ATOM     20  C1  non d ame     -32.566  13.092  29.756  0.00  0.00    -0.017 A 
ATOM     21  C2  non d ame     -31.302  13.671  30.008  0.00  0.00     0.077 A 
ATOM     22  H1  non d ame     -33.378  13.519  29.167  0.00  0.00     0.091 H 
ATOM     23  O1  non d ame     -30.636  12.837  30.752  0.00  0.00    -0.218 OA
ATOM     24  N1  non d ame     -31.336  11.759  31.018  0.00  0.00    -0.123 NA
BRANCH  21  25
ATOM     25  C3  non d ame     -30.812  15.021  29.503  0.00  0.00    -0.029 C 
ATOM     26  H2  non d ame     -29.771  15.162  29.792  0.00  0.00     0.036 H 
ATOM     27  H3  non d ame     -30.895  15.054  28.417  0.00  0.00     0.036 H 
ATOM     28  H4  non d ame     -31.420  15.815  29.938  0.00  0.00     0.036 H 
ENDBRANCH  21  25
ENDBRANCH  16  19
ENDBRANCH  13  15
BRANCH  13  29
ATOM     29  C8  non d ame     -36.988  10.267  28.841  0.00  0.00    -0.049 C 
ATOM     30  H7  non d ame     -36.899  11.342  28.680  0.00  0.00     0.030 H 
ATOM     31  H8  non d ame     -37.096   9.764  27.881  0.00  0.00     0.030 H 
ATOM     32  H9  non d ame     -37.862  10.064  29.460  0.00  0.00     0.030 H 
ENDBRANCH  13  29
ENDBRANCH  10  13
ENDBRANCH   7   9
BRANCH   7  33
ATOM     33  C11 non d ame     -35.429   6.730  25.916  0.00  0.00    -0.033 C 
ATOM     34  H12 non d ame     -34.965   6.374  24.997  0.00  0.00     0.042 H 
BRANCH  33  35
ATOM     35  C12 non d ame     -36.152   5.515  26.577  0.00  0.00    -0.071 C 
ATOM     36  H13 non d ame     -36.263   5.696  27.647  0.00  0.00     0.028 H 
ATOM     37  H14 non d ame     -37.136   5.389  26.126  0.00  0.00     0.028 H 
ATOM     38  H15 non d ame     -35.562   4.612  26.422  0.00  0.00     0.028 H 
ENDBRANCH  33  35
BRANCH  33  39
ATOM     39  C13 non d ame     -36.443   7.857  25.541  0.00  0.00    -0.071 C 
ATOM     40  H16 non d ame     -37.443   7.569  25.864  0.00  0.00     0.028 H 
ATOM     41  H17 non d ame     -36.154   8.785  26.036  0.00  0.00     0.028 H 
ATOM     42  H18 non d ame     -36.437   8.006  24.461  0.00  0.00     0.028 H 
ENDBRANCH  33  39
ENDBRANCH   7  33
ENDBRANCH   4   7
ENDBRANCH   1   3
BRANCH   1  43
ATOM     43  C15 non d ame     -31.330  10.626  24.822  0.00  0.00     0.240 C 
ATOM     44  O5  non d ame     -31.065  10.872  25.954  0.00  0.00    -0.271 OA
ATOM     45  N6  non d ame     -31.170  11.678  23.778  0.00  0.00    -0.355 N 
ATOM     46  H46 non d ame     -31.387  11.480  22.812  0.00  0.00     0.162 HD
BRANCH  45  47
ATOM     47  C20 non d ame     -30.690  13.023  24.161  0.00  0.00     0.013 C 
ATOM     48  H30 non d ame     -30.142  12.930  25.098  0.00  0.00     0.072 H 
BRANCH  47  49
ATOM     49  C21 non d ame     -31.876  13.943  24.345  0.00  0.00    -0.038 C 
ATOM     50  H31 non d ame     -31.787  14.699  23.565  0.00  0.00     0.036 H 
ATOM     51  H32 non d ame     -32.750  13.293  24.378  0.00  0.00     0.036 H 
BRANCH  49  52
ATOM     52  C22 non d ame     -31.844  14.700  25.691  0.00  0.00     0.018 C 
ATOM     53  H33 non d ame     -32.621  14.244  26.304  0.00  0.00     0.048 H 
ATOM     54  H34 non d ame     -30.805  14.673  26.020  0.00  0.00     0.048 H 
BRANCH  52  55
ATOM     55  C23 non d ame     -32.218  16.203  25.574  0.00  0.00     0.259 C 
ATOM     56  O7  non d ame     -31.467  17.043  25.951  0.00  0.00    -0.265 OA
BRANCH  55  57
ATOM     57  O8  non d ame     -33.477  16.567  25.020  0.00  0.00    -0.317 OA
BRANCH  57  58
ATOM     58  C29 non d ame     -34.546  16.588  25.970  0.00  0.00     0.052 C 
ATOM     59  H47 non d ame     -34.070  16.623  26.949  0.00  0.00     0.082 H 
ATOM     60  H48 non d ame     -35.204  17.398  25.655  0.00  0.00     0.082 H 
BRANCH  58  61
ATOM     61  C35 non d ame     -35.322  15.250  25.847  0.00  0.00    -0.034 A 
ATOM     62  C30 non d ame     -35.298  14.333  26.893  0.00  0.00    -0.075 A 
ATOM     63  C31 non d ame     -35.995  13.130  26.784  0.00  0.00    -0.082 A 
ATOM     64  H49 non d ame     -34.733  14.556  27.799  0.00  0.00     0.084 H 
ATOM     65  C32 non d ame     -36.716  12.845  25.621  0.00  0.00    -0.083 A 
ATOM     66  H50 non d ame     -35.975  12.414  27.606  0.00  0.00     0.083 H 
ATOM     67  C33 non d ame     -36.734  13.762  24.579  0.00  0.00    -0.082 A 
ATOM     68  H51 non d ame     -37.264  11.907  25.527  0.00  0.00     0.083 H 
ATOM     69  C34 non d ame     -36.041  14.966  24.685  0.00  0.00    -0.075 A 
ATOM     70  H52 non d ame     -37.296  13.535  23.672  0.00  0.00     0.083 H 
ATOM     71  H53 non d ame     -36.061  15.681  23.862  0.00  0.00     0.084 H 
ENDBRANCH  58  61
ENDBRANCH  57  58
ENDBRANCH  55  57
ENDBRANCH  52  55
ENDBRANCH  49  52
ENDBRANCH  47  49
BRANCH  47  72
ATOM     72  C24 non d ame     -29.780  13.578  23.067  0.00  0.00    -0.039 C 
ATOM     73  H35 non d ame     -28.830  13.789  23.560  0.00  0.00     0.036 H 
ATOM     74  H36 non d ame     -29.823  12.850  22.257  0.00  0.00     0.036 H 
BRANCH  72  75
ATOM     75  C25 non d ame     -30.329  14.966  22.486  0.00  0.00    -0.001 C 
ATOM     76  C26 non d ame     -30.915  14.743  20.965  0.00  0.00    -0.035 C 
ATOM     77  C27 non d ame     -30.354  15.662  20.143  0.00  0.00     0.085 C 
ATOM     78  H38 non d ame     -30.562  13.794  20.564  0.00  0.00     0.036 H 
ATOM     79  H39 non d ame     -31.977  14.988  20.934  0.00  0.00     0.036 H 
ATOM     80  N5  non d ame     -29.197  16.278  20.893  0.00  0.00    -0.049 N 
ATOM     81  H40 non d ame     -29.968  15.097  19.295  0.00  0.00     0.075 H 
ATOM     82  H41 non d ame     -31.121  16.421  19.988  0.00  0.00     0.075 H 
ATOM     83  C28 non d ame     -29.395  15.856  22.438  0.00  0.00     0.193 C 
ATOM     84  H42 non d ame     -28.360  15.835  20.542  0.00  0.00     0.280 HD
ATOM     85  H43 non d ame     -29.309  17.279  20.816  0.00  0.00     0.280 HD
ATOM     86  H44 non d ame     -29.770  16.576  23.166  0.00  0.00     0.129 H 
ATOM     87  H37 non d ame     -30.975  15.484  23.195  0.00  0.00     0.046 H 
BRANCH  83  88
ATOM     88  O6  non d ame     -28.163  15.373  22.978  0.00  0.00    -0.369 OA
ATOM     89  H45 non d ame     -28.338  14.628  23.558  0.00  0.00     0.212 HD
ENDBRANCH  83  88
ENDBRANCH  72  75
ENDBRANCH  47  72
ENDBRANCH  45  47
ENDBRANCH   1  43
BRANCH   1  90
ATOM     90  C16 non d ame     -32.224   9.183  22.967  0.00  0.00    -0.035 C 
ATOM     91  H21 non d ame     -33.207   8.714  22.937  0.00  0.00     0.037 H 
ATOM     92  H22 non d ame     -32.098  10.209  22.619  0.00  0.00     0.037 H 
BRANCH  90  93
ATOM     93  C17 non d ame     -31.287   8.300  22.082  0.00  0.00    -0.059 C 
ATOM     94  H23 non d ame     -31.690   8.303  21.069  0.00  0.00     0.038 H 
BRANCH  93  95
ATOM     95  C18 non d ame     -29.832   8.865  22.018  0.00  0.00    -0.073 C 
ATOM     96  H24 non d ame     -29.531   9.208  23.007  0.00  0.00     0.028 H 
ATOM     97  H25 non d ame     -29.152   8.082  21.683  0.00  0.00     0.028 H 
ATOM     98  H26 non d ame     -29.797   9.700  21.318  0.00  0.00     0.028 H 
ENDBRANCH  93  95
BRANCH  93  99
ATOM     99  C19 non d ame     -31.287   6.848  22.567  0.00  0.00    -0.073 C 
ATOM    100  H27 non d ame     -31.740   6.795  23.558  0.00  0.00     0.028 H 
ATOM    101  H28 non d ame     -31.859   6.232  21.873  0.00  0.00     0.028 H 
ATOM    102  H29 non d ame     -30.261   6.482  22.616  0.00  0.00     0.028 H 
ENDBRANCH  93  99
ENDBRANCH  90  93
ENDBRANCH   1  90
TORSDOF 26
ENDMDL
MODEL 12
REMARK VINA RESULT:      -6.4      2.694      7.672
REMARK  26 active torsions:
REMARK  status: ('A' for Active; 'I' for Inactive)
REMARK    1  A    between atoms: C2_2  and  C3_3 
REMARK    2  A    between atoms: C4_6  and  C5_7 
REMARK       I    between atoms: C5_7  and  N2_9 
REMARK    3  A    between atoms: N2_9  and  C6_10 
REMARK    4  A    between atoms: C6_10  and  C7_11 
REMARK    5  A    between atoms: C6_10  and  C8_13 
REMARK       I    between atoms: C7_11  and  N3_14 
REMARK    6  A    between atoms: N3_14  and  C9_15 
REMARK    7  A    between atoms: C9_15  and  C10_16 
REMARK    8  A    between atoms: C9_15  and  C11_18 
REMARK       I    between atoms: C10_16  and  N4_21 
REMARK    9  A    between atoms: C11_18  and  C12_19 
REMARK   10  A    between atoms: C11_18  and  C13_20 
REMARK   11  A    between atoms: N4_21  and  C14_22 
REMARK   12  A    between atoms: C14_22  and  C15_23 
REMARK   13  A    between atoms: C14_22  and  C16_25 
REMARK       I    between atoms: C15_23  and  N6_40 
REMARK   14  A    between atoms: C16_25  and  C17_26 
REMARK   15  A    between atoms: C17_26  and  C18_27 
REMARK   16  A    between atoms: C17_26  and  C19_28 
REMARK   17  A    between atoms: C20_29  and  C21_30 
REMARK   18  A    between atoms: C20_29  and  C24_33 
REMARK   19  A    between atoms: C20_29  and  N6_40 
REMARK   20  A    between atoms: C21_30  and  C22_31 
REMARK   21  A    between atoms: C22_31  and  C23_32 
REMARK   22  A    between atoms: C23_32  and  O8_43 
REMARK   23  A    between atoms: C24_33  and  C25_34 
REMARK   24  A    between atoms: C28_38  and  O6_39 
REMARK   25  A    between atoms: C29_42  and  O8_43 
REMARK   26  A    between atoms: C29_42  and  C35_49 
ROOT
ATOM      1  C14 non d ame     -34.234   9.559  24.542  0.00  0.00     0.089 C 
ATOM      2  H20 non d ame     -34.740   8.945  23.797  0.00  0.00     0.087 H 
ENDROOT
BRANCH   1   3
ATOM      3  N4  non d ame     -34.947  10.825  24.624  0.00  0.00    -0.346 N 
ATOM      4  C10 non d ame     -36.446  10.866  24.467  0.00  0.00     0.241 C 
ATOM      5  O4  non d ame     -37.057   9.868  24.273  0.00  0.00    -0.271 OA
ATOM      6  H19 non d ame     -34.408  11.664  24.787  0.00  0.00     0.163 HD
BRANCH   4   7
ATOM      7  C9  non d ame     -37.168  12.185  24.561  0.00  0.00     0.092 C 
ATOM      8  H11 non d ame     -37.773  12.199  25.467  0.00  0.00     0.088 H 
BRANCH   7   9
ATOM      9  N3  non d ame     -36.190  13.271  24.675  0.00  0.00    -0.346 N 
ATOM     10  C7  non d ame     -36.036  13.973  25.926  0.00  0.00     0.240 C 
ATOM     11  O3  non d ame     -36.692  13.678  26.849  0.00  0.00    -0.271 OA
ATOM     12  H10 non d ame     -35.619  13.538  23.886  0.00  0.00     0.163 HD
BRANCH  10  13
ATOM     13  C6  non d ame     -34.996  15.130  26.040  0.00  0.00     0.086 C 
ATOM     14  H6  non d ame     -34.518  15.172  27.019  0.00  0.00     0.086 H 
BRANCH  13  15
ATOM     15  N2  non d ame     -33.937  14.910  25.070  0.00  0.00    -0.343 N 
ATOM     16  C5  non d ame     -32.567  15.316  25.392  0.00  0.00     0.273 C 
ATOM     17  O2  non d ame     -32.328  15.821  26.434  0.00  0.00    -0.266 OA
ATOM     18  H5  non d ame     -34.151  14.480  24.181  0.00  0.00     0.163 HD
BRANCH  16  19
ATOM     19  C4  non d ame     -31.437  15.088  24.376  0.00  0.00     0.154 A 
ATOM     20  C1  non d ame     -31.096  13.861  23.723  0.00  0.00    -0.017 A 
ATOM     21  C2  non d ame     -29.997  14.182  22.896  0.00  0.00     0.077 A 
ATOM     22  H1  non d ame     -31.573  12.887  23.833  0.00  0.00     0.091 H 
ATOM     23  O1  non d ame     -29.746  15.448  23.061  0.00  0.00    -0.218 OA
ATOM     24  N1  non d ame     -30.573  15.998  23.920  0.00  0.00    -0.123 NA
BRANCH  21  25
ATOM     25  C3  non d ame     -29.247  13.224  21.980  0.00  0.00    -0.029 C 
ATOM     26  H2  non d ame     -28.567  12.613  22.573  0.00  0.00     0.036 H 
ATOM     27  H3  non d ame     -29.960  12.580  21.466  0.00  0.00     0.036 H 
ATOM     28  H4  non d ame     -28.678  13.794  21.246  0.00  0.00     0.036 H 
ENDBRANCH  21  25
ENDBRANCH  16  19
ENDBRANCH  13  15
BRANCH  13  29
ATOM     29  C8  non d ame     -35.676  16.449  25.773  0.00  0.00    -0.049 C 
ATOM     30  H7  non d ame     -35.103  17.010  25.034  0.00  0.00     0.030 H 
ATOM     31  H8  non d ame     -36.681  16.269  25.393  0.00  0.00     0.030 H 
ATOM     32  H9  non d ame     -35.734  17.022  26.699  0.00  0.00     0.030 H 
ENDBRANCH  13  29
ENDBRANCH  10  13
ENDBRANCH   7   9
BRANCH   7  33
ATOM     33  C11 non d ame     -38.028  12.397  23.280  0.00  0.00    -0.033 C 
ATOM     34  H12 non d ame     -37.832  11.560  22.610  0.00  0.00     0.042 H 
BRANCH  33  35
ATOM     35  C12 non d ame     -39.553  12.386  23.611  0.00  0.00    -0.071 C 
ATOM     36  H13 non d ame     -39.778  13.189  24.313  0.00  0.00     0.028 H 
ATOM     37  H14 non d ame     -40.124  12.534  22.695  0.00  0.00     0.028 H 
ATOM     38  H15 non d ame     -39.821  11.429  24.056  0.00  0.00     0.028 H 
ENDBRANCH  33  35
BRANCH  33  39
ATOM     39  C13 non d ame     -37.617  13.712  22.542  0.00  0.00    -0.071 C 
ATOM     40  H16 non d ame     -37.595  14.537  23.255  0.00  0.00     0.028 H 
ATOM     41  H17 non d ame     -36.628  13.587  22.100  0.00  0.00     0.028 H 
ATOM     42  H18 non d ame     -38.341  13.929  21.757  0.00  0.00     0.028 H 
ENDBRANCH  33  39
ENDBRANCH   7  33
ENDBRANCH   4   7
ENDBRANCH   1   3
BRANCH   1  43
ATOM     43  C15 non d ame     -34.239   8.896  25.950  0.00  0.00     0.240 C 
ATOM     44  O5  non d ame     -33.315   9.054  26.680  0.00  0.00    -0.271 OA
ATOM     45  N6  non d ame     -35.399   8.071  26.390  0.00  0.00    -0.355 N 
ATOM     46  H46 non d ame     -36.192   7.933  25.780  0.00  0.00     0.162 HD
BRANCH  45  47
ATOM     47  C20 non d ame     -35.389   7.448  27.732  0.00  0.00     0.013 C 
ATOM     48  H30 non d ame     -35.978   6.533  27.681  0.00  0.00     0.072 H 
BRANCH  47  49
ATOM     49  C21 non d ame     -36.003   8.403  28.730  0.00  0.00    -0.038 C 
ATOM     50  H31 non d ame     -35.494   9.355  28.579  0.00  0.00     0.036 H 
ATOM     51  H32 non d ame     -37.081   8.332  28.581  0.00  0.00     0.036 H 
BRANCH  49  52
ATOM     52  C22 non d ame     -35.737   7.992  30.194  0.00  0.00     0.018 C 
ATOM     53  H33 non d ame     -36.715   7.954  30.673  0.00  0.00     0.048 H 
ATOM     54  H34 non d ame     -35.120   7.095  30.142  0.00  0.00     0.048 H 
BRANCH  52  55
ATOM     55  C23 non d ame     -34.909   9.034  30.996  0.00  0.00     0.259 C 
ATOM     56  O7  non d ame     -34.532   8.788  32.096  0.00  0.00    -0.265 OA
BRANCH  55  57
ATOM     57  O8  non d ame     -34.616  10.295  30.406  0.00  0.00    -0.317 OA
BRANCH  57  58
ATOM     58  C29 non d ame     -33.533  10.992  31.029  0.00  0.00     0.052 C 
ATOM     59  H47 non d ame     -33.993  11.785  31.619  0.00  0.00     0.082 H 
ATOM     60  H48 non d ame     -32.932  10.226  31.519  0.00  0.00     0.082 H 
BRANCH  58  61
ATOM     61  C35 non d ame     -32.678  11.645  29.910  0.00  0.00    -0.034 A 
ATOM     62  C30 non d ame     -31.392  12.098  30.191  0.00  0.00    -0.075 A 
ATOM     63  C31 non d ame     -30.624  12.685  29.187  0.00  0.00    -0.082 A 
ATOM     64  H49 non d ame     -30.987  11.993  31.198  0.00  0.00     0.084 H 
ATOM     65  C32 non d ame     -31.146  12.820  27.898  0.00  0.00    -0.083 A 
ATOM     66  H50 non d ame     -29.617  13.037  29.409  0.00  0.00     0.083 H 
ATOM     67  C33 non d ame     -32.431  12.370  27.623  0.00  0.00    -0.082 A 
ATOM     68  H51 non d ame     -30.552  13.277  27.106  0.00  0.00     0.083 H 
ATOM     69  C34 non d ame     -33.201  11.781  28.623  0.00  0.00    -0.075 A 
ATOM     70  H52 non d ame     -32.836  12.479  26.617  0.00  0.00     0.083 H 
ATOM     71  H53 non d ame     -34.209  11.428  28.400  0.00  0.00     0.084 H 
ENDBRANCH  58  61
ENDBRANCH  57  58
ENDBRANCH  55  57
ENDBRANCH  52  55
ENDBRANCH  49  52
ENDBRANCH  47  49
BRANCH  47  72
ATOM     72  C24 non d ame     -33.952   7.134  28.144  0.00  0.00    -0.039 C 
ATOM     73  H35 non d ame     -33.323   7.692  27.450  0.00  0.00     0.036 H 
ATOM     74  H36 non d ame     -33.905   7.344  29.212  0.00  0.00     0.036 H 
BRANCH  72  75
ATOM     75  C25 non d ame     -33.607   5.582  27.952  0.00  0.00    -0.001 C 
ATOM     76  C26 non d ame     -33.946   4.757  29.334  0.00  0.00    -0.035 C 
ATOM     77  C27 non d ame     -32.861   4.024  29.681  0.00  0.00     0.085 C 
ATOM     78  H38 non d ame     -34.061   5.452  30.165  0.00  0.00     0.036 H 
ATOM     79  H39 non d ame     -34.711   4.004  29.142  0.00  0.00     0.036 H 
ATOM     80  N5  non d ame     -31.705   4.524  28.849  0.00  0.00    -0.049 N 
ATOM     81  H40 non d ame     -32.674   4.261  30.729  0.00  0.00     0.075 H 
ATOM     82  H41 non d ame     -33.094   3.001  29.387  0.00  0.00     0.075 H 
ATOM     83  C28 non d ame     -32.358   5.412  27.670  0.00  0.00     0.193 C 
ATOM     84  H42 non d ame     -31.164   5.132  29.447  0.00  0.00     0.280 HD
ATOM     85  H43 non d ame     -31.276   3.708  28.437  0.00  0.00     0.280 HD
ATOM     86  H44 non d ame     -32.436   5.016  26.657  0.00  0.00     0.129 H 
ATOM     87  H37 non d ame     -34.013   5.180  27.023  0.00  0.00     0.046 H 
BRANCH  83  88
ATOM     88  O6  non d ame     -31.661   6.652  27.543  0.00  0.00    -0.369 OA
ATOM     89  H45 non d ame     -32.292   7.360  27.393  0.00  0.00     0.212 HD
ENDBRANCH  83  88
ENDBRANCH  72  75
ENDBRANCH  47  72
ENDBRANCH  45  47
ENDBRANCH   1  43
BRANCH   1  90
ATOM     90  C16 non d ame     -32.802   9.823  24.106  0.00  0.00    -0.035 C 
ATOM     91  H21 non d ame     -32.796  10.850  23.743  0.00  0.00     0.037 H 
ATOM     92  H22 non d ame     -32.184   9.544  24.960  0.00  0.00     0.037 H 
BRANCH  90  93
ATOM     93  C17 non d ame     -32.335   8.931  22.912  0.00  0.00    -0.059 C 
ATOM     94  H23 non d ame     -31.667   9.529  22.294  0.00  0.00     0.038 H 
BRANCH  93  95
ATOM     95  C18 non d ame     -31.543   7.672  23.392  0.00  0.00    -0.073 C 
ATOM     96  H24 non d ame     -31.581   7.611  24.479  0.00  0.00     0.028 H 
ATOM     97  H25 non d ame     -31.990   6.776  22.963  0.00  0.00     0.028 H 
ATOM     98  H26 non d ame     -30.506   7.751  23.068  0.00  0.00     0.028 H 
ENDBRANCH  93  95
BRANCH  93  99
ATOM     99  C19 non d ame     -33.524   8.525  22.036  0.00  0.00    -0.073 C 
ATOM    100  H27 non d ame     -34.448   8.637  22.603  0.00  0.00     0.028 H 
ATOM    101  H28 non d ame     -33.560   9.164  21.154  0.00  0.00     0.028 H 
ATOM    102  H29 non d ame     -33.409   7.486  21.727  0.00  0.00     0.028 H 
ENDBRANCH  93  99
ENDBRANCH  90  93
ENDBRANCH   1  90
TORSDOF 26
ENDMDL
MODEL 13
REMARK VINA RESULT:      -6.3      3.083      8.123
REMARK  26 active torsions:
REMARK  status: ('A' for Active; 'I' for Inactive)
REMARK    1  A    between atoms: C2_2  and  C3_3 
REMARK    2  A    between atoms: C4_6  and  C5_7 
REMARK       I    between atoms: C5_7  and  N2_9 
REMARK    3  A    between atoms: N2_9  and  C6_10 
REMARK    4  A    between atoms: C6_10  and  C7_11 
REMARK    5  A    between atoms: C6_10  and  C8_13 
REMARK       I    between atoms: C7_11  and  N3_14 
REMARK    6  A    between atoms: N3_14  and  C9_15 
REMARK    7  A    between atoms: C9_15  and  C10_16 
REMARK    8  A    between atoms: C9_15  and  C11_18 
REMARK       I    between atoms: C10_16  and  N4_21 
REMARK    9  A    between atoms: C11_18  and  C12_19 
REMARK   10  A    between atoms: C11_18  and  C13_20 
REMARK   11  A    between atoms: N4_21  and  C14_22 
REMARK   12  A    between atoms: C14_22  and  C15_23 
REMARK   13  A    between atoms: C14_22  and  C16_25 
REMARK       I    between atoms: C15_23  and  N6_40 
REMARK   14  A    between atoms: C16_25  and  C17_26 
REMARK   15  A    between atoms: C17_26  and  C18_27 
REMARK   16  A    between atoms: C17_26  and  C19_28 
REMARK   17  A    between atoms: C20_29  and  C21_30 
REMARK   18  A    between atoms: C20_29  and  C24_33 
REMARK   19  A    between atoms: C20_29  and  N6_40 
REMARK   20  A    between atoms: C21_30  and  C22_31 
REMARK   21  A    between atoms: C22_31  and  C23_32 
REMARK   22  A    between atoms: C23_32  and  O8_43 
REMARK   23  A    between atoms: C24_33  and  C25_34 
REMARK   24  A    between atoms: C28_38  and  O6_39 
REMARK   25  A    between atoms: C29_42  and  O8_43 
REMARK   26  A    between atoms: C29_42  and  C35_49 
ROOT
ATOM      1  C14 non d ame     -36.704  11.966  24.760  0.00  0.00     0.089 C 
ATOM      2  H20 non d ame     -37.469  11.801  25.520  0.00  0.00     0.087 H 
ENDROOT
BRANCH   1   3
ATOM      3  N4  non d ame     -35.728  12.892  25.316  0.00  0.00    -0.346 N 
ATOM      4  C10 non d ame     -36.109  13.813  26.448  0.00  0.00     0.241 C 
ATOM      5  O4  non d ame     -37.210  13.793  26.893  0.00  0.00    -0.271 OA
ATOM      6  H19 non d ame     -34.798  12.895  24.922  0.00  0.00     0.163 HD
BRANCH   4   7
ATOM      7  C9  non d ame     -35.085  14.760  27.015  0.00  0.00     0.092 C 
ATOM      8  H11 non d ame     -35.148  14.748  28.103  0.00  0.00     0.088 H 
BRANCH   7   9
ATOM      9  N3  non d ame     -33.741  14.300  26.653  0.00  0.00    -0.346 N 
ATOM     10  C7  non d ame     -32.696  14.276  27.647  0.00  0.00     0.240 C 
ATOM     11  O3  non d ame     -32.919  14.625  28.742  0.00  0.00    -0.271 OA
ATOM     12  H10 non d ame     -33.533  13.998  25.712  0.00  0.00     0.163 HD
BRANCH  10  13
ATOM     13  C6  non d ame     -31.266  13.789  27.256  0.00  0.00     0.086 C 
ATOM     14  H6  non d ame     -31.237  12.729  27.004  0.00  0.00     0.086 H 
BRANCH  13  15
ATOM     15  N2  non d ame     -30.830  14.510  26.072  0.00  0.00    -0.343 N 
ATOM     16  C5  non d ame     -30.868  13.844  24.768  0.00  0.00     0.273 C 
ATOM     17  O2  non d ame     -31.248  12.728  24.682  0.00  0.00    -0.266 OA
ATOM     18  H5  non d ame     -30.504  15.463  26.154  0.00  0.00     0.163 HD
BRANCH  16  19
ATOM     19  C4  non d ame     -30.411  14.595  23.507  0.00  0.00     0.154 A 
ATOM     20  C1  non d ame     -31.223  15.002  22.401  0.00  0.00    -0.017 A 
ATOM     21  C2  non d ame     -30.333  15.649  21.515  0.00  0.00     0.077 A 
ATOM     22  H1  non d ame     -32.294  14.852  22.263  0.00  0.00     0.091 H 
ATOM     23  O1  non d ame     -29.151  15.613  22.058  0.00  0.00    -0.218 OA
ATOM     24  N1  non d ame     -29.172  15.003  23.221  0.00  0.00    -0.123 NA
BRANCH  21  25
ATOM     25  C3  non d ame     -30.692  16.273  20.173  0.00  0.00    -0.029 C 
ATOM     26  H2  non d ame     -29.867  16.898  19.831  0.00  0.00     0.036 H 
ATOM     27  H3  non d ame     -30.876  15.484  19.444  0.00  0.00     0.036 H 
ATOM     28  H4  non d ame     -31.588  16.882  20.283  0.00  0.00     0.036 H 
ENDBRANCH  21  25
ENDBRANCH  16  19
ENDBRANCH  13  15
BRANCH  13  29
ATOM     29  C8  non d ame     -30.315  14.046  28.397  0.00  0.00    -0.049 C 
ATOM     30  H7  non d ame     -30.736  13.645  29.319  0.00  0.00     0.030 H 
ATOM     31  H8  non d ame     -29.362  13.559  28.191  0.00  0.00     0.030 H 
ATOM     32  H9  non d ame     -30.159  15.119  28.506  0.00  0.00     0.030 H 
ENDBRANCH  13  29
ENDBRANCH  10  13
ENDBRANCH   7   9
BRANCH   7  33
ATOM     33  C11 non d ame     -35.317  16.185  26.431  0.00  0.00    -0.033 C 
ATOM     34  H12 non d ame     -36.301  16.191  25.961  0.00  0.00     0.042 H 
BRANCH  33  35
ATOM     35  C12 non d ame     -35.328  17.265  27.557  0.00  0.00    -0.071 C 
ATOM     36  H13 non d ame     -34.514  17.971  27.391  0.00  0.00     0.028 H 
ATOM     37  H14 non d ame     -36.279  17.797  27.541  0.00  0.00     0.028 H 
ATOM     38  H15 non d ame     -35.197  16.782  28.525  0.00  0.00     0.028 H 
ENDBRANCH  33  35
BRANCH  33  39
ATOM     39  C13 non d ame     -34.256  16.520  25.334  0.00  0.00    -0.071 C 
ATOM     40  H16 non d ame     -34.457  17.510  24.925  0.00  0.00     0.028 H 
ATOM     41  H17 non d ame     -33.259  16.505  25.777  0.00  0.00     0.028 H 
ATOM     42  H18 non d ame     -34.310  15.778  24.538  0.00  0.00     0.028 H 
ENDBRANCH  33  39
ENDBRANCH   7  33
ENDBRANCH   4   7
ENDBRANCH   1   3
BRANCH   1  43
ATOM     43  C15 non d ame     -35.972  10.651  24.368  0.00  0.00     0.240 C 
ATOM     44  O5  non d ame     -36.572   9.780  23.827  0.00  0.00    -0.271 OA
ATOM     45  N6  non d ame     -34.519  10.482  24.658  0.00  0.00    -0.355 N 
ATOM     46  H46 non d ame     -33.998  11.218  25.112  0.00  0.00     0.162 HD
BRANCH  45  47
ATOM     47  C20 non d ame     -33.837   9.226  24.277  0.00  0.00     0.013 C 
ATOM     48  H30 non d ame     -34.418   8.757  23.483  0.00  0.00     0.072 H 
BRANCH  47  49
ATOM     49  C21 non d ame     -33.769   8.311  25.478  0.00  0.00    -0.038 C 
ATOM     50  H31 non d ame     -32.779   8.464  25.909  0.00  0.00     0.036 H 
ATOM     51  H32 non d ame     -34.660   8.530  26.066  0.00  0.00     0.036 H 
BRANCH  49  52
ATOM     52  C22 non d ame     -33.852   6.816  25.098  0.00  0.00     0.018 C 
ATOM     53  H33 non d ame     -34.690   6.414  25.666  0.00  0.00     0.048 H 
ATOM     54  H34 non d ame     -33.869   6.789  24.008  0.00  0.00     0.048 H 
BRANCH  52  55
ATOM     55  C23 non d ame     -32.608   5.990  25.528  0.00  0.00     0.259 C 
ATOM     56  O7  non d ame     -31.563   6.148  24.985  0.00  0.00    -0.265 OA
BRANCH  55  57
ATOM     57  O8  non d ame     -32.735   5.032  26.571  0.00  0.00    -0.317 OA
BRANCH  57  58
ATOM     58  C29 non d ame     -34.015   5.032  27.209  0.00  0.00     0.052 C 
ATOM     59  H47 non d ame     -34.404   6.043  27.091  0.00  0.00     0.082 H 
ATOM     60  H48 non d ame     -34.557   4.187  26.784  0.00  0.00     0.082 H 
BRANCH  58  61
ATOM     61  C35 non d ame     -33.796   4.763  28.722  0.00  0.00    -0.034 A 
ATOM     62  C30 non d ame     -34.637   5.349  29.663  0.00  0.00    -0.075 A 
ATOM     63  C31 non d ame     -34.440   5.108  31.022  0.00  0.00    -0.082 A 
ATOM     64  H49 non d ame     -35.450   5.998  29.336  0.00  0.00     0.084 H 
ATOM     65  C32 non d ame     -33.396   4.279  31.439  0.00  0.00    -0.083 A 
ATOM     66  H50 non d ame     -35.102   5.568  31.756  0.00  0.00     0.083 H 
ATOM     67  C33 non d ame     -32.558   3.698  30.497  0.00  0.00    -0.082 A 
ATOM     68  H51 non d ame     -33.236   4.084  32.500  0.00  0.00     0.083 H 
ATOM     69  C34 non d ame     -32.752   3.935  29.138  0.00  0.00    -0.075 A 
ATOM     70  H52 non d ame     -31.742   3.053  30.826  0.00  0.00     0.083 H 
ATOM     71  H53 non d ame     -32.090   3.475  28.404  0.00  0.00     0.084 H 
ENDBRANCH  58  61
ENDBRANCH  57  58
ENDBRANCH  55  57
ENDBRANCH  52  55
ENDBRANCH  49  52
ENDBRANCH  47  49
BRANCH  47  72
ATOM     72  C24 non d ame     -32.423   9.534  23.788  0.00  0.00    -0.039 C 
ATOM     73  H35 non d ame     -32.367  10.621  23.729  0.00  0.00     0.036 H 
ATOM     74  H36 non d ame     -31.759   8.990  24.461  0.00  0.00     0.036 H 
BRANCH  72  75
ATOM     75  C25 non d ame     -32.170   8.967  22.312  0.00  0.00    -0.001 C 
ATOM     76  C26 non d ame     -33.439   8.030  21.846  0.00  0.00    -0.035 C 
ATOM     77  C27 non d ame     -32.964   6.840  21.406  0.00  0.00     0.085 C 
ATOM     78  H38 non d ame     -34.041   7.760  22.713  0.00  0.00     0.036 H 
ATOM     79  H39 non d ame     -33.914   8.457  20.963  0.00  0.00     0.036 H 
ATOM     80  N5  non d ame     -31.519   6.755  21.834  0.00  0.00    -0.049 N 
ATOM     81  H40 non d ame     -33.538   6.083  21.940  0.00  0.00     0.075 H 
ATOM     82  H41 non d ame     -33.010   6.892  20.319  0.00  0.00     0.075 H 
ATOM     83  C28 non d ame     -31.095   8.252  22.264  0.00  0.00     0.193 C 
ATOM     84  H42 non d ame     -31.497   6.167  22.654  0.00  0.00     0.280 HD
ATOM     85  H43 non d ame     -30.993   6.495  21.012  0.00  0.00     0.280 HD
ATOM     86  H44 non d ame     -30.479   8.865  21.604  0.00  0.00     0.129 H 
ATOM     87  H37 non d ame     -31.847   9.745  21.620  0.00  0.00     0.046 H 
BRANCH  83  88
ATOM     88  O6  non d ame     -30.407   8.229  23.516  0.00  0.00    -0.369 OA
ATOM     89  H45 non d ame     -29.568   8.689  23.429  0.00  0.00     0.212 HD
ENDBRANCH  83  88
ENDBRANCH  72  75
ENDBRANCH  47  72
ENDBRANCH  45  47
ENDBRANCH   1  43
BRANCH   1  90
ATOM     90  C16 non d ame     -37.332  12.591  23.525  0.00  0.00    -0.035 C 
ATOM     91  H21 non d ame     -36.967  13.617  23.502  0.00  0.00     0.037 H 
ATOM     92  H22 non d ame     -37.096  11.910  22.706  0.00  0.00     0.037 H 
BRANCH  90  93
ATOM     93  C17 non d ame     -38.890  12.679  23.590  0.00  0.00    -0.059 C 
ATOM     94  H23 non d ame     -39.229  11.976  24.351  0.00  0.00     0.038 H 
BRANCH  93  95
ATOM     95  C18 non d ame     -39.383  14.103  24.001  0.00  0.00    -0.073 C 
ATOM     96  H24 non d ame     -39.415  14.176  25.088  0.00  0.00     0.028 H 
ATOM     97  H25 non d ame     -38.698  14.853  23.607  0.00  0.00     0.028 H 
ATOM     98  H26 non d ame     -40.380  14.273  23.596  0.00  0.00     0.028 H 
ENDBRANCH  93  95
BRANCH  93  99
ATOM     99  C19 non d ame     -39.518  12.247  22.262  0.00  0.00    -0.073 C 
ATOM    100  H27 non d ame     -39.198  12.926  21.471  0.00  0.00     0.028 H 
ATOM    101  H28 non d ame     -39.199  11.233  22.021  0.00  0.00     0.028 H 
ATOM    102  H29 non d ame     -40.604  12.275  22.348  0.00  0.00     0.028 H 
ENDBRANCH  93  99
ENDBRANCH  90  93
ENDBRANCH   1  90
TORSDOF 26
ENDMDL
MODEL 14
REMARK VINA RESULT:      -6.3      1.747      7.176
REMARK  26 active torsions:
REMARK  status: ('A' for Active; 'I' for Inactive)
REMARK    1  A    between atoms: C2_2  and  C3_3 
REMARK    2  A    between atoms: C4_6  and  C5_7 
REMARK       I    between atoms: C5_7  and  N2_9 
REMARK    3  A    between atoms: N2_9  and  C6_10 
REMARK    4  A    between atoms: C6_10  and  C7_11 
REMARK    5  A    between atoms: C6_10  and  C8_13 
REMARK       I    between atoms: C7_11  and  N3_14 
REMARK    6  A    between atoms: N3_14  and  C9_15 
REMARK    7  A    between atoms: C9_15  and  C10_16 
REMARK    8  A    between atoms: C9_15  and  C11_18 
REMARK       I    between atoms: C10_16  and  N4_21 
REMARK    9  A    between atoms: C11_18  and  C12_19 
REMARK   10  A    between atoms: C11_18  and  C13_20 
REMARK   11  A    between atoms: N4_21  and  C14_22 
REMARK   12  A    between atoms: C14_22  and  C15_23 
REMARK   13  A    between atoms: C14_22  and  C16_25 
REMARK       I    between atoms: C15_23  and  N6_40 
REMARK   14  A    between atoms: C16_25  and  C17_26 
REMARK   15  A    between atoms: C17_26  and  C18_27 
REMARK   16  A    between atoms: C17_26  and  C19_28 
REMARK   17  A    between atoms: C20_29  and  C21_30 
REMARK   18  A    between atoms: C20_29  and  C24_33 
REMARK   19  A    between atoms: C20_29  and  N6_40 
REMARK   20  A    between atoms: C21_30  and  C22_31 
REMARK   21  A    between atoms: C22_31  and  C23_32 
REMARK   22  A    between atoms: C23_32  and  O8_43 
REMARK   23  A    between atoms: C24_33  and  C25_34 
REMARK   24  A    between atoms: C28_38  and  O6_39 
REMARK   25  A    between atoms: C29_42  and  O8_43 
REMARK   26  A    between atoms: C29_42  and  C35_49 
ROOT
ATOM      1  C14 non d ame     -37.284  13.829  25.302  0.00  0.00     0.089 C 
ATOM      2  H20 non d ame     -38.276  13.861  25.752  0.00  0.00     0.087 H 
ENDROOT
BRANCH   1   3
ATOM      3  N4  non d ame     -36.773  15.192  25.272  0.00  0.00    -0.346 N 
ATOM      4  C10 non d ame     -37.151  16.171  26.355  0.00  0.00     0.241 C 
ATOM      5  O4  non d ame     -37.870  15.840  27.240  0.00  0.00    -0.271 OA
ATOM      6  H19 non d ame     -36.164  15.455  24.510  0.00  0.00     0.163 HD
BRANCH   4   7
ATOM      7  C9  non d ame     -36.608  17.575  26.312  0.00  0.00     0.092 C 
ATOM      8  H11 non d ame     -36.835  18.077  27.252  0.00  0.00     0.088 H 
BRANCH   7   9
ATOM      9  N3  non d ame     -35.148  17.532  26.185  0.00  0.00    -0.346 N 
ATOM     10  C7  non d ame     -34.317  17.936  27.292  0.00  0.00     0.240 C 
ATOM     11  O3  non d ame     -34.806  18.299  28.291  0.00  0.00    -0.271 OA
ATOM     12  H10 non d ame     -34.712  17.222  25.328  0.00  0.00     0.163 HD
BRANCH  10  13
ATOM     13  C6  non d ame     -32.764  17.890  27.150  0.00  0.00     0.086 C 
ATOM     14  H6  non d ame     -32.291  17.249  27.894  0.00  0.00     0.086 H 
BRANCH  13  15
ATOM     15  N2  non d ame     -32.425  17.338  25.849  0.00  0.00    -0.343 N 
ATOM     16  C5  non d ame     -31.728  16.052  25.771  0.00  0.00     0.273 C 
ATOM     17  O2  non d ame     -31.442  15.472  26.760  0.00  0.00    -0.266 OA
ATOM     18  H5  non d ame     -32.671  17.841  25.009  0.00  0.00     0.163 HD
BRANCH  16  19
ATOM     19  C4  non d ame     -31.366  15.455  24.402  0.00  0.00     0.154 A 
ATOM     20  C1  non d ame     -31.278  16.147  23.153  0.00  0.00    -0.017 A 
ATOM     21  C2  non d ame     -30.915  15.156  22.213  0.00  0.00     0.077 A 
ATOM     22  H1  non d ame     -31.452  17.205  22.957  0.00  0.00     0.091 H 
ATOM     23  O1  non d ame     -30.807  14.031  22.858  0.00  0.00    -0.218 OA
ATOM     24  N1  non d ame     -31.066  14.180  24.137  0.00  0.00    -0.123 NA
BRANCH  21  25
ATOM     25  C3  non d ame     -30.689  15.367  20.722  0.00  0.00    -0.029 C 
ATOM     26  H2  non d ame     -29.914  16.119  20.574  0.00  0.00     0.036 H 
ATOM     27  H3  non d ame     -30.376  14.428  20.266  0.00  0.00     0.036 H 
ATOM     28  H4  non d ame     -31.616  15.705  20.258  0.00  0.00     0.036 H 
ENDBRANCH  21  25
ENDBRANCH  16  19
ENDBRANCH  13  15
BRANCH  13  29
ATOM     29  C8  non d ame     -32.203  19.284  27.280  0.00  0.00    -0.049 C 
ATOM     30  H7  non d ame     -31.419  19.431  26.538  0.00  0.00     0.030 H 
ATOM     31  H8  non d ame     -32.998  20.011  27.119  0.00  0.00     0.030 H 
ATOM     32  H9  non d ame     -31.787  19.416  28.279  0.00  0.00     0.030 H 
ENDBRANCH  13  29
ENDBRANCH  10  13
ENDBRANCH   7   9
BRANCH   7  33
ATOM     33  C11 non d ame     -37.210  18.326  25.088  0.00  0.00    -0.033 C 
ATOM     34  H12 non d ame     -37.097  17.680  24.217  0.00  0.00     0.042 H 
BRANCH  33  35
ATOM     35  C12 non d ame     -38.736  18.591  25.278  0.00  0.00    -0.071 C 
ATOM     36  H13 non d ame     -39.242  18.510  24.316  0.00  0.00     0.028 H 
ATOM     37  H14 non d ame     -39.149  17.857  25.969  0.00  0.00     0.028 H 
ATOM     38  H15 non d ame     -38.883  19.593  25.682  0.00  0.00     0.028 H 
ENDBRANCH  33  35
BRANCH  33  39
ATOM     39  C13 non d ame     -36.435  19.653  24.809  0.00  0.00    -0.071 C 
ATOM     40  H16 non d ame     -37.092  20.504  24.994  0.00  0.00     0.028 H 
ATOM     41  H17 non d ame     -35.568  19.713  25.468  0.00  0.00     0.028 H 
ATOM     42  H18 non d ame     -36.103  19.669  23.771  0.00  0.00     0.028 H 
ENDBRANCH  33  39
ENDBRANCH   7  33
ENDBRANCH   4   7
ENDBRANCH   1   3
BRANCH   1  43
ATOM     43  C15 non d ame     -36.296  12.948  26.119  0.00  0.00     0.240 C 
ATOM     44  O5  non d ame     -36.596  12.578  27.208  0.00  0.00    -0.271 OA
ATOM     45  N6  non d ame     -34.979  12.558  25.540  0.00  0.00    -0.355 N 
ATOM     46  H46 non d ame     -34.715  12.863  24.614  0.00  0.00     0.162 HD
BRANCH  45  47
ATOM     47  C20 non d ame     -34.051  11.718  26.328  0.00  0.00     0.013 C 
ATOM     48  H30 non d ame     -34.648  11.082  26.982  0.00  0.00     0.072 H 
BRANCH  47  49
ATOM     49  C21 non d ame     -33.151  12.609  27.155  0.00  0.00    -0.038 C 
ATOM     50  H31 non d ame     -32.876  13.437  26.502  0.00  0.00     0.036 H 
ATOM     51  H32 non d ame     -33.696  12.801  28.079  0.00  0.00     0.036 H 
BRANCH  49  52
ATOM     52  C22 non d ame     -31.833  11.916  27.561  0.00  0.00     0.018 C 
ATOM     53  H33 non d ame     -32.029  10.846  27.498  0.00  0.00     0.048 H 
ATOM     54  H34 non d ame     -31.059  12.365  26.939  0.00  0.00     0.048 H 
BRANCH  52  55
ATOM     55  C23 non d ame     -31.410  12.187  29.032  0.00  0.00     0.259 C 
ATOM     56  O7  non d ame     -30.670  13.079  29.292  0.00  0.00    -0.265 OA
BRANCH  55  57
ATOM     57  O8  non d ame     -31.910  11.348  30.066  0.00  0.00    -0.317 OA
BRANCH  57  58
ATOM     58  C29 non d ame     -32.938  11.949  30.858  0.00  0.00     0.052 C 
ATOM     59  H47 non d ame     -32.434  12.363  31.732  0.00  0.00     0.082 H 
ATOM     60  H48 non d ame     -33.485  12.606  30.183  0.00  0.00     0.082 H 
BRANCH  58  61
ATOM     61  C35 non d ame     -33.897  10.824  31.332  0.00  0.00    -0.034 A 
ATOM     62  C30 non d ame     -33.954   9.619  30.638  0.00  0.00    -0.075 A 
ATOM     63  C31 non d ame     -34.815   8.609  31.063  0.00  0.00    -0.082 A 
ATOM     64  H49 non d ame     -33.325   9.467  29.761  0.00  0.00     0.084 H 
ATOM     65  C32 non d ame     -35.624   8.808  32.186  0.00  0.00    -0.083 A 
ATOM     66  H50 non d ame     -34.857   7.666  30.519  0.00  0.00     0.083 H 
ATOM     67  C33 non d ame     -35.566  10.013  32.873  0.00  0.00    -0.082 A 
ATOM     68  H51 non d ame     -36.300   8.023  32.526  0.00  0.00     0.083 H 
ATOM     69  C34 non d ame     -34.705  11.024  32.453  0.00  0.00    -0.075 A 
ATOM     70  H52 non d ame     -36.199  10.166  33.747  0.00  0.00     0.083 H 
ATOM     71  H53 non d ame     -34.664  11.968  32.998  0.00  0.00     0.084 H 
ENDBRANCH  58  61
ENDBRANCH  57  58
ENDBRANCH  55  57
ENDBRANCH  52  55
ENDBRANCH  49  52
ENDBRANCH  47  49
BRANCH  47  72
ATOM     72  C24 non d ame     -33.201  10.865  25.389  0.00  0.00    -0.039 C 
ATOM     73  H35 non d ame     -33.468  11.189  24.382  0.00  0.00     0.036 H 
ATOM     74  H36 non d ame     -32.177  10.976  25.743  0.00  0.00     0.036 H 
BRANCH  72  75
ATOM     75  C25 non d ame     -33.574   9.311  25.499  0.00  0.00    -0.001 C 
ATOM     76  C26 non d ame     -34.026   8.952  27.039  0.00  0.00    -0.035 C 
ATOM     77  C27 non d ame     -33.313   7.881  27.464  0.00  0.00     0.085 C 
ATOM     78  H38 non d ame     -33.716   9.748  27.715  0.00  0.00     0.036 H 
ATOM     79  H39 non d ame     -35.056   8.594  27.053  0.00  0.00     0.036 H 
ATOM     80  N5  non d ame     -32.188   7.680  26.478  0.00  0.00    -0.049 N 
ATOM     81  H40 non d ame     -32.895   8.173  28.427  0.00  0.00     0.075 H 
ATOM     82  H41 non d ame     -33.995   7.034  27.401  0.00  0.00     0.075 H 
ATOM     83  C28 non d ame     -32.569   8.565  25.183  0.00  0.00     0.193 C 
ATOM     84  H42 non d ame     -31.360   8.073  26.904  0.00  0.00     0.280 HD
ATOM     85  H43 non d ame     -32.207   6.704  26.218  0.00  0.00     0.280 HD
ATOM     86  H44 non d ame     -32.951   8.090  24.280  0.00  0.00     0.129 H 
ATOM     87  H37 non d ame     -34.240   8.988  24.699  0.00  0.00     0.046 H 
BRANCH  83  88
ATOM     88  O6  non d ame     -31.440   9.333  24.761  0.00  0.00    -0.369 OA
ATOM     89  H45 non d ame     -31.592   9.666  23.873  0.00  0.00     0.212 HD
ENDBRANCH  83  88
ENDBRANCH  72  75
ENDBRANCH  47  72
ENDBRANCH  45  47
ENDBRANCH   1  43
BRANCH   1  90
ATOM     90  C16 non d ame     -37.381  13.305  23.879  0.00  0.00    -0.035 C 
ATOM     91  H21 non d ame     -37.813  14.119  23.299  0.00  0.00     0.037 H 
ATOM     92  H22 non d ame     -36.383  12.935  23.639  0.00  0.00     0.037 H 
BRANCH  90  93
ATOM     93  C17 non d ame     -38.350  12.090  23.723  0.00  0.00    -0.059 C 
ATOM     94  H23 non d ame     -38.908  11.991  24.654  0.00  0.00     0.038 H 
BRANCH  93  95
ATOM     95  C18 non d ame     -39.383  12.304  22.570  0.00  0.00    -0.073 C 
ATOM     96  H24 non d ame     -39.528  13.372  22.406  0.00  0.00     0.028 H 
ATOM     97  H25 non d ame     -39.007  11.845  21.656  0.00  0.00     0.028 H 
ATOM     98  H26 non d ame     -40.333  11.846  22.844  0.00  0.00     0.028 H 
ENDBRANCH  93  95
BRANCH  93  99
ATOM     99  C19 non d ame     -37.569  10.789  23.520  0.00  0.00    -0.073 C 
ATOM    100  H27 non d ame     -37.178  10.446  24.478  0.00  0.00     0.028 H 
ATOM    101  H28 non d ame     -38.231  10.029  23.105  0.00  0.00     0.028 H 
ATOM    102  H29 non d ame     -36.743  10.965  22.832  0.00  0.00     0.028 H 
ENDBRANCH  93  99
ENDBRANCH  90  93
ENDBRANCH   1  90
TORSDOF 26
ENDMDL
MODEL 15
REMARK VINA RESULT:      -6.3      3.356      7.800
REMARK  26 active torsions:
REMARK  status: ('A' for Active; 'I' for Inactive)
REMARK    1  A    between atoms: C2_2  and  C3_3 
REMARK    2  A    between atoms: C4_6  and  C5_7 
REMARK       I    between atoms: C5_7  and  N2_9 
REMARK    3  A    between atoms: N2_9  and  C6_10 
REMARK    4  A    between atoms: C6_10  and  C7_11 
REMARK    5  A    between atoms: C6_10  and  C8_13 
REMARK       I    between atoms: C7_11  and  N3_14 
REMARK    6  A    between atoms: N3_14  and  C9_15 
REMARK    7  A    between atoms: C9_15  and  C10_16 
REMARK    8  A    between atoms: C9_15  and  C11_18 
REMARK       I    between atoms: C10_16  and  N4_21 
REMARK    9  A    between atoms: C11_18  and  C12_19 
REMARK   10  A    between atoms: C11_18  and  C13_20 
REMARK   11  A    between atoms: N4_21  and  C14_22 
REMARK   12  A    between atoms: C14_22  and  C15_23 
REMARK   13  A    between atoms: C14_22  and  C16_25 
REMARK       I    between atoms: C15_23  and  N6_40 
REMARK   14  A    between atoms: C16_25  and  C17_26 
REMARK   15  A    between atoms: C17_26  and  C18_27 
REMARK   16  A    between atoms: C17_26  and  C19_28 
REMARK   17  A    between atoms: C20_29  and  C21_30 
REMARK   18  A    between atoms: C20_29  and  C24_33 
REMARK   19  A    between atoms: C20_29  and  N6_40 
REMARK   20  A    between atoms: C21_30  and  C22_31 
REMARK   21  A    between atoms: C22_31  and  C23_32 
REMARK   22  A    between atoms: C23_32  and  O8_43 
REMARK   23  A    between atoms: C24_33  and  C25_34 
REMARK   24  A    between atoms: C28_38  and  O6_39 
REMARK   25  A    between atoms: C29_42  and  O8_43 
REMARK   26  A    between atoms: C29_42  and  C35_49 
ROOT
ATOM      1  C14 non d ame     -33.680   9.984  28.177  0.00  0.00     0.089 C 
ATOM      2  H20 non d ame     -34.471  10.682  27.902  0.00  0.00     0.087 H 
ENDROOT
BRANCH   1   3
ATOM      3  N4  non d ame     -32.414  10.694  28.078  0.00  0.00    -0.346 N 
ATOM      4  C10 non d ame     -32.389  12.200  27.998  0.00  0.00     0.241 C 
ATOM      5  O4  non d ame     -33.402  12.818  28.012  0.00  0.00    -0.271 OA
ATOM      6  H19 non d ame     -31.563  10.149  28.065  0.00  0.00     0.163 HD
BRANCH   4   7
ATOM      7  C9  non d ame     -31.069  12.919  27.902  0.00  0.00     0.092 C 
ATOM      8  H11 non d ame     -30.300  12.215  27.583  0.00  0.00     0.088 H 
BRANCH   7   9
ATOM      9  N3  non d ame     -31.154  13.962  26.876  0.00  0.00    -0.346 N 
ATOM     10  C7  non d ame     -31.141  13.601  25.479  0.00  0.00     0.240 C 
ATOM     11  O3  non d ame     -31.061  12.477  25.164  0.00  0.00    -0.271 OA
ATOM     12  H10 non d ame     -31.222  14.936  27.133  0.00  0.00     0.163 HD
BRANCH  10  13
ATOM     13  C6  non d ame     -31.229  14.717  24.391  0.00  0.00     0.086 C 
ATOM     14  H6  non d ame     -32.025  14.539  23.669  0.00  0.00     0.086 H 
BRANCH  13  15
ATOM     15  N2  non d ame     -31.529  15.983  25.038  0.00  0.00    -0.343 N 
ATOM     16  C5  non d ame     -32.917  16.446  25.109  0.00  0.00     0.273 C 
ATOM     17  O2  non d ame     -33.784  15.793  24.641  0.00  0.00    -0.266 OA
ATOM     18  H5  non d ame     -30.782  16.536  25.433  0.00  0.00     0.163 HD
BRANCH  16  19
ATOM     19  C4  non d ame     -33.249  17.782  25.791  0.00  0.00     0.154 A 
ATOM     20  C1  non d ame     -34.545  18.360  25.976  0.00  0.00    -0.017 A 
ATOM     21  C2  non d ame     -34.307  19.578  26.650  0.00  0.00     0.077 A 
ATOM     22  H1  non d ame     -35.510  17.957  25.668  0.00  0.00     0.091 H 
ATOM     23  O1  non d ame     -33.023  19.678  26.828  0.00  0.00    -0.218 OA
ATOM     24  N1  non d ame     -32.384  18.642  26.335  0.00  0.00    -0.123 NA
BRANCH  21  25
ATOM     25  C3  non d ame     -35.361  20.587  27.088  0.00  0.00    -0.029 C 
ATOM     26  H2  non d ame     -35.182  21.539  26.589  0.00  0.00     0.036 H 
ATOM     27  H3  non d ame     -36.351  20.217  26.820  0.00  0.00     0.036 H 
ATOM     28  H4  non d ame     -35.305  20.726  28.167  0.00  0.00     0.036 H 
ENDBRANCH  21  25
ENDBRANCH  16  19
ENDBRANCH  13  15
BRANCH  13  29
ATOM     29  C8  non d ame     -29.916  14.810  23.657  0.00  0.00    -0.049 C 
ATOM     30  H7  non d ame     -29.455  15.777  23.858  0.00  0.00     0.030 H 
ATOM     31  H8  non d ame     -29.253  14.014  23.995  0.00  0.00     0.030 H 
ATOM     32  H9  non d ame     -30.090  14.708  22.585  0.00  0.00     0.030 H 
ENDBRANCH  13  29
ENDBRANCH  10  13
ENDBRANCH   7   9
BRANCH   7  33
ATOM     33  C11 non d ame     -30.733  13.571  29.275  0.00  0.00    -0.033 C 
ATOM     34  H12 non d ame     -29.662  13.773  29.289  0.00  0.00     0.042 H 
BRANCH  33  35
ATOM     35  C12 non d ame     -31.470  14.936  29.451  0.00  0.00    -0.071 C 
ATOM     36  H13 non d ame     -31.173  15.615  28.651  0.00  0.00     0.028 H 
ATOM     37  H14 non d ame     -32.547  14.776  29.410  0.00  0.00     0.028 H 
ATOM     38  H15 non d ame     -31.202  15.372  30.413  0.00  0.00     0.028 H 
ENDBRANCH  33  35
BRANCH  33  39
ATOM     39  C13 non d ame     -31.058  12.597  30.452  0.00  0.00    -0.071 C 
ATOM     40  H16 non d ame     -30.437  12.847  31.313  0.00  0.00     0.028 H 
ATOM     41  H17 non d ame     -32.110  12.691  30.723  0.00  0.00     0.028 H 
ATOM     42  H18 non d ame     -30.854  11.572  30.142  0.00  0.00     0.028 H 
ENDBRANCH  33  39
ENDBRANCH   7  33
ENDBRANCH   4   7
ENDBRANCH   1   3
BRANCH   1  43
ATOM     43  C15 non d ame     -33.841   9.458  29.632  0.00  0.00     0.240 C 
ATOM     44  O5  non d ame     -33.315  10.033  30.530  0.00  0.00    -0.271 OA
ATOM     45  N6  non d ame     -34.660   8.244  29.908  0.00  0.00    -0.355 N 
ATOM     46  H46 non d ame     -35.116   7.750  29.155  0.00  0.00     0.162 HD
BRANCH  45  47
ATOM     47  C20 non d ame     -34.805   7.758  31.298  0.00  0.00     0.013 C 
ATOM     48  H30 non d ame     -33.950   8.119  31.870  0.00  0.00     0.072 H 
BRANCH  47  49
ATOM     49  C21 non d ame     -34.825   6.246  31.299  0.00  0.00    -0.038 C 
ATOM     50  H31 non d ame     -33.864   5.939  31.712  0.00  0.00     0.036 H 
ATOM     51  H32 non d ame     -35.750   5.964  31.802  0.00  0.00     0.036 H 
BRANCH  49  52
ATOM     52  C22 non d ame     -34.900   5.646  29.878  0.00  0.00     0.018 C 
ATOM     53  H33 non d ame     -35.816   5.057  29.855  0.00  0.00     0.048 H 
ATOM     54  H34 non d ame     -34.776   6.488  29.195  0.00  0.00     0.048 H 
BRANCH  52  55
ATOM     55  C23 non d ame     -33.746   4.658  29.553  0.00  0.00     0.259 C 
ATOM     56  O7  non d ame     -33.157   4.110  30.427  0.00  0.00    -0.265 OA
BRANCH  55  57
ATOM     57  O8  non d ame     -33.391   4.424  28.195  0.00  0.00    -0.317 OA
BRANCH  57  58
ATOM     58  C29 non d ame     -32.474   5.382  27.660  0.00  0.00     0.052 C 
ATOM     59  H47 non d ame     -32.825   6.353  28.010  0.00  0.00     0.082 H 
ATOM     60  H48 non d ame     -31.482   5.029  27.938  0.00  0.00     0.082 H 
BRANCH  58  61
ATOM     61  C35 non d ame     -32.593   5.345  26.113  0.00  0.00    -0.034 A 
ATOM     62  C30 non d ame     -33.466   4.451  25.502  0.00  0.00    -0.075 A 
ATOM     63  C31 non d ame     -33.572   4.417  24.112  0.00  0.00    -0.082 A 
ATOM     64  H49 non d ame     -34.066   3.775  26.112  0.00  0.00     0.084 H 
ATOM     65  C32 non d ame     -32.799   5.282  23.332  0.00  0.00    -0.083 A 
ATOM     66  H50 non d ame     -34.258   3.716  23.637  0.00  0.00     0.083 H 
ATOM     67  C33 non d ame     -31.927   6.171  23.946  0.00  0.00    -0.082 A 
ATOM     68  H51 non d ame     -32.877   5.263  22.245  0.00  0.00     0.083 H 
ATOM     69  C34 non d ame     -31.819   6.209  25.335  0.00  0.00    -0.075 A 
ATOM     70  H52 non d ame     -31.324   6.842  23.335  0.00  0.00     0.083 H 
ATOM     71  H53 non d ame     -31.133   6.911  25.809  0.00  0.00     0.084 H 
ENDBRANCH  58  61
ENDBRANCH  57  58
ENDBRANCH  55  57
ENDBRANCH  52  55
ENDBRANCH  49  52
ENDBRANCH  47  49
BRANCH  47  72
ATOM     72  C24 non d ame     -36.106   8.286  31.897  0.00  0.00    -0.039 C 
ATOM     73  H35 non d ame     -36.569   7.428  32.387  0.00  0.00     0.036 H 
ATOM     74  H36 non d ame     -35.823   9.160  32.482  0.00  0.00     0.036 H 
BRANCH  72  75
ATOM     75  C25 non d ame     -37.121   8.785  30.762  0.00  0.00    -0.001 C 
ATOM     76  C26 non d ame     -37.481  10.373  30.992  0.00  0.00    -0.035 C 
ATOM     77  C27 non d ame     -38.828  10.520  30.987  0.00  0.00     0.085 C 
ATOM     78  H38 non d ame     -37.195  10.679  31.998  0.00  0.00     0.036 H 
ATOM     79  H39 non d ame     -37.158  10.958  30.131  0.00  0.00     0.036 H 
ATOM     80  N5  non d ame     -39.424   9.138  31.103  0.00  0.00    -0.049 N 
ATOM     81  H40 non d ame     -39.062  11.085  31.890  0.00  0.00     0.075 H 
ATOM     82  H41 non d ame     -39.072  10.931  30.008  0.00  0.00     0.075 H 
ATOM     83  C28 non d ame     -38.221   8.108  30.788  0.00  0.00     0.193 C 
ATOM     84  H42 non d ame     -39.699   9.025  32.068  0.00  0.00     0.280 HD
ATOM     85  H43 non d ame     -40.113   9.062  30.369  0.00  0.00     0.280 HD
ATOM     86  H44 non d ame     -38.164   7.601  29.824  0.00  0.00     0.129 H 
ATOM     87  H37 non d ame     -36.802   8.488  29.763  0.00  0.00     0.046 H 
BRANCH  83  88
ATOM     88  O6  non d ame     -38.192   7.069  31.768  0.00  0.00    -0.369 OA
ATOM     89  H45 non d ame     -37.378   7.129  32.274  0.00  0.00     0.212 HD
ENDBRANCH  83  88
ENDBRANCH  72  75
ENDBRANCH  47  72
ENDBRANCH  45  47
ENDBRANCH   1  43
BRANCH   1  90
ATOM     90  C16 non d ame     -33.668   8.811  27.209  0.00  0.00    -0.035 C 
ATOM     91  H21 non d ame     -32.765   8.939  26.612  0.00  0.00     0.037 H 
ATOM     92  H22 non d ame     -33.791   7.923  27.829  0.00  0.00     0.037 H 
BRANCH  90  93
ATOM     93  C17 non d ame     -34.864   8.817  26.204  0.00  0.00    -0.059 C 
ATOM     94  H23 non d ame     -34.460   9.004  25.209  0.00  0.00     0.038 H 
BRANCH  93  95
ATOM     95  C18 non d ame     -35.607   7.443  26.165  0.00  0.00    -0.073 C 
ATOM     96  H24 non d ame     -36.675   7.603  26.314  0.00  0.00     0.028 H 
ATOM     97  H25 non d ame     -35.443   6.968  25.198  0.00  0.00     0.028 H 
ATOM     98  H26 non d ame     -35.222   6.799  26.955  0.00  0.00     0.028 H 
ENDBRANCH  93  95
BRANCH  93  99
ATOM     99  C19 non d ame     -35.839   9.954  26.520  0.00  0.00    -0.073 C 
ATOM    100  H27 non d ame     -35.421  10.583  27.307  0.00  0.00     0.028 H 
ATOM    101  H28 non d ame     -36.001  10.554  25.624  0.00  0.00     0.028 H 
ATOM    102  H29 non d ame     -36.789   9.537  26.853  0.00  0.00     0.028 H 
ENDBRANCH  93  99
ENDBRANCH  90  93
ENDBRANCH   1  90
TORSDOF 26
ENDMDL
