MODEL 1
REMARK VINA RESULT:      -7.5      0.000      0.000
REMARK  26 active torsions:
REMARK  status: ('A' for Active; 'I' for Inactive)
REMARK    1  A    between atoms: C2_2  and  C3_3 
REMARK    2  A    between atoms: C4_6  and  C5_7 
REMARK       I    between atoms: C5_7  and  N2_9 
REMARK    3  A    between atoms: N2_9  and  C6_10 
REMARK    4  A    between atoms: C6_10  and  C7_11 
REMARK    5  A    between atoms: C6_10  and  C8_13 
REMARK       I    between atoms: C7_11  and  N3_14 
REMARK    6  A    between atoms: N3_14  and  C9_15 
REMARK    7  A    between atoms: C9_15  and  C10_16 
REMARK    8  A    between atoms: C9_15  and  C11_18 
REMARK       I    between atoms: C10_16  and  N4_21 
REMARK    9  A    between atoms: C11_18  and  C12_19 
REMARK   10  A    between atoms: C11_18  and  C13_20 
REMARK   11  A    between atoms: N4_21  and  C14_22 
REMARK   12  A    between atoms: C14_22  and  C15_23 
REMARK   13  A    between atoms: C14_22  and  C16_25 
REMARK       I    between atoms: C15_23  and  N6_40 
REMARK   14  A    between atoms: C16_25  and  C17_26 
REMARK   15  A    between atoms: C17_26  and  C18_27 
REMARK   16  A    between atoms: C17_26  and  C19_28 
REMARK   17  A    between atoms: C20_29  and  C21_30 
REMARK   18  A    between atoms: C20_29  and  C24_33 
REMARK   19  A    between atoms: C20_29  and  N6_40 
REMARK   20  A    between atoms: C21_30  and  C22_31 
REMARK   21  A    between atoms: C22_31  and  C23_32 
REMARK   22  A    between atoms: C23_32  and  O8_43 
REMARK   23  A    between atoms: C24_33  and  C25_34 
REMARK   24  A    between atoms: C28_38  and  O6_39 
REMARK   25  A    between atoms: C29_42  and  O8_43 
REMARK   26  A    between atoms: C29_42  and  C35_49 
ROOT
ATOM      1  C14 non d ame     -31.009  14.246  24.108  0.00  0.00     0.089 C 
ATOM      2  H20 non d ame     -29.962  13.949  24.182  0.00  0.00     0.087 H 
ENDROOT
BRANCH   1   3
ATOM      3  N4  non d ame     -31.817  13.049  24.285  0.00  0.00    -0.346 N 
ATOM      4  C10 non d ame     -31.254  11.692  23.946  0.00  0.00     0.241 C 
ATOM      5  O4  non d ame     -30.148  11.588  23.528  0.00  0.00    -0.271 OA
ATOM      6  H19 non d ame     -32.757  13.158  24.640  0.00  0.00     0.163 HD
BRANCH   4   7
ATOM      7  C9  non d ame     -32.103  10.463  24.141  0.00  0.00     0.092 C 
ATOM      8  H11 non d ame     -32.806  10.378  23.313  0.00  0.00     0.088 H 
BRANCH   7   9
ATOM      9  N3  non d ame     -31.251   9.270  24.111  0.00  0.00    -0.346 N 
ATOM     10  C7  non d ame     -31.188   8.460  22.919  0.00  0.00     0.240 C 
ATOM     11  O3  non d ame     -31.817   8.753  21.976  0.00  0.00    -0.271 OA
ATOM     12  H10 non d ame     -30.704   9.004  24.917  0.00  0.00     0.163 HD
BRANCH  10  13
ATOM     13  C6  non d ame     -30.282   7.190  22.894  0.00  0.00     0.086 C 
ATOM     14  H6  non d ame     -30.395   6.573  23.785  0.00  0.00     0.086 H 
BRANCH  13  15
ATOM     15  N2  non d ame     -30.664   6.361  21.763  0.00  0.00    -0.343 N 
ATOM     16  C5  non d ame     -31.782   5.425  21.900  0.00  0.00     0.273 C 
ATOM     17  O2  non d ame     -32.365   5.344  22.924  0.00  0.00    -0.266 OA
ATOM     18  H5  non d ame     -30.158   6.434  20.891  0.00  0.00     0.163 HD
BRANCH  16  19
ATOM     19  C4  non d ame     -32.197   4.543  20.712  0.00  0.00     0.154 A 
ATOM     20  C1  non d ame     -32.272   3.115  20.680  0.00  0.00    -0.017 A 
ATOM     21  C2  non d ame     -32.701   2.802  19.370  0.00  0.00     0.077 A 
ATOM     22  H1  non d ame     -32.049   2.412  21.483  0.00  0.00     0.091 H 
ATOM     23  O1  non d ame     -32.853   3.927  18.734  0.00  0.00    -0.218 OA
ATOM     24  N1  non d ame     -32.565   4.957  19.496  0.00  0.00    -0.123 NA
BRANCH  21  25
ATOM     25  C3  non d ame     -32.941   1.407  18.809  0.00  0.00    -0.029 C 
ATOM     26  H2  non d ame     -32.674   1.389  17.753  0.00  0.00     0.036 H 
ATOM     27  H3  non d ame     -32.328   0.687  19.350  0.00  0.00     0.036 H 
ATOM     28  H4  non d ame     -33.993   1.146  18.923  0.00  0.00     0.036 H 
ENDBRANCH  21  25
ENDBRANCH  16  19
ENDBRANCH  13  15
BRANCH  13  29
ATOM     29  C8  non d ame     -28.837   7.602  22.767  0.00  0.00    -0.049 C 
ATOM     30  H7  non d ame     -28.413   7.750  23.761  0.00  0.00     0.030 H 
ATOM     31  H8  non d ame     -28.281   6.822  22.248  0.00  0.00     0.030 H 
ATOM     32  H9  non d ame     -28.773   8.533  22.203  0.00  0.00     0.030 H 
ENDBRANCH  13  29
ENDBRANCH  10  13
ENDBRANCH   7   9
BRANCH   7  33
ATOM     33  C11 non d ame     -32.826  10.546  25.518  0.00  0.00    -0.033 C 
ATOM     34  H12 non d ame     -33.249  11.546  25.607  0.00  0.00     0.042 H 
BRANCH  33  35
ATOM     35  C12 non d ame     -34.005   9.527  25.602  0.00  0.00    -0.071 C 
ATOM     36  H13 non d ame     -34.535   9.662  26.545  0.00  0.00     0.028 H 
ATOM     37  H14 non d ame     -34.691   9.697  24.772  0.00  0.00     0.028 H 
ATOM     38  H15 non d ame     -33.613   8.512  25.548  0.00  0.00     0.028 H 
ENDBRANCH  33  35
BRANCH  33  39
ATOM     39  C13 non d ame     -31.816  10.342  26.693  0.00  0.00    -0.071 C 
ATOM     40  H16 non d ame     -31.107   9.556  26.430  0.00  0.00     0.028 H 
ATOM     41  H17 non d ame     -31.278  11.272  26.875  0.00  0.00     0.028 H 
ATOM     42  H18 non d ame     -32.360  10.056  27.593  0.00  0.00     0.028 H 
ENDBRANCH  33  39
ENDBRANCH   7  33
ENDBRANCH   4   7
ENDBRANCH   1   3
BRANCH   1  43
ATOM     43  C15 non d ame     -31.406  15.278  25.201  0.00  0.00     0.240 C 
ATOM     44  O5  non d ame     -30.775  16.278  25.327  0.00  0.00    -0.271 OA
ATOM     45  N6  non d ame     -32.578  15.025  26.087  0.00  0.00    -0.355 N 
ATOM     46  H46 non d ame     -33.124  14.182  25.986  0.00  0.00     0.162 HD
BRANCH  45  47
ATOM     47  C20 non d ame     -32.944  16.017  27.121  0.00  0.00     0.013 C 
ATOM     48  H30 non d ame     -32.106  16.705  27.236  0.00  0.00     0.072 H 
BRANCH  47  49
ATOM     49  C21 non d ame     -33.209  15.303  28.427  0.00  0.00    -0.038 C 
ATOM     50  H31 non d ame     -33.717  16.029  29.062  0.00  0.00     0.036 H 
ATOM     51  H32 non d ame     -33.707  14.372  28.157  0.00  0.00     0.036 H 
BRANCH  49  52
ATOM     52  C22 non d ame     -31.913  14.906  29.167  0.00  0.00     0.018 C 
ATOM     53  H33 non d ame     -31.096  15.199  28.509  0.00  0.00     0.048 H 
ATOM     54  H34 non d ame     -31.996  15.345  30.162  0.00  0.00     0.048 H 
BRANCH  52  55
ATOM     55  C23 non d ame     -31.760  13.375  29.385  0.00  0.00     0.259 C 
ATOM     56  O7  non d ame     -30.775  12.811  29.033  0.00  0.00    -0.265 OA
BRANCH  55  57
ATOM     57  O8  non d ame     -32.818  12.650  30.000  0.00  0.00    -0.317 OA
BRANCH  57  58
ATOM     58  C29 non d ame     -32.402  11.436  30.632  0.00  0.00     0.052 C 
ATOM     59  H47 non d ame     -31.865  10.874  29.867  0.00  0.00     0.082 H 
ATOM     60  H48 non d ame     -31.889  11.740  31.545  0.00  0.00     0.082 H 
BRANCH  58  61
ATOM     61  C35 non d ame     -33.674  10.640  31.026  0.00  0.00    -0.034 A 
ATOM     62  C30 non d ame     -34.424  11.028  32.131  0.00  0.00    -0.075 A 
ATOM     63  C31 non d ame     -35.567  10.312  32.485  0.00  0.00    -0.082 A 
ATOM     64  H49 non d ame     -34.117  11.892  32.721  0.00  0.00     0.084 H 
ATOM     65  C32 non d ame     -35.958   9.203  31.730  0.00  0.00    -0.083 A 
ATOM     66  H50 non d ame     -36.154  10.620  33.351  0.00  0.00     0.083 H 
ATOM     67  C33 non d ame     -35.204   8.818  30.630  0.00  0.00    -0.082 A 
ATOM     68  H51 non d ame     -36.851   8.639  31.999  0.00  0.00     0.083 H 
ATOM     69  C34 non d ame     -34.062   9.531  30.271  0.00  0.00    -0.075 A 
ATOM     70  H52 non d ame     -35.510   7.951  30.044  0.00  0.00     0.083 H 
ATOM     71  H53 non d ame     -33.476   9.223  29.405  0.00  0.00     0.084 H 
ENDBRANCH  58  61
ENDBRANCH  57  58
ENDBRANCH  55  57
ENDBRANCH  52  55
ENDBRANCH  49  52
ENDBRANCH  47  49
BRANCH  47  72
ATOM     72  C24 non d ame     -34.198  16.775  26.689  0.00  0.00    -0.039 C 
ATOM     73  H35 non d ame     -34.491  16.332  25.737  0.00  0.00     0.036 H 
ATOM     74  H36 non d ame     -34.874  16.726  27.543  0.00  0.00     0.036 H 
BRANCH  72  75
ATOM     75  C25 non d ame     -33.890  18.323  26.417  0.00  0.00    -0.001 C 
ATOM     76  C26 non d ame     -32.461  18.741  27.114  0.00  0.00    -0.035 C 
ATOM     77  C27 non d ame     -32.653  19.847  27.873  0.00  0.00     0.085 C 
ATOM     78  H38 non d ame     -32.163  17.984  27.838  0.00  0.00     0.036 H 
ATOM     79  H39 non d ame     -31.757  19.075  26.352  0.00  0.00     0.036 H 
ATOM     80  N5  non d ame     -34.145  20.029  28.019  0.00  0.00    -0.049 N 
ATOM     81  H40 non d ame     -32.227  19.608  28.847  0.00  0.00     0.075 H 
ATOM     82  H41 non d ame     -32.250  20.674  27.290  0.00  0.00     0.075 H 
ATOM     83  C28 non d ame     -34.819  19.077  26.903  0.00  0.00     0.193 C 
ATOM     84  H42 non d ame     -34.388  19.675  28.933  0.00  0.00     0.280 HD
ATOM     85  H43 non d ame     -34.339  20.991  27.781  0.00  0.00     0.280 HD
ATOM     86  H44 non d ame     -35.229  19.502  25.987  0.00  0.00     0.129 H 
ATOM     87  H37 non d ame     -34.029  18.593  25.370  0.00  0.00     0.046 H 
BRANCH  83  88
ATOM     88  O6  non d ame     -35.882  18.317  27.481  0.00  0.00    -0.369 OA
ATOM     89  H45 non d ame     -36.387  17.891  26.784  0.00  0.00     0.212 HD
ENDBRANCH  83  88
ENDBRANCH  72  75
ENDBRANCH  47  72
ENDBRANCH  45  47
ENDBRANCH   1  43
BRANCH   1  90
ATOM     90  C16 non d ame     -31.282  14.829  22.731  0.00  0.00    -0.035 C 
ATOM     91  H21 non d ame     -32.083  14.219  22.313  0.00  0.00     0.037 H 
ATOM     92  H22 non d ame     -31.438  15.895  22.895  0.00  0.00     0.037 H 
BRANCH  90  93
ATOM     93  C17 non d ame     -30.075  14.705  21.747  0.00  0.00    -0.059 C 
ATOM     94  H23 non d ame     -29.963  13.652  21.492  0.00  0.00     0.038 H 
BRANCH  93  95
ATOM     95  C18 non d ame     -30.314  15.494  20.419  0.00  0.00    -0.073 C 
ATOM     96  H24 non d ame     -31.218  15.126  19.936  0.00  0.00     0.028 H 
ATOM     97  H25 non d ame     -30.428  16.554  20.642  0.00  0.00     0.028 H 
ATOM     98  H26 non d ame     -29.462  15.352  19.755  0.00  0.00     0.028 H 
ENDBRANCH  93  95
BRANCH  93  99
ATOM     99  C19 non d ame     -28.774  15.152  22.419  0.00  0.00    -0.073 C 
ATOM    100  H27 non d ame     -27.948  15.050  21.716  0.00  0.00     0.028 H 
ATOM    101  H28 non d ame     -28.862  16.194  22.727  0.00  0.00     0.028 H 
ATOM    102  H29 non d ame     -28.586  14.531  23.295  0.00  0.00     0.028 H 
ENDBRANCH  93  99
ENDBRANCH  90  93
ENDBRANCH   1  90
TORSDOF 26
ENDMDL
MODEL 2
REMARK VINA RESULT:      -7.4      3.025      6.809
REMARK  26 active torsions:
REMARK  status: ('A' for Active; 'I' for Inactive)
REMARK    1  A    between atoms: C2_2  and  C3_3 
REMARK    2  A    between atoms: C4_6  and  C5_7 
REMARK       I    between atoms: C5_7  and  N2_9 
REMARK    3  A    between atoms: N2_9  and  C6_10 
REMARK    4  A    between atoms: C6_10  and  C7_11 
REMARK    5  A    between atoms: C6_10  and  C8_13 
REMARK       I    between atoms: C7_11  and  N3_14 
REMARK    6  A    between atoms: N3_14  and  C9_15 
REMARK    7  A    between atoms: C9_15  and  C10_16 
REMARK    8  A    between atoms: C9_15  and  C11_18 
REMARK       I    between atoms: C10_16  and  N4_21 
REMARK    9  A    between atoms: C11_18  and  C12_19 
REMARK   10  A    between atoms: C11_18  and  C13_20 
REMARK   11  A    between atoms: N4_21  and  C14_22 
REMARK   12  A    between atoms: C14_22  and  C15_23 
REMARK   13  A    between atoms: C14_22  and  C16_25 
REMARK       I    between atoms: C15_23  and  N6_40 
REMARK   14  A    between atoms: C16_25  and  C17_26 
REMARK   15  A    between atoms: C17_26  and  C18_27 
REMARK   16  A    between atoms: C17_26  and  C19_28 
REMARK   17  A    between atoms: C20_29  and  C21_30 
REMARK   18  A    between atoms: C20_29  and  C24_33 
REMARK   19  A    between atoms: C20_29  and  N6_40 
REMARK   20  A    between atoms: C21_30  and  C22_31 
REMARK   21  A    between atoms: C22_31  and  C23_32 
REMARK   22  A    between atoms: C23_32  and  O8_43 
REMARK   23  A    between atoms: C24_33  and  C25_34 
REMARK   24  A    between atoms: C28_38  and  O6_39 
REMARK   25  A    between atoms: C29_42  and  O8_43 
REMARK   26  A    between atoms: C29_42  and  C35_49 
ROOT
ATOM      1  C14 non d ame     -35.208  14.358  26.847  0.00  0.00     0.089 C 
ATOM      2  H20 non d ame     -35.306  14.753  27.858  0.00  0.00     0.087 H 
ENDROOT
BRANCH   1   3
ATOM      3  N4  non d ame     -34.321  15.247  26.113  0.00  0.00    -0.346 N 
ATOM      4  C10 non d ame     -33.448  16.231  26.850  0.00  0.00     0.241 C 
ATOM      5  O4  non d ame     -33.480  16.291  28.035  0.00  0.00    -0.271 OA
ATOM      6  H19 non d ame     -34.310  15.182  25.105  0.00  0.00     0.163 HD
BRANCH   4   7
ATOM      7  C9  non d ame     -32.531  17.140  26.075  0.00  0.00     0.092 C 
ATOM      8  H11 non d ame     -31.616  17.298  26.646  0.00  0.00     0.088 H 
BRANCH   7   9
ATOM      9  N3  non d ame     -32.151  16.493  24.816  0.00  0.00    -0.346 N 
ATOM     10  C7  non d ame     -31.172  15.434  24.817  0.00  0.00     0.240 C 
ATOM     11  O3  non d ame     -30.679  15.091  25.822  0.00  0.00    -0.271 OA
ATOM     12  H10 non d ame     -32.566  16.779  23.941  0.00  0.00     0.163 HD
BRANCH  10  13
ATOM     13  C6  non d ame     -30.768  14.751  23.474  0.00  0.00     0.086 C 
ATOM     14  H6  non d ame     -29.709  14.865  23.244  0.00  0.00     0.086 H 
BRANCH  13  15
ATOM     15  N2  non d ame     -31.019  13.323  23.577  0.00  0.00    -0.343 N 
ATOM     16  C5  non d ame     -30.216  12.390  22.784  0.00  0.00     0.273 C 
ATOM     17  O2  non d ame     -29.372  12.798  22.064  0.00  0.00    -0.266 OA
ATOM     18  H5  non d ame     -31.744  12.983  24.193  0.00  0.00     0.163 HD
BRANCH  16  19
ATOM     19  C4  non d ame     -30.470  10.878  22.884  0.00  0.00     0.154 A 
ATOM     20  C1  non d ame     -31.485  10.220  23.648  0.00  0.00    -0.017 A 
ATOM     21  C2  non d ame     -31.291   8.842  23.401  0.00  0.00     0.077 A 
ATOM     22  H1  non d ame     -32.247  10.673  24.284  0.00  0.00     0.091 H 
ATOM     23  O1  non d ame     -30.281   8.733  22.589  0.00  0.00    -0.218 OA
ATOM     24  N1  non d ame     -29.785   9.907  22.273  0.00  0.00    -0.123 NA
BRANCH  21  25
ATOM     25  C3  non d ame     -32.114   7.698  23.979  0.00  0.00    -0.029 C 
ATOM     26  H2  non d ame     -33.165   7.846  23.734  0.00  0.00     0.036 H 
ATOM     27  H3  non d ame     -31.772   6.755  23.554  0.00  0.00     0.036 H 
ATOM     28  H4  non d ame     -31.993   7.674  25.062  0.00  0.00     0.036 H 
ENDBRANCH  21  25
ENDBRANCH  16  19
ENDBRANCH  13  15
BRANCH  13  29
ATOM     29  C8  non d ame     -31.578  15.337  22.346  0.00  0.00    -0.049 C 
ATOM     30  H7  non d ame     -30.954  16.016  21.765  0.00  0.00     0.030 H 
ATOM     31  H8  non d ame     -31.939  14.535  21.702  0.00  0.00     0.030 H 
ATOM     32  H9  non d ame     -32.428  15.885  22.755  0.00  0.00     0.030 H 
ENDBRANCH  13  29
ENDBRANCH  10  13
ENDBRANCH   7   9
BRANCH   7  33
ATOM     33  C11 non d ame     -33.266  18.477  25.766  0.00  0.00    -0.033 C 
ATOM     34  H12 non d ame     -33.062  18.732  24.726  0.00  0.00     0.042 H 
BRANCH  33  35
ATOM     35  C12 non d ame     -34.812  18.325  25.917  0.00  0.00    -0.071 C 
ATOM     36  H13 non d ame     -35.312  18.902  25.139  0.00  0.00     0.028 H 
ATOM     37  H14 non d ame     -35.084  17.274  25.822  0.00  0.00     0.028 H 
ATOM     38  H15 non d ame     -35.119  18.692  26.896  0.00  0.00     0.028 H 
ENDBRANCH  33  35
BRANCH  33  39
ATOM     39  C13 non d ame     -32.721  19.635  26.662  0.00  0.00    -0.071 C 
ATOM     40  H16 non d ame     -31.866  20.102  26.172  0.00  0.00     0.028 H 
ATOM     41  H17 non d ame     -33.505  20.378  26.812  0.00  0.00     0.028 H 
ATOM     42  H18 non d ame     -32.413  19.234  27.627  0.00  0.00     0.028 H 
ENDBRANCH  33  39
ENDBRANCH   7  33
ENDBRANCH   4   7
ENDBRANCH   1   3
BRANCH   1  43
ATOM     43  C15 non d ame     -34.599  12.926  26.831  0.00  0.00     0.240 C 
ATOM     44  O5  non d ame     -33.950  12.570  25.901  0.00  0.00    -0.271 OA
ATOM     45  N6  non d ame     -34.818  12.002  27.980  0.00  0.00    -0.355 N 
ATOM     46  H46 non d ame     -35.363  12.295  28.778  0.00  0.00     0.162 HD
BRANCH  45  47
ATOM     47  C20 non d ame     -34.231  10.645  27.951  0.00  0.00     0.013 C 
ATOM     48  H30 non d ame     -33.736  10.514  26.989  0.00  0.00     0.072 H 
BRANCH  47  49
ATOM     49  C21 non d ame     -35.331   9.621  28.110  0.00  0.00    -0.038 C 
ATOM     50  H31 non d ame     -35.226   9.229  29.122  0.00  0.00     0.036 H 
ATOM     51  H32 non d ame     -36.250  10.129  27.815  0.00  0.00     0.036 H 
BRANCH  49  52
ATOM     52  C22 non d ame     -35.172   8.417  27.156  0.00  0.00     0.018 C 
ATOM     53  H33 non d ame     -36.184   8.081  26.933  0.00  0.00     0.048 H 
ATOM     54  H34 non d ame     -34.522   8.762  26.352  0.00  0.00     0.048 H 
BRANCH  52  55
ATOM     55  C23 non d ame     -34.450   7.200  27.799  0.00  0.00     0.259 C 
ATOM     56  O7  non d ame     -33.263   7.149  27.825  0.00  0.00    -0.265 OA
BRANCH  55  57
ATOM     57  O8  non d ame     -35.224   6.140  28.346  0.00  0.00    -0.317 OA
BRANCH  57  58
ATOM     58  C29 non d ame     -34.975   5.893  29.733  0.00  0.00     0.052 C 
ATOM     59  H47 non d ame     -35.471   4.949  29.958  0.00  0.00     0.082 H 
ATOM     60  H48 non d ame     -33.896   5.985  29.860  0.00  0.00     0.082 H 
BRANCH  58  61
ATOM     61  C35 non d ame     -35.663   7.018  30.551  0.00  0.00    -0.034 A 
ATOM     62  C30 non d ame     -37.038   7.209  30.453  0.00  0.00    -0.075 A 
ATOM     63  C31 non d ame     -37.657   8.219  31.187  0.00  0.00    -0.082 A 
ATOM     64  H49 non d ame     -37.630   6.567  29.800  0.00  0.00     0.084 H 
ATOM     65  C32 non d ame     -36.895   9.043  32.021  0.00  0.00    -0.083 A 
ATOM     66  H50 non d ame     -38.735   8.365  31.109  0.00  0.00     0.083 H 
ATOM     67  C33 non d ame     -35.523   8.851  32.113  0.00  0.00    -0.082 A 
ATOM     68  H51 non d ame     -37.371   9.835  32.599  0.00  0.00     0.083 H 
ATOM     69  C34 non d ame     -34.901   7.841  31.382  0.00  0.00    -0.075 A 
ATOM     70  H52 non d ame     -34.932   9.496  32.762  0.00  0.00     0.083 H 
ATOM     71  H53 non d ame     -33.823   7.695  31.461  0.00  0.00     0.084 H 
ENDBRANCH  58  61
ENDBRANCH  57  58
ENDBRANCH  55  57
ENDBRANCH  52  55
ENDBRANCH  49  52
ENDBRANCH  47  49
BRANCH  47  72
ATOM     72  C24 non d ame     -33.224  10.493  29.090  0.00  0.00    -0.039 C 
ATOM     73  H35 non d ame     -33.786  10.057  29.917  0.00  0.00     0.036 H 
ATOM     74  H36 non d ame     -32.380   9.954  28.661  0.00  0.00     0.036 H 
BRANCH  72  75
ATOM     75  C25 non d ame     -32.675  11.913  29.589  0.00  0.00    -0.001 C 
ATOM     76  C26 non d ame     -31.331  12.324  28.736  0.00  0.00    -0.035 C 
ATOM     77  C27 non d ame     -30.346  12.656  29.606  0.00  0.00     0.085 C 
ATOM     78  H38 non d ame     -30.933  11.450  28.221  0.00  0.00     0.036 H 
ATOM     79  H39 non d ame     -31.506  13.248  28.185  0.00  0.00     0.036 H 
ATOM     80  N5  non d ame     -30.791  12.195  30.972  0.00  0.00    -0.049 N 
ATOM     81  H40 non d ame     -29.478  12.072  29.298  0.00  0.00     0.075 H 
ATOM     82  H41 non d ame     -30.303  13.744  29.595  0.00  0.00     0.075 H 
ATOM     83  C28 non d ame     -32.370  11.881  30.843  0.00  0.00     0.193 C 
ATOM     84  H42 non d ame     -30.305  11.328  31.155  0.00  0.00     0.280 HD
ATOM     85  H43 non d ame     -30.669  12.983  31.593  0.00  0.00     0.280 HD
ATOM     86  H44 non d ame     -33.107  12.577  31.244  0.00  0.00     0.129 H 
ATOM     87  H37 non d ame     -33.466  12.660  29.660  0.00  0.00     0.046 H 
BRANCH  83  88
ATOM     88  O6  non d ame     -32.672  10.619  31.440  0.00  0.00    -0.369 OA
ATOM     89  H45 non d ame     -32.303   9.914  30.902  0.00  0.00     0.212 HD
ENDBRANCH  83  88
ENDBRANCH  72  75
ENDBRANCH  47  72
ENDBRANCH  45  47
ENDBRANCH   1  43
BRANCH   1  90
ATOM     90  C16 non d ame     -36.568  14.342  26.167  0.00  0.00    -0.035 C 
ATOM     91  H21 non d ame     -36.762  13.295  25.934  0.00  0.00     0.037 H 
ATOM     92  H22 non d ame     -37.233  14.883  26.839  0.00  0.00     0.037 H 
BRANCH  90  93
ATOM     93  C17 non d ame     -36.597  15.108  24.806  0.00  0.00    -0.059 C 
ATOM     94  H23 non d ame     -35.611  15.545  24.652  0.00  0.00     0.038 H 
BRANCH  93  95
ATOM     95  C18 non d ame     -36.891  14.158  23.601  0.00  0.00    -0.073 C 
ATOM     96  H24 non d ame     -37.404  13.266  23.958  0.00  0.00     0.028 H 
ATOM     97  H25 non d ame     -37.523  14.674  22.878  0.00  0.00     0.028 H 
ATOM     98  H26 non d ame     -35.953  13.873  23.126  0.00  0.00     0.028 H 
ENDBRANCH  93  95
BRANCH  93  99
ATOM     99  C19 non d ame     -37.603  16.261  24.849  0.00  0.00    -0.073 C 
ATOM    100  H27 non d ame     -37.839  16.499  25.887  0.00  0.00     0.028 H 
ATOM    101  H28 non d ame     -37.174  17.138  24.364  0.00  0.00     0.028 H 
ATOM    102  H29 non d ame     -38.514  15.968  24.327  0.00  0.00     0.028 H 
ENDBRANCH  93  99
ENDBRANCH  90  93
ENDBRANCH   1  90
TORSDOF 26
ENDMDL
MODEL 3
REMARK VINA RESULT:      -7.3      2.938      5.318
REMARK  26 active torsions:
REMARK  status: ('A' for Active; 'I' for Inactive)
REMARK    1  A    between atoms: C2_2  and  C3_3 
REMARK    2  A    between atoms: C4_6  and  C5_7 
REMARK       I    between atoms: C5_7  and  N2_9 
REMARK    3  A    between atoms: N2_9  and  C6_10 
REMARK    4  A    between atoms: C6_10  and  C7_11 
REMARK    5  A    between atoms: C6_10  and  C8_13 
REMARK       I    between atoms: C7_11  and  N3_14 
REMARK    6  A    between atoms: N3_14  and  C9_15 
REMARK    7  A    between atoms: C9_15  and  C10_16 
REMARK    8  A    between atoms: C9_15  and  C11_18 
REMARK       I    between atoms: C10_16  and  N4_21 
REMARK    9  A    between atoms: C11_18  and  C12_19 
REMARK   10  A    between atoms: C11_18  and  C13_20 
REMARK   11  A    between atoms: N4_21  and  C14_22 
REMARK   12  A    between atoms: C14_22  and  C15_23 
REMARK   13  A    between atoms: C14_22  and  C16_25 
REMARK       I    between atoms: C15_23  and  N6_40 
REMARK   14  A    between atoms: C16_25  and  C17_26 
REMARK   15  A    between atoms: C17_26  and  C18_27 
REMARK   16  A    between atoms: C17_26  and  C19_28 
REMARK   17  A    between atoms: C20_29  and  C21_30 
REMARK   18  A    between atoms: C20_29  and  C24_33 
REMARK   19  A    between atoms: C20_29  and  N6_40 
REMARK   20  A    between atoms: C21_30  and  C22_31 
REMARK   21  A    between atoms: C22_31  and  C23_32 
REMARK   22  A    between atoms: C23_32  and  O8_43 
REMARK   23  A    between atoms: C24_33  and  C25_34 
REMARK   24  A    between atoms: C28_38  and  O6_39 
REMARK   25  A    between atoms: C29_42  and  O8_43 
REMARK   26  A    between atoms: C29_42  and  C35_49 
ROOT
ATOM      1  C14 non d ame     -30.823  13.787  24.264  0.00  0.00     0.089 C 
ATOM      2  H20 non d ame     -29.738  13.803  24.157  0.00  0.00     0.087 H 
ENDROOT
BRANCH   1   3
ATOM      3  N4  non d ame     -31.235  12.394  24.346  0.00  0.00    -0.346 N 
ATOM      4  C10 non d ame     -30.642  11.368  23.413  0.00  0.00     0.241 C 
ATOM      5  O4  non d ame     -29.837  11.688  22.603  0.00  0.00    -0.271 OA
ATOM      6  H19 non d ame     -31.923  12.142  25.041  0.00  0.00     0.163 HD
BRANCH   4   7
ATOM      7  C9  non d ame     -31.076   9.929  23.516  0.00  0.00     0.092 C 
ATOM      8  H11 non d ame     -30.650   9.490  24.419  0.00  0.00     0.088 H 
BRANCH   7   9
ATOM      9  N3  non d ame     -32.534   9.867  23.651  0.00  0.00    -0.346 N 
ATOM     10  C7  non d ame     -33.130   9.000  24.637  0.00  0.00     0.240 C 
ATOM     11  O3  non d ame     -32.451   8.344  25.330  0.00  0.00    -0.271 OA
ATOM     12  H10 non d ame     -33.133  10.425  23.059  0.00  0.00     0.163 HD
BRANCH  10  13
ATOM     13  C6  non d ame     -34.683   8.935  24.774  0.00  0.00     0.086 C 
ATOM     14  H6  non d ame     -35.024   9.099  25.796  0.00  0.00     0.086 H 
BRANCH  13  15
ATOM     15  N2  non d ame     -35.272   9.990  23.965  0.00  0.00    -0.343 N 
ATOM     16  C5  non d ame     -36.550  10.581  24.369  0.00  0.00     0.273 C 
ATOM     17  O2  non d ame     -37.098  10.198  25.344  0.00  0.00    -0.266 OA
ATOM     18  H5  non d ame     -34.798  10.309  23.132  0.00  0.00     0.163 HD
BRANCH  16  19
ATOM     19  C4  non d ame     -37.183  11.698  23.525  0.00  0.00     0.154 A 
ATOM     20  C1  non d ame     -37.309  13.080  23.874  0.00  0.00    -0.017 A 
ATOM     21  C2  non d ame     -37.955  13.676  22.768  0.00  0.00     0.077 A 
ATOM     22  H1  non d ame     -36.982  13.574  24.789  0.00  0.00     0.091 H 
ATOM     23  O1  non d ame     -38.169  12.739  21.892  0.00  0.00    -0.218 OA
ATOM     24  N1  non d ame     -37.727  11.575  22.311  0.00  0.00    -0.123 NA
BRANCH  21  25
ATOM     25  C3  non d ame     -38.330  15.146  22.629  0.00  0.00    -0.029 C 
ATOM     26  H2  non d ame     -39.070  15.259  21.837  0.00  0.00     0.036 H 
ATOM     27  H3  non d ame     -38.747  15.505  23.569  0.00  0.00     0.036 H 
ATOM     28  H4  non d ame     -37.441  15.726  22.381  0.00  0.00     0.036 H 
ENDBRANCH  21  25
ENDBRANCH  16  19
ENDBRANCH  13  15
BRANCH  13  29
ATOM     29  C8  non d ame     -35.176   7.590  24.305  0.00  0.00    -0.049 C 
ATOM     30  H7  non d ame     -35.666   7.699  23.338  0.00  0.00     0.030 H 
ATOM     31  H8  non d ame     -34.332   6.907  24.210  0.00  0.00     0.030 H 
ATOM     32  H9  non d ame     -35.887   7.190  25.029  0.00  0.00     0.030 H 
ENDBRANCH  13  29
ENDBRANCH  10  13
ENDBRANCH   7   9
BRANCH   7  33
ATOM     33  C11 non d ame     -30.643   9.164  22.232  0.00  0.00    -0.033 C 
ATOM     34  H12 non d ame     -30.455   9.905  21.455  0.00  0.00     0.042 H 
BRANCH  33  35
ATOM     35  C12 non d ame     -29.315   8.376  22.460  0.00  0.00    -0.071 C 
ATOM     36  H13 non d ame     -28.511   8.849  21.897  0.00  0.00     0.028 H 
ATOM     37  H14 non d ame     -29.068   8.380  23.521  0.00  0.00     0.028 H 
ATOM     38  H15 non d ame     -29.440   7.348  22.120  0.00  0.00     0.028 H 
ENDBRANCH  33  35
BRANCH  33  39
ATOM     39  C13 non d ame     -31.783   8.220  21.732  0.00  0.00    -0.071 C 
ATOM     40  H16 non d ame     -31.713   8.106  20.650  0.00  0.00     0.028 H 
ATOM     41  H17 non d ame     -31.682   7.244  22.208  0.00  0.00     0.028 H 
ATOM     42  H18 non d ame     -32.751   8.650  21.991  0.00  0.00     0.028 H 
ENDBRANCH  33  39
ENDBRANCH   7  33
ENDBRANCH   4   7
ENDBRANCH   1   3
BRANCH   1  43
ATOM     43  C15 non d ame     -31.297  14.521  25.551  0.00  0.00     0.240 C 
ATOM     44  O5  non d ame     -30.556  14.639  26.472  0.00  0.00    -0.271 OA
ATOM     45  N6  non d ame     -32.675  15.085  25.631  0.00  0.00    -0.355 N 
ATOM     46  H46 non d ame     -33.312  14.996  24.853  0.00  0.00     0.162 HD
BRANCH  45  47
ATOM     47  C20 non d ame     -33.111  15.782  26.861  0.00  0.00     0.013 C 
ATOM     48  H30 non d ame     -32.261  15.824  27.542  0.00  0.00     0.072 H 
BRANCH  47  49
ATOM     49  C21 non d ame     -34.244  15.009  27.498  0.00  0.00    -0.038 C 
ATOM     50  H31 non d ame     -33.777  14.346  28.225  0.00  0.00     0.036 H 
ATOM     51  H32 non d ame     -34.963  15.760  27.827  0.00  0.00     0.036 H 
BRANCH  49  52
ATOM     52  C22 non d ame     -34.989  14.102  26.494  0.00  0.00     0.018 C 
ATOM     53  H33 non d ame     -36.021  14.065  26.840  0.00  0.00     0.048 H 
ATOM     54  H34 non d ame     -34.759  14.503  25.507  0.00  0.00     0.048 H 
BRANCH  52  55
ATOM     55  C23 non d ame     -34.487  12.631  26.487  0.00  0.00     0.259 C 
ATOM     56  O7  non d ame     -33.839  12.220  25.580  0.00  0.00    -0.265 OA
BRANCH  55  57
ATOM     57  O8  non d ame     -34.821  11.776  27.574  0.00  0.00    -0.317 OA
BRANCH  57  58
ATOM     58  C29 non d ame     -33.840  10.771  27.846  0.00  0.00     0.052 C 
ATOM     59  H47 non d ame     -34.376   9.963  28.343  0.00  0.00     0.082 H 
ATOM     60  H48 non d ame     -33.334  10.588  26.899  0.00  0.00     0.082 H 
BRANCH  58  61
ATOM     61  C35 non d ame     -32.811  11.365  28.845  0.00  0.00    -0.034 A 
ATOM     62  C30 non d ame     -31.657  11.982  28.373  0.00  0.00    -0.075 A 
ATOM     63  C31 non d ame     -30.733  12.515  29.270  0.00  0.00    -0.082 A 
ATOM     64  H49 non d ame     -31.477  12.048  27.300  0.00  0.00     0.084 H 
ATOM     65  C32 non d ame     -30.965  12.427  30.646  0.00  0.00    -0.083 A 
ATOM     66  H50 non d ame     -29.831  13.000  28.897  0.00  0.00     0.083 H 
ATOM     67  C33 non d ame     -32.116  11.807  31.112  0.00  0.00    -0.082 A 
ATOM     68  H51 non d ame     -30.248  12.842  31.354  0.00  0.00     0.083 H 
ATOM     69  C34 non d ame     -33.044  11.275  30.219  0.00  0.00    -0.075 A 
ATOM     70  H52 non d ame     -32.293  11.738  32.186  0.00  0.00     0.083 H 
ATOM     71  H53 non d ame     -33.946  10.790  30.594  0.00  0.00     0.084 H 
ENDBRANCH  58  61
ENDBRANCH  57  58
ENDBRANCH  55  57
ENDBRANCH  52  55
ENDBRANCH  49  52
ENDBRANCH  47  49
BRANCH  47  72
ATOM     72  C24 non d ame     -33.585  17.192  26.516  0.00  0.00    -0.039 C 
ATOM     73  H35 non d ame     -32.781  17.631  25.924  0.00  0.00     0.036 H 
ATOM     74  H36 non d ame     -34.576  17.066  26.080  0.00  0.00     0.036 H 
BRANCH  72  75
ATOM     75  C25 non d ame     -33.756  18.097  27.827  0.00  0.00    -0.001 C 
ATOM     76  C26 non d ame     -35.330  18.542  27.998  0.00  0.00    -0.035 C 
ATOM     77  C27 non d ame     -35.387  19.885  28.166  0.00  0.00     0.085 C 
ATOM     78  H38 non d ame     -35.868  18.379  27.064  0.00  0.00     0.036 H 
ATOM     79  H39 non d ame     -35.730  18.151  28.933  0.00  0.00     0.036 H 
ATOM     80  N5  non d ame     -34.030  20.434  27.799  0.00  0.00    -0.049 N 
ATOM     81  H40 non d ame     -36.122  20.238  27.441  0.00  0.00     0.075 H 
ATOM     82  H41 non d ame     -35.556  20.038  29.231  0.00  0.00     0.075 H 
ATOM     83  C28 non d ame     -33.034  19.165  27.755  0.00  0.00     0.193 C 
ATOM     84  H42 non d ame     -34.116  20.808  26.864  0.00  0.00     0.280 HD
ATOM     85  H43 non d ame     -33.751  21.037  28.560  0.00  0.00     0.280 HD
ATOM     86  H44 non d ame     -32.332  18.984  28.569  0.00  0.00     0.129 H 
ATOM     87  H37 non d ame     -33.267  17.659  28.697  0.00  0.00     0.046 H 
BRANCH  83  88
ATOM     88  O6  non d ame     -32.241  19.201  26.567  0.00  0.00    -0.369 OA
ATOM     89  H45 non d ame     -32.375  20.039  26.118  0.00  0.00     0.212 HD
ENDBRANCH  83  88
ENDBRANCH  72  75
ENDBRANCH  47  72
ENDBRANCH  45  47
ENDBRANCH   1  43
BRANCH   1  90
ATOM     90  C16 non d ame     -31.469  14.425  23.044  0.00  0.00    -0.035 C 
ATOM     91  H21 non d ame     -31.706  13.596  22.377  0.00  0.00     0.037 H 
ATOM     92  H22 non d ame     -32.268  15.054  23.436  0.00  0.00     0.037 H 
BRANCH  90  93
ATOM     93  C17 non d ame     -30.512  15.370  22.250  0.00  0.00    -0.059 C 
ATOM     94  H23 non d ame     -30.806  16.396  22.467  0.00  0.00     0.038 H 
BRANCH  93  95
ATOM     95  C18 non d ame     -29.021  15.199  22.684  0.00  0.00    -0.073 C 
ATOM     96  H24 non d ame     -28.368  15.573  21.896  0.00  0.00     0.028 H 
ATOM     97  H25 non d ame     -28.842  15.762  23.600  0.00  0.00     0.028 H 
ATOM     98  H26 non d ame     -28.812  14.144  22.860  0.00  0.00     0.028 H 
ENDBRANCH  93  95
BRANCH  93  99
ATOM     99  C19 non d ame     -30.666  15.162  20.741  0.00  0.00    -0.073 C 
ATOM    100  H27 non d ame     -30.077  14.299  20.430  0.00  0.00     0.028 H 
ATOM    101  H28 non d ame     -31.716  14.989  20.503  0.00  0.00     0.028 H 
ATOM    102  H29 non d ame     -30.317  16.050  20.214  0.00  0.00     0.028 H 
ENDBRANCH  93  99
ENDBRANCH  90  93
ENDBRANCH   1  90
TORSDOF 26
ENDMDL
MODEL 4
REMARK VINA RESULT:      -7.2      2.880      5.593
REMARK  26 active torsions:
REMARK  status: ('A' for Active; 'I' for Inactive)
REMARK    1  A    between atoms: C2_2  and  C3_3 
REMARK    2  A    between atoms: C4_6  and  C5_7 
REMARK       I    between atoms: C5_7  and  N2_9 
REMARK    3  A    between atoms: N2_9  and  C6_10 
REMARK    4  A    between atoms: C6_10  and  C7_11 
REMARK    5  A    between atoms: C6_10  and  C8_13 
REMARK       I    between atoms: C7_11  and  N3_14 
REMARK    6  A    between atoms: N3_14  and  C9_15 
REMARK    7  A    between atoms: C9_15  and  C10_16 
REMARK    8  A    between atoms: C9_15  and  C11_18 
REMARK       I    between atoms: C10_16  and  N4_21 
REMARK    9  A    between atoms: C11_18  and  C12_19 
REMARK   10  A    between atoms: C11_18  and  C13_20 
REMARK   11  A    between atoms: N4_21  and  C14_22 
REMARK   12  A    between atoms: C14_22  and  C15_23 
REMARK   13  A    between atoms: C14_22  and  C16_25 
REMARK       I    between atoms: C15_23  and  N6_40 
REMARK   14  A    between atoms: C16_25  and  C17_26 
REMARK   15  A    between atoms: C17_26  and  C18_27 
REMARK   16  A    between atoms: C17_26  and  C19_28 
REMARK   17  A    between atoms: C20_29  and  C21_30 
REMARK   18  A    between atoms: C20_29  and  C24_33 
REMARK   19  A    between atoms: C20_29  and  N6_40 
REMARK   20  A    between atoms: C21_30  and  C22_31 
REMARK   21  A    between atoms: C22_31  and  C23_32 
REMARK   22  A    between atoms: C23_32  and  O8_43 
REMARK   23  A    between atoms: C24_33  and  C25_34 
REMARK   24  A    between atoms: C28_38  and  O6_39 
REMARK   25  A    between atoms: C29_42  and  O8_43 
REMARK   26  A    between atoms: C29_42  and  C35_49 
ROOT
ATOM      1  C14 non d ame     -30.916  13.967  23.962  0.00  0.00     0.089 C 
ATOM      2  H20 non d ame     -29.833  14.082  24.008  0.00  0.00     0.087 H 
ENDROOT
BRANCH   1   3
ATOM      3  N4  non d ame     -31.214  12.552  24.133  0.00  0.00    -0.346 N 
ATOM      4  C10 non d ame     -30.526  11.520  23.276  0.00  0.00     0.241 C 
ATOM      5  O4  non d ame     -29.738  11.852  22.453  0.00  0.00    -0.271 OA
ATOM      6  H19 non d ame     -31.890  12.291  24.837  0.00  0.00     0.163 HD
BRANCH   4   7
ATOM      7  C9  non d ame     -30.842  10.060  23.471  0.00  0.00     0.092 C 
ATOM      8  H11 non d ame     -30.382   9.714  24.396  0.00  0.00     0.088 H 
BRANCH   7   9
ATOM      9  N3  non d ame     -32.291   9.889  23.616  0.00  0.00    -0.346 N 
ATOM     10  C7  non d ame     -32.811   8.901  24.528  0.00  0.00     0.240 C 
ATOM     11  O3  non d ame     -32.079   8.234  25.153  0.00  0.00    -0.271 OA
ATOM     12  H10 non d ame     -32.935  10.455  23.083  0.00  0.00     0.163 HD
BRANCH  10  13
ATOM     13  C6  non d ame     -34.354   8.721  24.676  0.00  0.00     0.086 C 
ATOM     14  H6  non d ame     -34.672   7.686  24.548  0.00  0.00     0.086 H 
BRANCH  13  15
ATOM     15  N2  non d ame     -34.748   9.113  26.019  0.00  0.00    -0.343 N 
ATOM     16  C5  non d ame     -35.075   8.080  27.005  0.00  0.00     0.273 C 
ATOM     17  O2  non d ame     -35.020   6.938  26.708  0.00  0.00    -0.266 OA
ATOM     18  H5  non d ame     -34.794  10.092  26.264  0.00  0.00     0.163 HD
BRANCH  16  19
ATOM     19  C4  non d ame     -35.491   8.480  28.430  0.00  0.00     0.154 A 
ATOM     20  C1  non d ame     -36.619   9.275  28.810  0.00  0.00    -0.017 A 
ATOM     21  C2  non d ame     -36.554   9.348  30.219  0.00  0.00     0.077 A 
ATOM     22  H1  non d ame     -37.369   9.730  28.162  0.00  0.00     0.091 H 
ATOM     23  O1  non d ame     -35.509   8.669  30.594  0.00  0.00    -0.218 OA
ATOM     24  N1  non d ame     -34.873   8.154  29.568  0.00  0.00    -0.123 NA
BRANCH  21  25
ATOM     25  C3  non d ame     -37.528  10.083  31.130  0.00  0.00    -0.029 C 
ATOM     26  H2  non d ame     -38.301   9.393  31.468  0.00  0.00     0.036 H 
ATOM     27  H3  non d ame     -36.992  10.478  31.992  0.00  0.00     0.036 H 
ATOM     28  H4  non d ame     -37.990  10.904  30.581  0.00  0.00     0.036 H 
ENDBRANCH  21  25
ENDBRANCH  16  19
ENDBRANCH  13  15
BRANCH  13  29
ATOM     29  C8  non d ame     -35.063   9.578  23.659  0.00  0.00    -0.049 C 
ATOM     30  H7  non d ame     -35.737  10.266  24.170  0.00  0.00     0.030 H 
ATOM     31  H8  non d ame     -34.329  10.146  23.088  0.00  0.00     0.030 H 
ATOM     32  H9  non d ame     -35.636   8.943  22.984  0.00  0.00     0.030 H 
ENDBRANCH  13  29
ENDBRANCH  10  13
ENDBRANCH   7   9
BRANCH   7  33
ATOM     33  C11 non d ame     -30.348   9.254  22.234  0.00  0.00    -0.033 C 
ATOM     34  H12 non d ame     -30.121   9.969  21.444  0.00  0.00     0.042 H 
BRANCH  33  35
ATOM     35  C12 non d ame     -29.035   8.473  22.552  0.00  0.00    -0.071 C 
ATOM     36  H13 non d ame     -28.522   8.951  23.387  0.00  0.00     0.028 H 
ATOM     37  H14 non d ame     -29.278   7.445  22.815  0.00  0.00     0.028 H 
ATOM     38  H15 non d ame     -28.386   8.481  21.676  0.00  0.00     0.028 H 
ENDBRANCH  33  35
BRANCH  33  39
ATOM     39  C13 non d ame     -31.464   8.294  21.710  0.00  0.00    -0.071 C 
ATOM     40  H16 non d ame     -32.095   7.981  22.543  0.00  0.00     0.028 H 
ATOM     41  H17 non d ame     -32.073   8.814  20.969  0.00  0.00     0.028 H 
ATOM     42  H18 non d ame     -31.005   7.418  21.252  0.00  0.00     0.028 H 
ENDBRANCH  33  39
ENDBRANCH   7  33
ENDBRANCH   4   7
ENDBRANCH   1   3
BRANCH   1  43
ATOM     43  C15 non d ame     -31.641  14.765  25.084  0.00  0.00     0.240 C 
ATOM     44  O5  non d ame     -31.015  15.207  25.993  0.00  0.00    -0.271 OA
ATOM     45  N6  non d ame     -33.114  14.985  25.021  0.00  0.00    -0.355 N 
ATOM     46  H46 non d ame     -33.655  14.619  24.251  0.00  0.00     0.162 HD
BRANCH  45  47
ATOM     47  C20 non d ame     -33.787  15.747  26.094  0.00  0.00     0.013 C 
ATOM     48  H30 non d ame     -33.087  15.849  26.924  0.00  0.00     0.072 H 
BRANCH  47  49
ATOM     49  C21 non d ame     -35.018  14.993  26.546  0.00  0.00    -0.038 C 
ATOM     50  H31 non d ame     -34.838  14.735  27.590  0.00  0.00     0.036 H 
ATOM     51  H32 non d ame     -35.864  15.626  26.278  0.00  0.00     0.036 H 
BRANCH  49  52
ATOM     52  C22 non d ame     -35.213  13.660  25.793  0.00  0.00     0.018 C 
ATOM     53  H33 non d ame     -36.259  13.390  25.936  0.00  0.00     0.048 H 
ATOM     54  H34 non d ame     -34.826  13.829  24.787  0.00  0.00     0.048 H 
BRANCH  52  55
ATOM     55  C23 non d ame     -34.384  12.483  26.378  0.00  0.00     0.259 C 
ATOM     56  O7  non d ame     -33.544  11.954  25.725  0.00  0.00    -0.265 OA
BRANCH  55  57
ATOM     57  O8  non d ame     -34.649  12.034  27.702  0.00  0.00    -0.317 OA
BRANCH  57  58
ATOM     58  C29 non d ame     -33.516  11.459  28.359  0.00  0.00     0.052 C 
ATOM     59  H47 non d ame     -33.899  11.026  29.283  0.00  0.00     0.082 H 
ATOM     60  H48 non d ame     -33.036  10.822  27.617  0.00  0.00     0.082 H 
BRANCH  58  61
ATOM     61  C35 non d ame     -32.539  12.608  28.724  0.00  0.00    -0.034 A 
ATOM     62  C30 non d ame     -31.168  12.436  28.559  0.00  0.00    -0.075 A 
ATOM     63  C31 non d ame     -30.290  13.468  28.887  0.00  0.00    -0.082 A 
ATOM     64  H49 non d ame     -30.781  11.492  28.175  0.00  0.00     0.084 H 
ATOM     65  C32 non d ame     -30.788  14.676  29.383  0.00  0.00    -0.083 A 
ATOM     66  H50 non d ame     -29.217  13.330  28.756  0.00  0.00     0.083 H 
ATOM     67  C33 non d ame     -32.156  14.842  29.548  0.00  0.00    -0.082 A 
ATOM     68  H51 non d ame     -30.108  15.489  29.641  0.00  0.00     0.083 H 
ATOM     69  C34 non d ame     -33.037  13.814  29.220  0.00  0.00    -0.075 A 
ATOM     70  H52 non d ame     -32.541  15.785  29.938  0.00  0.00     0.083 H 
ATOM     71  H53 non d ame     -34.111  13.953  29.352  0.00  0.00     0.084 H 
ENDBRANCH  58  61
ENDBRANCH  57  58
ENDBRANCH  55  57
ENDBRANCH  52  55
ENDBRANCH  49  52
ENDBRANCH  47  49
BRANCH  47  72
ATOM     72  C24 non d ame     -34.195  17.124  25.573  0.00  0.00    -0.039 C 
ATOM     73  H35 non d ame     -34.205  17.031  24.487  0.00  0.00     0.036 H 
ATOM     74  H36 non d ame     -35.112  17.376  26.106  0.00  0.00     0.036 H 
BRANCH  72  75
ATOM     75  C25 non d ame     -33.110  18.243  25.943  0.00  0.00    -0.001 C 
ATOM     76  C26 non d ame     -32.634  18.067  27.507  0.00  0.00    -0.035 C 
ATOM     77  C27 non d ame     -32.748  19.261  28.135  0.00  0.00     0.085 C 
ATOM     78  H38 non d ame     -33.338  17.429  28.042  0.00  0.00     0.036 H 
ATOM     79  H39 non d ame     -31.566  17.857  27.552  0.00  0.00     0.036 H 
ATOM     80  N5  non d ame     -33.565  20.157  27.235  0.00  0.00    -0.049 N 
ATOM     81  H40 non d ame     -33.314  19.059  29.044  0.00  0.00     0.075 H 
ATOM     82  H41 non d ame     -31.734  19.654  28.201  0.00  0.00     0.075 H 
ATOM     83  C28 non d ame     -33.594  19.431  25.794  0.00  0.00     0.193 C 
ATOM     84  H42 non d ame     -34.502  20.163  27.611  0.00  0.00     0.280 HD
ATOM     85  H43 non d ame     -33.050  21.022  27.150  0.00  0.00     0.280 HD
ATOM     86  H44 non d ame     -32.972  19.797  24.976  0.00  0.00     0.129 H 
ATOM     87  H37 non d ame     -32.324  18.320  25.191  0.00  0.00     0.046 H 
BRANCH  83  88
ATOM     88  O6  non d ame     -34.927  19.409  25.279  0.00  0.00    -0.369 OA
ATOM     89  H45 non d ame     -35.411  20.168  25.612  0.00  0.00     0.212 HD
ENDBRANCH  83  88
ENDBRANCH  72  75
ENDBRANCH  47  72
ENDBRANCH  45  47
ENDBRANCH   1  43
BRANCH   1  90
ATOM     90  C16 non d ame     -31.425  14.420  22.603  0.00  0.00    -0.035 C 
ATOM     91  H21 non d ame     -31.431  13.523  21.983  0.00  0.00     0.037 H 
ATOM     92  H22 non d ame     -32.356  14.950  22.805  0.00  0.00     0.037 H 
BRANCH  90  93
ATOM     93  C17 non d ame     -30.482  15.441  21.890  0.00  0.00    -0.059 C 
ATOM     94  H23 non d ame     -30.806  16.443  22.171  0.00  0.00     0.038 H 
BRANCH  93  95
ATOM     95  C18 non d ame     -28.993  15.278  22.335  0.00  0.00    -0.073 C 
ATOM     96  H24 non d ame     -28.463  16.218  22.180  0.00  0.00     0.028 H 
ATOM     97  H25 non d ame     -28.957  15.011  23.390  0.00  0.00     0.028 H 
ATOM     98  H26 non d ame     -28.521  14.494  21.744  0.00  0.00     0.028 H 
ENDBRANCH  93  95
BRANCH  93  99
ATOM     99  C19 non d ame     -30.610  15.333  20.368  0.00  0.00    -0.073 C 
ATOM    100  H27 non d ame     -31.202  14.452  20.114  0.00  0.00     0.028 H 
ATOM    101  H28 non d ame     -31.103  16.225  19.980  0.00  0.00     0.028 H 
ATOM    102  H29 non d ame     -29.619  15.244  19.925  0.00  0.00     0.028 H 
ENDBRANCH  93  99
ENDBRANCH  90  93
ENDBRANCH   1  90
TORSDOF 26
ENDMDL
MODEL 5
REMARK VINA RESULT:      -7.1      3.372      6.128
REMARK  26 active torsions:
REMARK  status: ('A' for Active; 'I' for Inactive)
REMARK    1  A    between atoms: C2_2  and  C3_3 
REMARK    2  A    between atoms: C4_6  and  C5_7 
REMARK       I    between atoms: C5_7  and  N2_9 
REMARK    3  A    between atoms: N2_9  and  C6_10 
REMARK    4  A    between atoms: C6_10  and  C7_11 
REMARK    5  A    between atoms: C6_10  and  C8_13 
REMARK       I    between atoms: C7_11  and  N3_14 
REMARK    6  A    between atoms: N3_14  and  C9_15 
REMARK    7  A    between atoms: C9_15  and  C10_16 
REMARK    8  A    between atoms: C9_15  and  C11_18 
REMARK       I    between atoms: C10_16  and  N4_21 
REMARK    9  A    between atoms: C11_18  and  C12_19 
REMARK   10  A    between atoms: C11_18  and  C13_20 
REMARK   11  A    between atoms: N4_21  and  C14_22 
REMARK   12  A    between atoms: C14_22  and  C15_23 
REMARK   13  A    between atoms: C14_22  and  C16_25 
REMARK       I    between atoms: C15_23  and  N6_40 
REMARK   14  A    between atoms: C16_25  and  C17_26 
REMARK   15  A    between atoms: C17_26  and  C18_27 
REMARK   16  A    between atoms: C17_26  and  C19_28 
REMARK   17  A    between atoms: C20_29  and  C21_30 
REMARK   18  A    between atoms: C20_29  and  C24_33 
REMARK   19  A    between atoms: C20_29  and  N6_40 
REMARK   20  A    between atoms: C21_30  and  C22_31 
REMARK   21  A    between atoms: C22_31  and  C23_32 
REMARK   22  A    between atoms: C23_32  and  O8_43 
REMARK   23  A    between atoms: C24_33  and  C25_34 
REMARK   24  A    between atoms: C28_38  and  O6_39 
REMARK   25  A    between atoms: C29_42  and  O8_43 
REMARK   26  A    between atoms: C29_42  and  C35_49 
ROOT
ATOM      1  C14 non d ame     -30.886  14.440  24.571  0.00  0.00     0.089 C 
ATOM      2  H20 non d ame     -29.946  14.239  25.085  0.00  0.00     0.087 H 
ENDROOT
BRANCH   1   3
ATOM      3  N4  non d ame     -31.452  13.160  24.175  0.00  0.00    -0.346 N 
ATOM      4  C10 non d ame     -31.370  11.971  25.099  0.00  0.00     0.241 C 
ATOM      5  O4  non d ame     -30.839  12.069  26.157  0.00  0.00    -0.271 OA
ATOM      6  H19 non d ame     -31.897  13.097  23.270  0.00  0.00     0.163 HD
BRANCH   4   7
ATOM      7  C9  non d ame     -31.966  10.655  24.675  0.00  0.00     0.092 C 
ATOM      8  H11 non d ame     -31.739   9.900  25.427  0.00  0.00     0.088 H 
BRANCH   7   9
ATOM      9  N3  non d ame     -33.426  10.778  24.611  0.00  0.00    -0.346 N 
ATOM     10  C7  non d ame     -34.216  10.602  25.804  0.00  0.00     0.240 C 
ATOM     11  O3  non d ame     -33.695  10.360  26.824  0.00  0.00    -0.271 OA
ATOM     12  H10 non d ame     -33.890  10.984  23.738  0.00  0.00     0.163 HD
BRANCH  10  13
ATOM     13  C6  non d ame     -35.770  10.731  25.729  0.00  0.00     0.086 C 
ATOM     14  H6  non d ame     -36.248  10.639  26.704  0.00  0.00     0.086 H 
BRANCH  13  15
ATOM     15  N2  non d ame     -36.109  12.049  25.221  0.00  0.00    -0.343 N 
ATOM     16  C5  non d ame     -36.866  12.975  26.067  0.00  0.00     0.273 C 
ATOM     17  O2  non d ame     -37.198  12.649  27.154  0.00  0.00    -0.266 OA
ATOM     18  H5  non d ame     -35.823  12.319  24.291  0.00  0.00     0.163 HD
BRANCH  16  19
ATOM     19  C4  non d ame     -37.231  14.373  25.544  0.00  0.00     0.154 A 
ATOM     20  C1  non d ame     -36.407  15.544  25.558  0.00  0.00    -0.017 A 
ATOM     21  C2  non d ame     -37.201  16.553  24.967  0.00  0.00     0.077 A 
ATOM     22  H1  non d ame     -35.391  15.645  25.938  0.00  0.00     0.091 H 
ATOM     23  O1  non d ame     -38.342  16.014  24.653  0.00  0.00    -0.218 OA
ATOM     24  N1  non d ame     -38.384  14.743  24.980  0.00  0.00    -0.123 NA
BRANCH  21  25
ATOM     25  C3  non d ame     -36.793  18.002  24.740  0.00  0.00    -0.029 C 
ATOM     26  H2  non d ame     -36.059  18.295  25.489  0.00  0.00     0.036 H 
ATOM     27  H3  non d ame     -36.357  18.105  23.746  0.00  0.00     0.036 H 
ATOM     28  H4  non d ame     -37.670  18.644  24.819  0.00  0.00     0.036 H 
ENDBRANCH  21  25
ENDBRANCH  16  19
ENDBRANCH  13  15
BRANCH  13  29
ATOM     29  C8  non d ame     -36.321   9.667  24.815  0.00  0.00    -0.049 C 
ATOM     30  H7  non d ame     -36.994  10.124  24.089  0.00  0.00     0.030 H 
ATOM     31  H8  non d ame     -35.500   9.178  24.291  0.00  0.00     0.030 H 
ATOM     32  H9  non d ame     -36.868   8.929  25.402  0.00  0.00     0.030 H 
ENDBRANCH  13  29
ENDBRANCH  10  13
ENDBRANCH   7   9
BRANCH   7  33
ATOM     33  C11 non d ame     -31.419  10.266  23.270  0.00  0.00    -0.033 C 
ATOM     34  H12 non d ame     -31.620  11.100  22.597  0.00  0.00     0.042 H 
BRANCH  33  35
ATOM     35  C12 non d ame     -29.873  10.052  23.302  0.00  0.00    -0.071 C 
ATOM     36  H13 non d ame     -29.371  11.010  23.171  0.00  0.00     0.028 H 
ATOM     37  H14 non d ame     -29.586   9.618  24.260  0.00  0.00     0.028 H 
ATOM     38  H15 non d ame     -29.584   9.377  22.496  0.00  0.00     0.028 H 
ENDBRANCH  33  35
BRANCH  33  39
ATOM     39  C13 non d ame     -32.155   9.006  22.713  0.00  0.00    -0.071 C 
ATOM     40  H16 non d ame     -31.677   8.687  21.786  0.00  0.00     0.028 H 
ATOM     41  H17 non d ame     -32.102   8.200  23.446  0.00  0.00     0.028 H 
ATOM     42  H18 non d ame     -33.199   9.251  22.518  0.00  0.00     0.028 H 
ENDBRANCH  33  39
ENDBRANCH   7  33
ENDBRANCH   4   7
ENDBRANCH   1   3
BRANCH   1  43
ATOM     43  C15 non d ame     -31.909  15.173  25.486  0.00  0.00     0.240 C 
ATOM     44  O5  non d ame     -32.956  15.520  25.042  0.00  0.00    -0.271 OA
ATOM     45  N6  non d ame     -31.588  15.433  26.918  0.00  0.00    -0.355 N 
ATOM     46  H46 non d ame     -30.704  15.138  27.307  0.00  0.00     0.162 HD
BRANCH  45  47
ATOM     47  C20 non d ame     -32.572  16.129  27.775  0.00  0.00     0.013 C 
ATOM     48  H30 non d ame     -32.047  16.499  28.656  0.00  0.00     0.072 H 
BRANCH  47  49
ATOM     49  C21 non d ame     -33.652  15.156  28.188  0.00  0.00    -0.038 C 
ATOM     50  H31 non d ame     -33.964  15.467  29.185  0.00  0.00     0.036 H 
ATOM     51  H32 non d ame     -34.371  15.149  27.368  0.00  0.00     0.036 H 
BRANCH  49  52
ATOM     52  C22 non d ame     -33.134  13.708  28.325  0.00  0.00     0.018 C 
ATOM     53  H33 non d ame     -34.020  13.087  28.451  0.00  0.00     0.048 H 
ATOM     54  H34 non d ame     -32.474  13.548  27.471  0.00  0.00     0.048 H 
BRANCH  52  55
ATOM     55  C23 non d ame     -32.262  13.471  29.590  0.00  0.00     0.259 C 
ATOM     56  O7  non d ame     -31.231  14.045  29.727  0.00  0.00    -0.265 OA
BRANCH  55  57
ATOM     57  O8  non d ame     -32.705  12.550  30.579  0.00  0.00    -0.317 OA
BRANCH  57  58
ATOM     58  C29 non d ame     -32.778  11.196  30.122  0.00  0.00     0.052 C 
ATOM     59  H47 non d ame     -33.140  11.250  29.096  0.00  0.00     0.082 H 
ATOM     60  H48 non d ame     -31.801  10.761  30.334  0.00  0.00     0.082 H 
BRANCH  58  61
ATOM     61  C35 non d ame     -33.840  10.458  30.980  0.00  0.00    -0.034 A 
ATOM     62  C30 non d ame     -34.403  11.088  32.085  0.00  0.00    -0.075 A 
ATOM     63  C31 non d ame     -35.357  10.425  32.856  0.00  0.00    -0.082 A 
ATOM     64  H49 non d ame     -34.097  12.100  32.348  0.00  0.00     0.084 H 
ATOM     65  C32 non d ame     -35.746   9.125  32.519  0.00  0.00    -0.083 A 
ATOM     66  H50 non d ame     -35.797  10.921  33.721  0.00  0.00     0.083 H 
ATOM     67  C33 non d ame     -35.179   8.500  31.417  0.00  0.00    -0.082 A 
ATOM     68  H51 non d ame     -36.492   8.600  33.116  0.00  0.00     0.083 H 
ATOM     69  C34 non d ame     -34.227   9.160  30.643  0.00  0.00    -0.075 A 
ATOM     70  H52 non d ame     -35.483   7.485  31.158  0.00  0.00     0.083 H 
ATOM     71  H53 non d ame     -33.787   8.662  29.778  0.00  0.00     0.084 H 
ENDBRANCH  58  61
ENDBRANCH  57  58
ENDBRANCH  55  57
ENDBRANCH  52  55
ENDBRANCH  49  52
ENDBRANCH  47  49
BRANCH  47  72
ATOM     72  C24 non d ame     -33.198  17.290  27.004  0.00  0.00    -0.039 C 
ATOM     73  H35 non d ame     -32.413  17.655  26.342  0.00  0.00     0.036 H 
ATOM     74  H36 non d ame     -34.124  16.894  26.586  0.00  0.00     0.036 H 
BRANCH  72  75
ATOM     75  C25 non d ame     -33.598  18.499  27.976  0.00  0.00    -0.001 C 
ATOM     76  C26 non d ame     -35.211  18.800  27.860  0.00  0.00    -0.035 C 
ATOM     77  C27 non d ame     -35.392  20.123  27.627  0.00  0.00     0.085 C 
ATOM     78  H38 non d ame     -35.616  18.327  26.967  0.00  0.00     0.036 H 
ATOM     79  H39 non d ame     -35.691  18.644  28.826  0.00  0.00     0.036 H 
ATOM     80  N5  non d ame     -34.046  20.693  27.249  0.00  0.00    -0.049 N 
ATOM     81  H40 non d ame     -36.057  20.178  26.766  0.00  0.00     0.075 H 
ATOM     82  H41 non d ame     -35.701  20.546  28.582  0.00  0.00     0.075 H 
ATOM     83  C28 non d ame     -32.957  19.577  27.669  0.00  0.00     0.193 C 
ATOM     84  H42 non d ame     -34.045  20.780  26.243  0.00  0.00     0.280 HD
ATOM     85  H43 non d ame     -33.909  21.509  27.827  0.00  0.00     0.280 HD
ATOM     86  H44 non d ame     -32.348  19.707  28.563  0.00  0.00     0.129 H 
ATOM     87  H37 non d ame     -33.188  18.377  28.978  0.00  0.00     0.046 H 
BRANCH  83  88
ATOM     88  O6  non d ame     -32.030  19.367  26.602  0.00  0.00    -0.369 OA
ATOM     89  H45 non d ame     -31.261  18.899  26.934  0.00  0.00     0.212 HD
ENDBRANCH  83  88
ENDBRANCH  72  75
ENDBRANCH  47  72
ENDBRANCH  45  47
ENDBRANCH   1  43
BRANCH   1  90
ATOM     90  C16 non d ame     -30.625  15.274  23.327  0.00  0.00    -0.035 C 
ATOM     91  H21 non d ame     -31.566  15.780  23.115  0.00  0.00     0.037 H 
ATOM     92  H22 non d ame     -29.731  15.857  23.552  0.00  0.00     0.037 H 
BRANCH  90  93
ATOM     93  C17 non d ame     -30.288  14.422  22.062  0.00  0.00    -0.059 C 
ATOM     94  H23 non d ame     -30.918  13.533  22.084  0.00  0.00     0.038 H 
BRANCH  93  95
ATOM     95  C18 non d ame     -30.595  15.190  20.736  0.00  0.00    -0.073 C 
ATOM     96  H24 non d ame     -31.283  16.009  20.941  0.00  0.00     0.028 H 
ATOM     97  H25 non d ame     -29.669  15.589  20.324  0.00  0.00     0.028 H 
ATOM     98  H26 non d ame     -31.047  14.507  20.017  0.00  0.00     0.028 H 
ENDBRANCH  93  95
BRANCH  93  99
ATOM     99  C19 non d ame     -28.832  13.949  22.092  0.00  0.00    -0.073 C 
ATOM    100  H27 non d ame     -28.801  12.862  22.008  0.00  0.00     0.028 H 
ATOM    101  H28 non d ame     -28.288  14.393  21.259  0.00  0.00     0.028 H 
ATOM    102  H29 non d ame     -28.371  14.255  23.031  0.00  0.00     0.028 H 
ENDBRANCH  93  99
ENDBRANCH  90  93
ENDBRANCH   1  90
TORSDOF 26
ENDMDL
MODEL 6
REMARK VINA RESULT:      -7.1      3.516      8.565
REMARK  26 active torsions:
REMARK  status: ('A' for Active; 'I' for Inactive)
REMARK    1  A    between atoms: C2_2  and  C3_3 
REMARK    2  A    between atoms: C4_6  and  C5_7 
REMARK       I    between atoms: C5_7  and  N2_9 
REMARK    3  A    between atoms: N2_9  and  C6_10 
REMARK    4  A    between atoms: C6_10  and  C7_11 
REMARK    5  A    between atoms: C6_10  and  C8_13 
REMARK       I    between atoms: C7_11  and  N3_14 
REMARK    6  A    between atoms: N3_14  and  C9_15 
REMARK    7  A    between atoms: C9_15  and  C10_16 
REMARK    8  A    between atoms: C9_15  and  C11_18 
REMARK       I    between atoms: C10_16  and  N4_21 
REMARK    9  A    between atoms: C11_18  and  C12_19 
REMARK   10  A    between atoms: C11_18  and  C13_20 
REMARK   11  A    between atoms: N4_21  and  C14_22 
REMARK   12  A    between atoms: C14_22  and  C15_23 
REMARK   13  A    between atoms: C14_22  and  C16_25 
REMARK       I    between atoms: C15_23  and  N6_40 
REMARK   14  A    between atoms: C16_25  and  C17_26 
REMARK   15  A    between atoms: C17_26  and  C18_27 
REMARK   16  A    between atoms: C17_26  and  C19_28 
REMARK   17  A    between atoms: C20_29  and  C21_30 
REMARK   18  A    between atoms: C20_29  and  C24_33 
REMARK   19  A    between atoms: C20_29  and  N6_40 
REMARK   20  A    between atoms: C21_30  and  C22_31 
REMARK   21  A    between atoms: C22_31  and  C23_32 
REMARK   22  A    between atoms: C23_32  and  O8_43 
REMARK   23  A    between atoms: C24_33  and  C25_34 
REMARK   24  A    between atoms: C28_38  and  O6_39 
REMARK   25  A    between atoms: C29_42  and  O8_43 
REMARK   26  A    between atoms: C29_42  and  C35_49 
ROOT
ATOM      1  C14 non d ame     -31.779  14.242  27.141  0.00  0.00     0.089 C 
ATOM      2  H20 non d ame     -30.766  14.606  27.316  0.00  0.00     0.087 H 
ENDROOT
BRANCH   1   3
ATOM      3  N4  non d ame     -32.652  15.404  27.057  0.00  0.00    -0.346 N 
ATOM      4  C10 non d ame     -32.303  16.556  26.149  0.00  0.00     0.241 C 
ATOM      5  O4  non d ame     -31.311  16.527  25.497  0.00  0.00    -0.271 OA
ATOM      6  H19 non d ame     -33.490  15.410  27.621  0.00  0.00     0.163 HD
BRANCH   4   7
ATOM      7  C9  non d ame     -33.221  17.747  26.070  0.00  0.00     0.092 C 
ATOM      8  H11 non d ame     -33.451  17.954  25.024  0.00  0.00     0.088 H 
BRANCH   7   9
ATOM      9  N3  non d ame     -34.488  17.433  26.738  0.00  0.00    -0.346 N 
ATOM     10  C7  non d ame     -35.654  17.107  25.955  0.00  0.00     0.240 C 
ATOM     11  O3  non d ame     -35.591  17.094  24.786  0.00  0.00    -0.271 OA
ATOM     12  H10 non d ame     -34.557  17.442  27.745  0.00  0.00     0.163 HD
BRANCH  10  13
ATOM     13  C6  non d ame     -37.000  16.777  26.671  0.00  0.00     0.086 C 
ATOM     14  H6  non d ame     -37.871  17.003  26.057  0.00  0.00     0.086 H 
BRANCH  13  15
ATOM     15  N2  non d ame     -37.048  15.352  26.952  0.00  0.00    -0.343 N 
ATOM     16  C5  non d ame     -37.703  14.451  26.001  0.00  0.00     0.273 C 
ATOM     17  O2  non d ame     -38.191  14.883  25.015  0.00  0.00    -0.266 OA
ATOM     18  H5  non d ame     -36.630  14.991  27.798  0.00  0.00     0.163 HD
BRANCH  16  19
ATOM     19  C4  non d ame     -37.759  12.942  26.284  0.00  0.00     0.154 A 
ATOM     20  C1  non d ame     -36.693  11.997  26.151  0.00  0.00    -0.017 A 
ATOM     21  C2  non d ame     -37.257  10.757  26.529  0.00  0.00     0.077 A 
ATOM     22  H1  non d ame     -35.668  12.181  25.829  0.00  0.00     0.091 H 
ATOM     23  O1  non d ame     -38.500  10.977  26.843  0.00  0.00    -0.218 OA
ATOM     24  N1  non d ame     -38.817  12.244  26.707  0.00  0.00    -0.123 NA
BRANCH  21  25
ATOM     25  C3  non d ame     -36.540   9.414  26.565  0.00  0.00    -0.029 C 
ATOM     26  H2  non d ame     -35.664   9.486  27.209  0.00  0.00     0.036 H 
ATOM     27  H3  non d ame     -37.215   8.653  26.954  0.00  0.00     0.036 H 
ATOM     28  H4  non d ame     -36.228   9.142  25.556  0.00  0.00     0.036 H 
ENDBRANCH  21  25
ENDBRANCH  16  19
ENDBRANCH  13  15
BRANCH  13  29
ATOM     29  C8  non d ame     -37.093  17.560  27.957  0.00  0.00    -0.049 C 
ATOM     30  H7  non d ame     -38.134  17.817  28.150  0.00  0.00     0.030 H 
ATOM     31  H8  non d ame     -36.709  16.956  28.778  0.00  0.00     0.030 H 
ATOM     32  H9  non d ame     -36.503  18.473  27.870  0.00  0.00     0.030 H 
ENDBRANCH  13  29
ENDBRANCH  10  13
ENDBRANCH   7   9
BRANCH   7  33
ATOM     33  C11 non d ame     -32.553  18.964  26.774  0.00  0.00    -0.033 C 
ATOM     34  H12 non d ame     -31.524  19.025  26.420  0.00  0.00     0.042 H 
BRANCH  33  35
ATOM     35  C12 non d ame     -33.262  20.301  26.392  0.00  0.00    -0.071 C 
ATOM     36  H13 non d ame     -32.511  21.051  26.143  0.00  0.00     0.028 H 
ATOM     37  H14 non d ame     -33.910  20.136  25.532  0.00  0.00     0.028 H 
ATOM     38  H15 non d ame     -33.858  20.650  27.235  0.00  0.00     0.028 H 
ENDBRANCH  33  35
BRANCH  33  39
ATOM     39  C13 non d ame     -32.519  18.764  28.324  0.00  0.00    -0.071 C 
ATOM     40  H16 non d ame     -32.697  17.714  28.558  0.00  0.00     0.028 H 
ATOM     41  H17 non d ame     -31.543  19.062  28.707  0.00  0.00     0.028 H 
ATOM     42  H18 non d ame     -33.293  19.376  28.786  0.00  0.00     0.028 H 
ENDBRANCH  33  39
ENDBRANCH   7  33
ENDBRANCH   4   7
ENDBRANCH   1   3
BRANCH   1  43
ATOM     43  C15 non d ame     -31.894  13.439  25.814  0.00  0.00     0.240 C 
ATOM     44  O5  non d ame     -32.919  12.908  25.531  0.00  0.00    -0.271 OA
ATOM     45  N6  non d ame     -30.728  13.339  24.890  0.00  0.00    -0.355 N 
ATOM     46  H46 non d ame     -29.853  13.790  25.117  0.00  0.00     0.162 HD
BRANCH  45  47
ATOM     47  C20 non d ame     -30.853  12.573  23.632  0.00  0.00     0.013 C 
ATOM     48  H30 non d ame     -31.900  12.593  23.330  0.00  0.00     0.072 H 
BRANCH  47  49
ATOM     49  C21 non d ame     -30.411  11.146  23.869  0.00  0.00    -0.038 C 
ATOM     50  H31 non d ame     -29.397  11.214  24.262  0.00  0.00     0.036 H 
ATOM     51  H32 non d ame     -31.199  10.690  24.468  0.00  0.00     0.036 H 
BRANCH  49  52
ATOM     52  C22 non d ame     -30.321  10.322  22.566  0.00  0.00     0.018 C 
ATOM     53  H33 non d ame     -30.635  10.995  21.769  0.00  0.00     0.048 H 
ATOM     54  H34 non d ame     -29.317   9.896  22.556  0.00  0.00     0.048 H 
BRANCH  52  55
ATOM     55  C23 non d ame     -31.299   9.116  22.519  0.00  0.00     0.259 C 
ATOM     56  O7  non d ame     -31.117   8.221  21.758  0.00  0.00    -0.265 OA
BRANCH  55  57
ATOM     57  O8  non d ame     -32.425   9.098  23.388  0.00  0.00    -0.317 OA
BRANCH  57  58
ATOM     58  C29 non d ame     -32.570   7.883  24.129  0.00  0.00     0.052 C 
ATOM     59  H47 non d ame     -33.474   7.410  23.746  0.00  0.00     0.082 H 
ATOM     60  H48 non d ame     -31.611   7.372  24.046  0.00  0.00     0.082 H 
BRANCH  58  61
ATOM     61  C35 non d ame     -32.802   8.255  25.617  0.00  0.00    -0.034 A 
ATOM     62  C30 non d ame     -32.531   9.544  26.064  0.00  0.00    -0.075 A 
ATOM     63  C31 non d ame     -32.739   9.878  27.401  0.00  0.00    -0.082 A 
ATOM     64  H49 non d ame     -32.156  10.293  25.366  0.00  0.00     0.084 H 
ATOM     65  C32 non d ame     -33.218   8.916  28.294  0.00  0.00    -0.083 A 
ATOM     66  H50 non d ame     -32.528  10.890  27.748  0.00  0.00     0.083 H 
ATOM     67  C33 non d ame     -33.483   7.629  27.845  0.00  0.00    -0.082 A 
ATOM     68  H51 non d ame     -33.384   9.169  29.342  0.00  0.00     0.083 H 
ATOM     69  C34 non d ame     -33.279   7.292  26.509  0.00  0.00    -0.075 A 
ATOM     70  H52 non d ame     -33.854   6.880  28.545  0.00  0.00     0.083 H 
ATOM     71  H53 non d ame     -33.490   6.279  26.163  0.00  0.00     0.084 H 
ENDBRANCH  58  61
ENDBRANCH  57  58
ENDBRANCH  55  57
ENDBRANCH  52  55
ENDBRANCH  49  52
ENDBRANCH  47  49
BRANCH  47  72
ATOM     72  C24 non d ame     -29.977  13.205  22.552  0.00  0.00    -0.039 C 
ATOM     73  H35 non d ame     -28.951  13.052  22.885  0.00  0.00     0.036 H 
ATOM     74  H36 non d ame     -30.316  12.770  21.612  0.00  0.00     0.036 H 
BRANCH  72  75
ATOM     75  C25 non d ame     -30.210  14.787  22.452  0.00  0.00    -0.001 C 
ATOM     76  C26 non d ame     -31.057  15.144  21.088  0.00  0.00    -0.035 C 
ATOM     77  C27 non d ame     -30.398  16.111  20.406  0.00  0.00     0.085 C 
ATOM     78  H38 non d ame     -31.040  14.294  20.406  0.00  0.00     0.036 H 
ATOM     79  H39 non d ame     -32.004  15.616  21.349  0.00  0.00     0.036 H 
ATOM     80  N5  non d ame     -29.018  16.215  21.009  0.00  0.00    -0.049 N 
ATOM     81  H40 non d ame     -30.313  15.740  19.385  0.00  0.00     0.075 H 
ATOM     82  H41 non d ame     -30.944  17.032  20.607  0.00  0.00     0.075 H 
ATOM     83  C28 non d ame     -29.087  15.423  22.414  0.00  0.00     0.193 C 
ATOM     84  H42 non d ame     -28.396  15.716  20.389  0.00  0.00     0.280 HD
ATOM     85  H43 non d ame     -28.863  17.195  21.199  0.00  0.00     0.280 HD
ATOM     86  H44 non d ame     -29.137  15.970  23.356  0.00  0.00     0.129 H 
ATOM     87  H37 non d ame     -30.576  15.211  23.388  0.00  0.00     0.046 H 
BRANCH  83  88
ATOM     88  O6  non d ame     -27.966  14.546  22.541  0.00  0.00    -0.369 OA
ATOM     89  H45 non d ame     -27.279  14.977  23.055  0.00  0.00     0.212 HD
ENDBRANCH  83  88
ENDBRANCH  72  75
ENDBRANCH  47  72
ENDBRANCH  45  47
ENDBRANCH   1  43
BRANCH   1  90
ATOM     90  C16 non d ame     -32.223  13.372  28.305  0.00  0.00    -0.035 C 
ATOM     91  H21 non d ame     -33.073  13.890  28.746  0.00  0.00     0.037 H 
ATOM     92  H22 non d ame     -32.350  12.373  27.887  0.00  0.00     0.037 H 
BRANCH  90  93
ATOM     93  C17 non d ame     -31.152  13.244  29.435  0.00  0.00    -0.059 C 
ATOM     94  H23 non d ame     -30.276  12.756  29.007  0.00  0.00     0.038 H 
BRANCH  93  95
ATOM     95  C18 non d ame     -30.702  14.636  29.982  0.00  0.00    -0.073 C 
ATOM     96  H24 non d ame     -30.139  15.164  29.213  0.00  0.00     0.028 H 
ATOM     97  H25 non d ame     -31.581  15.221  30.253  0.00  0.00     0.028 H 
ATOM     98  H26 non d ame     -30.074  14.496  30.861  0.00  0.00     0.028 H 
ENDBRANCH  93  95
BRANCH  93  99
ATOM     99  C19 non d ame     -31.659  12.351  30.571  0.00  0.00    -0.073 C 
ATOM    100  H27 non d ame     -30.816  11.836  31.033  0.00  0.00     0.028 H 
ATOM    101  H28 non d ame     -32.164  12.963  31.318  0.00  0.00     0.028 H 
ATOM    102  H29 non d ame     -32.358  11.617  30.171  0.00  0.00     0.028 H 
ENDBRANCH  93  99
ENDBRANCH  90  93
ENDBRANCH   1  90
TORSDOF 26
ENDMDL
MODEL 7
REMARK VINA RESULT:      -7.0      2.989      8.132
REMARK  26 active torsions:
REMARK  status: ('A' for Active; 'I' for Inactive)
REMARK    1  A    between atoms: C2_2  and  C3_3 
REMARK    2  A    between atoms: C4_6  and  C5_7 
REMARK       I    between atoms: C5_7  and  N2_9 
REMARK    3  A    between atoms: N2_9  and  C6_10 
REMARK    4  A    between atoms: C6_10  and  C7_11 
REMARK    5  A    between atoms: C6_10  and  C8_13 
REMARK       I    between atoms: C7_11  and  N3_14 
REMARK    6  A    between atoms: N3_14  and  C9_15 
REMARK    7  A    between atoms: C9_15  and  C10_16 
REMARK    8  A    between atoms: C9_15  and  C11_18 
REMARK       I    between atoms: C10_16  and  N4_21 
REMARK    9  A    between atoms: C11_18  and  C12_19 
REMARK   10  A    between atoms: C11_18  and  C13_20 
REMARK   11  A    between atoms: N4_21  and  C14_22 
REMARK   12  A    between atoms: C14_22  and  C15_23 
REMARK   13  A    between atoms: C14_22  and  C16_25 
REMARK       I    between atoms: C15_23  and  N6_40 
REMARK   14  A    between atoms: C16_25  and  C17_26 
REMARK   15  A    between atoms: C17_26  and  C18_27 
REMARK   16  A    between atoms: C17_26  and  C19_28 
REMARK   17  A    between atoms: C20_29  and  C21_30 
REMARK   18  A    between atoms: C20_29  and  C24_33 
REMARK   19  A    between atoms: C20_29  and  N6_40 
REMARK   20  A    between atoms: C21_30  and  C22_31 
REMARK   21  A    between atoms: C22_31  and  C23_32 
REMARK   22  A    between atoms: C23_32  and  O8_43 
REMARK   23  A    between atoms: C24_33  and  C25_34 
REMARK   24  A    between atoms: C28_38  and  O6_39 
REMARK   25  A    between atoms: C29_42  and  O8_43 
REMARK   26  A    between atoms: C29_42  and  C35_49 
ROOT
ATOM      1  C14 non d ame     -31.551   9.732  24.200  0.00  0.00     0.089 C 
ATOM      2  H20 non d ame     -31.057   8.822  24.542  0.00  0.00     0.087 H 
ENDROOT
BRANCH   1   3
ATOM      3  N4  non d ame     -32.980   9.460  24.144  0.00  0.00    -0.346 N 
ATOM      4  C10 non d ame     -33.509   8.093  24.497  0.00  0.00     0.241 C 
ATOM      5  O4  non d ame     -32.766   7.227  24.821  0.00  0.00    -0.271 OA
ATOM      6  H19 non d ame     -33.595  10.210  23.864  0.00  0.00     0.163 HD
BRANCH   4   7
ATOM      7  C9  non d ame     -34.991   7.831  24.440  0.00  0.00     0.092 C 
ATOM      8  H11 non d ame     -35.163   6.757  24.367  0.00  0.00     0.088 H 
BRANCH   7   9
ATOM      9  N3  non d ame     -35.617   8.287  25.684  0.00  0.00    -0.346 N 
ATOM     10  C7  non d ame     -36.014   7.328  26.685  0.00  0.00     0.240 C 
ATOM     11  O3  non d ame     -35.837   6.185  26.505  0.00  0.00    -0.271 OA
ATOM     12  H10 non d ame     -35.777   9.270  25.853  0.00  0.00     0.163 HD
BRANCH  10  13
ATOM     13  C6  non d ame     -36.682   7.819  28.007  0.00  0.00     0.086 C 
ATOM     14  H6  non d ame     -36.760   7.033  28.758  0.00  0.00     0.086 H 
BRANCH  13  15
ATOM     15  N2  non d ame     -35.863   8.870  28.587  0.00  0.00    -0.343 N 
ATOM     16  C5  non d ame     -35.056   8.582  29.775  0.00  0.00     0.273 C 
ATOM     17  O2  non d ame     -35.076   7.503  30.258  0.00  0.00    -0.266 OA
ATOM     18  H5  non d ame     -35.854   9.789  28.170  0.00  0.00     0.163 HD
BRANCH  16  19
ATOM     19  C4  non d ame     -34.184   9.682  30.399  0.00  0.00     0.154 A 
ATOM     20  C1  non d ame     -33.074  10.352  29.794  0.00  0.00    -0.017 A 
ATOM     21  C2  non d ame     -32.623  11.265  30.773  0.00  0.00     0.077 A 
ATOM     22  H1  non d ame     -32.659  10.199  28.798  0.00  0.00     0.091 H 
ATOM     23  O1  non d ame     -33.392  11.129  31.814  0.00  0.00    -0.218 OA
ATOM     24  N1  non d ame     -34.310  10.211  31.619  0.00  0.00    -0.123 NA
BRANCH  21  25
ATOM     25  C3  non d ame     -31.453  12.231  30.635  0.00  0.00    -0.029 C 
ATOM     26  H2  non d ame     -31.612  12.872  29.767  0.00  0.00     0.036 H 
ATOM     27  H3  non d ame     -31.382  12.846  31.532  0.00  0.00     0.036 H 
ATOM     28  H4  non d ame     -30.529  11.668  30.506  0.00  0.00     0.036 H 
ENDBRANCH  21  25
ENDBRANCH  16  19
ENDBRANCH  13  15
BRANCH  13  29
ATOM     29  C8  non d ame     -38.063   8.346  27.709  0.00  0.00    -0.049 C 
ATOM     30  H7  non d ame     -38.469   7.829  26.839  0.00  0.00     0.030 H 
ATOM     31  H8  non d ame     -38.710   8.175  28.568  0.00  0.00     0.030 H 
ATOM     32  H9  non d ame     -38.007   9.415  27.502  0.00  0.00     0.030 H 
ENDBRANCH  13  29
ENDBRANCH  10  13
ENDBRANCH   7   9
BRANCH   7  33
ATOM     33  C11 non d ame     -35.608   8.605  23.238  0.00  0.00    -0.033 C 
ATOM     34  H12 non d ame     -35.188   9.611  23.244  0.00  0.00     0.042 H 
BRANCH  33  35
ATOM     35  C12 non d ame     -35.224   7.943  21.878  0.00  0.00    -0.071 C 
ATOM     36  H13 non d ame     -35.187   6.861  21.998  0.00  0.00     0.028 H 
ATOM     37  H14 non d ame     -35.969   8.200  21.125  0.00  0.00     0.028 H 
ATOM     38  H15 non d ame     -34.246   8.307  21.561  0.00  0.00     0.028 H 
ENDBRANCH  33  35
BRANCH  33  39
ATOM     39  C13 non d ame     -37.159   8.729  23.389  0.00  0.00    -0.071 C 
ATOM     40  H16 non d ame     -37.460   9.760  23.205  0.00  0.00     0.028 H 
ATOM     41  H17 non d ame     -37.648   8.072  22.669  0.00  0.00     0.028 H 
ATOM     42  H18 non d ame     -37.450   8.439  24.399  0.00  0.00     0.028 H 
ENDBRANCH  33  39
ENDBRANCH   7  33
ENDBRANCH   4   7
ENDBRANCH   1   3
BRANCH   1  43
ATOM     43  C15 non d ame     -31.312  10.929  25.164  0.00  0.00     0.240 C 
ATOM     44  O5  non d ame     -31.039  10.725  26.303  0.00  0.00    -0.271 OA
ATOM     45  N6  non d ame     -31.414  12.330  24.666  0.00  0.00    -0.355 N 
ATOM     46  H46 non d ame     -31.640  12.516  23.699  0.00  0.00     0.162 HD
BRANCH  45  47
ATOM     47  C20 non d ame     -31.182  13.457  25.595  0.00  0.00     0.013 C 
ATOM     48  H30 non d ame     -30.455  13.133  26.340  0.00  0.00     0.072 H 
BRANCH  47  49
ATOM     49  C21 non d ame     -32.484  13.825  26.269  0.00  0.00    -0.038 C 
ATOM     50  H31 non d ame     -32.941  14.583  25.633  0.00  0.00     0.036 H 
ATOM     51  H32 non d ame     -32.999  12.881  26.449  0.00  0.00     0.036 H 
BRANCH  49  52
ATOM     52  C22 non d ame     -32.279  14.480  27.652  0.00  0.00     0.018 C 
ATOM     53  H33 non d ame     -32.872  13.890  28.349  0.00  0.00     0.048 H 
ATOM     54  H34 non d ame     -31.200  14.559  27.784  0.00  0.00     0.048 H 
BRANCH  52  55
ATOM     55  C23 non d ame     -32.828  15.931  27.745  0.00  0.00     0.259 C 
ATOM     56  O7  non d ame     -33.159  16.385  28.792  0.00  0.00    -0.265 OA
BRANCH  55  57
ATOM     57  O8  non d ame     -32.945  16.709  26.560  0.00  0.00    -0.317 OA
BRANCH  57  58
ATOM     58  C29 non d ame     -32.689  18.104  26.752  0.00  0.00     0.052 C 
ATOM     59  H47 non d ame     -32.421  18.213  27.803  0.00  0.00     0.082 H 
ATOM     60  H48 non d ame     -31.976  18.382  25.976  0.00  0.00     0.082 H 
BRANCH  58  61
ATOM     61  C35 non d ame     -34.013  18.873  26.500  0.00  0.00    -0.034 A 
ATOM     62  C30 non d ame     -34.902  18.428  25.527  0.00  0.00    -0.075 A 
ATOM     63  C31 non d ame     -36.092  19.119  25.301  0.00  0.00    -0.082 A 
ATOM     64  H49 non d ame     -34.668  17.539  24.942  0.00  0.00     0.084 H 
ATOM     65  C32 non d ame     -36.389  20.261  26.050  0.00  0.00    -0.083 A 
ATOM     66  H50 non d ame     -36.788  18.767  24.538  0.00  0.00     0.083 H 
ATOM     67  C33 non d ame     -35.497  20.702  27.017  0.00  0.00    -0.082 A 
ATOM     68  H51 non d ame     -37.317  20.806  25.880  0.00  0.00     0.083 H 
ATOM     69  C34 non d ame     -34.308  20.014  27.248  0.00  0.00    -0.075 A 
ATOM     70  H52 non d ame     -35.731  21.595  27.599  0.00  0.00     0.083 H 
ATOM     71  H53 non d ame     -33.613  20.366  28.011  0.00  0.00     0.084 H 
ENDBRANCH  58  61
ENDBRANCH  57  58
ENDBRANCH  55  57
ENDBRANCH  52  55
ENDBRANCH  49  52
ENDBRANCH  47  49
BRANCH  47  72
ATOM     72  C24 non d ame     -30.649  14.662  24.823  0.00  0.00    -0.039 C 
ATOM     73  H35 non d ame     -31.285  15.498  25.115  0.00  0.00     0.036 H 
ATOM     74  H36 non d ame     -29.580  14.691  25.032  0.00  0.00     0.036 H 
BRANCH  72  75
ATOM     75  C25 non d ame     -30.815  14.473  23.241  0.00  0.00    -0.001 C 
ATOM     76  C26 non d ame     -29.350  14.596  22.505  0.00  0.00    -0.035 C 
ATOM     77  C27 non d ame     -29.443  15.492  21.494  0.00  0.00     0.085 C 
ATOM     78  H38 non d ame     -28.628  15.050  23.183  0.00  0.00     0.036 H 
ATOM     79  H39 non d ame     -29.107  13.663  21.996  0.00  0.00     0.036 H 
ATOM     80  N5  non d ame     -30.745  16.233  21.679  0.00  0.00    -0.049 N 
ATOM     81  H40 non d ame     -28.615  16.186  21.642  0.00  0.00     0.075 H 
ATOM     82  H41 non d ame     -29.499  14.898  20.582  0.00  0.00     0.075 H 
ATOM     83  C28 non d ame     -31.600  15.369  22.742  0.00  0.00     0.193 C 
ATOM     84  H42 non d ame     -30.512  17.121  22.099  0.00  0.00     0.280 HD
ATOM     85  H43 non d ame     -31.219  16.205  20.787  0.00  0.00     0.280 HD
ATOM     86  H44 non d ame     -32.429  14.744  22.410  0.00  0.00     0.129 H 
ATOM     87  H37 non d ame     -31.424  13.604  22.990  0.00  0.00     0.046 H 
BRANCH  83  88
ATOM     88  O6  non d ame     -32.146  16.226  23.747  0.00  0.00    -0.369 OA
ATOM     89  H45 non d ame     -32.960  15.844  24.085  0.00  0.00     0.212 HD
ENDBRANCH  83  88
ENDBRANCH  72  75
ENDBRANCH  47  72
ENDBRANCH  45  47
ENDBRANCH   1  43
BRANCH   1  90
ATOM     90  C16 non d ame     -31.060  10.092  22.807  0.00  0.00    -0.035 C 
ATOM     91  H21 non d ame     -31.956  10.343  22.241  0.00  0.00     0.037 H 
ATOM     92  H22 non d ame     -30.283  10.842  22.959  0.00  0.00     0.037 H 
BRANCH  90  93
ATOM     93  C17 non d ame     -30.383   8.902  22.054  0.00  0.00    -0.059 C 
ATOM     94  H23 non d ame     -29.895   9.306  21.167  0.00  0.00     0.038 H 
BRANCH  93  95
ATOM     95  C18 non d ame     -29.289   8.202  22.922  0.00  0.00    -0.073 C 
ATOM     96  H24 non d ame     -28.306   8.398  22.495  0.00  0.00     0.028 H 
ATOM     97  H25 non d ame     -29.326   8.592  23.939  0.00  0.00     0.028 H 
ATOM     98  H26 non d ame     -29.471   7.128  22.938  0.00  0.00     0.028 H 
ENDBRANCH  93  95
BRANCH  93  99
ATOM     99  C19 non d ame     -31.429   7.891  21.577  0.00  0.00    -0.073 C 
ATOM    100  H27 non d ame     -32.356   8.038  22.131  0.00  0.00     0.028 H 
ATOM    101  H28 non d ame     -31.616   8.036  20.513  0.00  0.00     0.028 H 
ATOM    102  H29 non d ame     -31.061   6.880  21.746  0.00  0.00     0.028 H 
ENDBRANCH  93  99
ENDBRANCH  90  93
ENDBRANCH   1  90
TORSDOF 26
ENDMDL
MODEL 8
REMARK VINA RESULT:      -7.0      4.169     10.546
REMARK  26 active torsions:
REMARK  status: ('A' for Active; 'I' for Inactive)
REMARK    1  A    between atoms: C2_2  and  C3_3 
REMARK    2  A    between atoms: C4_6  and  C5_7 
REMARK       I    between atoms: C5_7  and  N2_9 
REMARK    3  A    between atoms: N2_9  and  C6_10 
REMARK    4  A    between atoms: C6_10  and  C7_11 
REMARK    5  A    between atoms: C6_10  and  C8_13 
REMARK       I    between atoms: C7_11  and  N3_14 
REMARK    6  A    between atoms: N3_14  and  C9_15 
REMARK    7  A    between atoms: C9_15  and  C10_16 
REMARK    8  A    between atoms: C9_15  and  C11_18 
REMARK       I    between atoms: C10_16  and  N4_21 
REMARK    9  A    between atoms: C11_18  and  C12_19 
REMARK   10  A    between atoms: C11_18  and  C13_20 
REMARK   11  A    between atoms: N4_21  and  C14_22 
REMARK   12  A    between atoms: C14_22  and  C15_23 
REMARK   13  A    between atoms: C14_22  and  C16_25 
REMARK       I    between atoms: C15_23  and  N6_40 
REMARK   14  A    between atoms: C16_25  and  C17_26 
REMARK   15  A    between atoms: C17_26  and  C18_27 
REMARK   16  A    between atoms: C17_26  and  C19_28 
REMARK   17  A    between atoms: C20_29  and  C21_30 
REMARK   18  A    between atoms: C20_29  and  C24_33 
REMARK   19  A    between atoms: C20_29  and  N6_40 
REMARK   20  A    between atoms: C21_30  and  C22_31 
REMARK   21  A    between atoms: C22_31  and  C23_32 
REMARK   22  A    between atoms: C23_32  and  O8_43 
REMARK   23  A    between atoms: C24_33  and  C25_34 
REMARK   24  A    between atoms: C28_38  and  O6_39 
REMARK   25  A    between atoms: C29_42  and  O8_43 
REMARK   26  A    between atoms: C29_42  and  C35_49 
ROOT
ATOM      1  C14 non d ame     -38.183   8.916  28.955  0.00  0.00     0.089 C 
ATOM      2  H20 non d ame     -38.539   9.579  29.744  0.00  0.00     0.087 H 
ENDROOT
BRANCH   1   3
ATOM      3  N4  non d ame     -38.149   9.683  27.719  0.00  0.00    -0.346 N 
ATOM      4  C10 non d ame     -38.341  11.179  27.746  0.00  0.00     0.241 C 
ATOM      5  O4  non d ame     -38.523  11.742  28.774  0.00  0.00    -0.271 OA
ATOM      6  H19 non d ame     -37.996   9.184  26.854  0.00  0.00     0.163 HD
BRANCH   4   7
ATOM      7  C9  non d ame     -38.298  11.958  26.458  0.00  0.00     0.092 C 
ATOM      8  H11 non d ame     -39.106  12.690  26.454  0.00  0.00     0.088 H 
BRANCH   7   9
ATOM      9  N3  non d ame     -37.038  12.703  26.379  0.00  0.00    -0.346 N 
ATOM     10  C7  non d ame     -37.036  14.135  26.548  0.00  0.00     0.240 C 
ATOM     11  O3  non d ame     -38.039  14.704  26.747  0.00  0.00    -0.271 OA
ATOM     12  H10 non d ame     -36.164  12.226  26.206  0.00  0.00     0.163 HD
BRANCH  10  13
ATOM     13  C6  non d ame     -35.692  14.923  26.459  0.00  0.00     0.086 C 
ATOM     14  H6  non d ame     -35.702  15.841  27.048  0.00  0.00     0.086 H 
BRANCH  13  15
ATOM     15  N2  non d ame     -34.625  14.096  26.997  0.00  0.00    -0.343 N 
ATOM     16  C5  non d ame     -33.554  14.719  27.779  0.00  0.00     0.273 C 
ATOM     17  O2  non d ame     -33.559  15.886  27.967  0.00  0.00    -0.266 OA
ATOM     18  H5  non d ame     -34.627  13.100  26.829  0.00  0.00     0.163 HD
BRANCH  16  19
ATOM     19  C4  non d ame     -32.420  13.856  28.354  0.00  0.00     0.154 A 
ATOM     20  C1  non d ame     -32.347  13.286  29.664  0.00  0.00    -0.017 A 
ATOM     21  C2  non d ame     -31.117  12.592  29.691  0.00  0.00     0.077 A 
ATOM     22  H1  non d ame     -33.075  13.363  30.472  0.00  0.00     0.091 H 
ATOM     23  O1  non d ame     -30.558  12.750  28.527  0.00  0.00    -0.218 OA
ATOM     24  N1  non d ame     -31.298  13.485  27.730  0.00  0.00    -0.123 NA
BRANCH  21  25
ATOM     25  C3  non d ame     -30.552  11.803  30.865  0.00  0.00    -0.029 C 
ATOM     26  H2  non d ame     -29.530  12.126  31.062  0.00  0.00     0.036 H 
ATOM     27  H3  non d ame     -31.165  11.978  31.748  0.00  0.00     0.036 H 
ATOM     28  H4  non d ame     -30.556  10.740  30.624  0.00  0.00     0.036 H 
ENDBRANCH  21  25
ENDBRANCH  16  19
ENDBRANCH  13  15
BRANCH  13  29
ATOM     29  C8  non d ame     -35.403  15.270  25.021  0.00  0.00    -0.049 C 
ATOM     30  H7  non d ame     -34.523  15.912  24.972  0.00  0.00     0.030 H 
ATOM     31  H8  non d ame     -35.218  14.356  24.458  0.00  0.00     0.030 H 
ATOM     32  H9  non d ame     -36.259  15.793  24.594  0.00  0.00     0.030 H 
ENDBRANCH  13  29
ENDBRANCH  10  13
ENDBRANCH   7   9
BRANCH   7  33
ATOM     33  C11 non d ame     -38.392  10.975  25.254  0.00  0.00    -0.033 C 
ATOM     34  H12 non d ame     -38.263   9.965  25.643  0.00  0.00     0.042 H 
BRANCH  33  35
ATOM     35  C12 non d ame     -39.797  11.040  24.576  0.00  0.00    -0.071 C 
ATOM     36  H13 non d ame     -39.697  10.826  23.512  0.00  0.00     0.028 H 
ATOM     37  H14 non d ame     -40.455  10.303  25.035  0.00  0.00     0.028 H 
ATOM     38  H15 non d ame     -40.218  12.037  24.708  0.00  0.00     0.028 H 
ENDBRANCH  33  35
BRANCH  33  39
ATOM     39  C13 non d ame     -37.252  11.245  24.221  0.00  0.00    -0.071 C 
ATOM     40  H16 non d ame     -37.220  12.309  23.984  0.00  0.00     0.028 H 
ATOM     41  H17 non d ame     -36.296  10.938  24.646  0.00  0.00     0.028 H 
ATOM     42  H18 non d ame     -37.443  10.676  23.311  0.00  0.00     0.028 H 
ENDBRANCH  33  39
ENDBRANCH   7  33
ENDBRANCH   4   7
ENDBRANCH   1   3
BRANCH   1  43
ATOM     43  C15 non d ame     -36.752   8.377  29.242  0.00  0.00     0.240 C 
ATOM     44  O5  non d ame     -36.515   7.854  30.283  0.00  0.00    -0.271 OA
ATOM     45  N6  non d ame     -35.679   8.505  28.216  0.00  0.00    -0.355 N 
ATOM     46  H46 non d ame     -35.869   8.943  27.326  0.00  0.00     0.162 HD
BRANCH  45  47
ATOM     47  C20 non d ame     -34.324   7.986  28.503  0.00  0.00     0.013 C 
ATOM     48  H30 non d ame     -34.407   7.263  29.314  0.00  0.00     0.072 H 
BRANCH  47  49
ATOM     49  C21 non d ame     -33.429   9.131  28.922  0.00  0.00    -0.038 C 
ATOM     50  H31 non d ame     -34.080   9.844  29.428  0.00  0.00     0.036 H 
ATOM     51  H32 non d ame     -32.598   8.673  29.460  0.00  0.00     0.036 H 
BRANCH  49  52
ATOM     52  C22 non d ame     -32.812   9.879  27.720  0.00  0.00     0.018 C 
ATOM     53  H33 non d ame     -32.021  10.503  28.136  0.00  0.00     0.048 H 
ATOM     54  H34 non d ame     -32.571   9.110  26.986  0.00  0.00     0.048 H 
BRANCH  52  55
ATOM     55  C23 non d ame     -33.798  10.851  27.015  0.00  0.00     0.259 C 
ATOM     56  O7  non d ame     -34.728  11.299  27.603  0.00  0.00    -0.265 OA
BRANCH  55  57
ATOM     57  O8  non d ame     -33.584  11.191  25.650  0.00  0.00    -0.317 OA
BRANCH  57  58
ATOM     58  C29 non d ame     -33.790  10.106  24.740  0.00  0.00     0.052 C 
ATOM     59  H47 non d ame     -33.941   9.224  25.363  0.00  0.00     0.082 H 
ATOM     60  H48 non d ame     -34.576  10.436  24.062  0.00  0.00     0.082 H 
BRANCH  58  61
ATOM     61  C35 non d ame     -32.485   9.913  23.922  0.00  0.00    -0.034 A 
ATOM     62  C30 non d ame     -32.361   8.833  23.054  0.00  0.00    -0.075 A 
ATOM     63  C31 non d ame     -31.189   8.659  22.320  0.00  0.00    -0.082 A 
ATOM     64  H49 non d ame     -33.181   8.123  22.950  0.00  0.00     0.084 H 
ATOM     65  C32 non d ame     -30.137   9.569  22.457  0.00  0.00    -0.083 A 
ATOM     66  H50 non d ame     -31.095   7.812  21.639  0.00  0.00     0.083 H 
ATOM     67  C33 non d ame     -30.265  10.643  23.327  0.00  0.00    -0.082 A 
ATOM     68  H51 non d ame     -29.218   9.441  21.886  0.00  0.00     0.083 H 
ATOM     69  C34 non d ame     -31.435  10.822  24.062  0.00  0.00    -0.075 A 
ATOM     70  H52 non d ame     -29.442  11.351  23.434  0.00  0.00     0.083 H 
ATOM     71  H53 non d ame     -31.528  11.669  24.742  0.00  0.00     0.084 H 
ENDBRANCH  58  61
ENDBRANCH  57  58
ENDBRANCH  55  57
ENDBRANCH  52  55
ENDBRANCH  49  52
ENDBRANCH  47  49
BRANCH  47  72
ATOM     72  C24 non d ame     -33.750   7.320  27.254  0.00  0.00    -0.039 C 
ATOM     73  H35 non d ame     -34.485   7.496  26.468  0.00  0.00     0.036 H 
ATOM     74  H36 non d ame     -32.739   7.715  27.153  0.00  0.00     0.036 H 
BRANCH  72  75
ATOM     75  C25 non d ame     -33.621   5.734  27.435  0.00  0.00    -0.001 C 
ATOM     76  C26 non d ame     -34.235   5.284  28.893  0.00  0.00    -0.035 C 
ATOM     77  C27 non d ame     -33.320   4.521  29.535  0.00  0.00     0.085 C 
ATOM     78  H38 non d ame     -34.340   6.155  29.539  0.00  0.00     0.036 H 
ATOM     79  H39 non d ame     -35.078   4.606  28.751  0.00  0.00     0.036 H 
ATOM     80  N5  non d ame     -32.014   4.679  28.794  0.00  0.00    -0.049 N 
ATOM     81  H40 non d ame     -33.220   4.959  30.528  0.00  0.00     0.075 H 
ATOM     82  H41 non d ame     -33.668   3.494  29.426  0.00  0.00     0.075 H 
ATOM     83  C28 non d ame     -32.388   5.355  27.376  0.00  0.00     0.193 C 
ATOM     84  H42 non d ame     -31.460   5.334  29.326  0.00  0.00     0.280 HD
ATOM     85  H43 non d ame     -31.668   3.745  28.624  0.00  0.00     0.280 HD
ATOM     86  H44 non d ame     -32.408   4.756  26.465  0.00  0.00     0.129 H 
ATOM     87  H37 non d ame     -33.973   5.188  26.559  0.00  0.00     0.046 H 
BRANCH  83  88
ATOM     88  O6  non d ame     -31.503   6.442  27.100  0.00  0.00    -0.369 OA
ATOM     89  H45 non d ame     -31.811   6.917  26.325  0.00  0.00     0.212 HD
ENDBRANCH  83  88
ENDBRANCH  72  75
ENDBRANCH  47  72
ENDBRANCH  45  47
ENDBRANCH   1  43
BRANCH   1  90
ATOM     90  C16 non d ame     -39.144   7.750  28.790  0.00  0.00    -0.035 C 
ATOM     91  H21 non d ame     -38.993   7.123  29.668  0.00  0.00     0.037 H 
ATOM     92  H22 non d ame     -40.119   8.203  28.606  0.00  0.00     0.037 H 
BRANCH  90  93
ATOM     93  C17 non d ame     -38.834   6.853  27.550  0.00  0.00    -0.059 C 
ATOM     94  H23 non d ame     -38.031   7.330  26.989  0.00  0.00     0.038 H 
BRANCH  93  95
ATOM     95  C18 non d ame     -38.344   5.427  27.962  0.00  0.00    -0.073 C 
ATOM     96  H24 non d ame     -38.093   5.421  29.022  0.00  0.00     0.028 H 
ATOM     97  H25 non d ame     -39.135   4.702  27.772  0.00  0.00     0.028 H 
ATOM     98  H26 non d ame     -37.462   5.163  27.378  0.00  0.00     0.028 H 
ENDBRANCH  93  95
BRANCH  93  99
ATOM     99  C19 non d ame     -40.048   6.764  26.621  0.00  0.00    -0.073 C 
ATOM    100  H27 non d ame     -39.722   6.461  25.626  0.00  0.00     0.028 H 
ATOM    101  H28 non d ame     -40.752   6.030  27.012  0.00  0.00     0.028 H 
ATOM    102  H29 non d ame     -40.533   7.738  26.564  0.00  0.00     0.028 H 
ENDBRANCH  93  99
ENDBRANCH  90  93
ENDBRANCH   1  90
TORSDOF 26
ENDMDL
MODEL 9
REMARK VINA RESULT:      -6.9      4.175      8.518
REMARK  26 active torsions:
REMARK  status: ('A' for Active; 'I' for Inactive)
REMARK    1  A    between atoms: C2_2  and  C3_3 
REMARK    2  A    between atoms: C4_6  and  C5_7 
REMARK       I    between atoms: C5_7  and  N2_9 
REMARK    3  A    between atoms: N2_9  and  C6_10 
REMARK    4  A    between atoms: C6_10  and  C7_11 
REMARK    5  A    between atoms: C6_10  and  C8_13 
REMARK       I    between atoms: C7_11  and  N3_14 
REMARK    6  A    between atoms: N3_14  and  C9_15 
REMARK    7  A    between atoms: C9_15  and  C10_16 
REMARK    8  A    between atoms: C9_15  and  C11_18 
REMARK       I    between atoms: C10_16  and  N4_21 
REMARK    9  A    between atoms: C11_18  and  C12_19 
REMARK   10  A    between atoms: C11_18  and  C13_20 
REMARK   11  A    between atoms: N4_21  and  C14_22 
REMARK   12  A    between atoms: C14_22  and  C15_23 
REMARK   13  A    between atoms: C14_22  and  C16_25 
REMARK       I    between atoms: C15_23  and  N6_40 
REMARK   14  A    between atoms: C16_25  and  C17_26 
REMARK   15  A    between atoms: C17_26  and  C18_27 
REMARK   16  A    between atoms: C17_26  and  C19_28 
REMARK   17  A    between atoms: C20_29  and  C21_30 
REMARK   18  A    between atoms: C20_29  and  C24_33 
REMARK   19  A    between atoms: C20_29  and  N6_40 
REMARK   20  A    between atoms: C21_30  and  C22_31 
REMARK   21  A    between atoms: C22_31  and  C23_32 
REMARK   22  A    between atoms: C23_32  and  O8_43 
REMARK   23  A    between atoms: C24_33  and  C25_34 
REMARK   24  A    between atoms: C28_38  and  O6_39 
REMARK   25  A    between atoms: C29_42  and  O8_43 
REMARK   26  A    between atoms: C29_42  and  C35_49 
ROOT
ATOM      1  C14 non d ame     -32.349  14.705  27.272  0.00  0.00     0.089 C 
ATOM      2  H20 non d ame     -31.349  15.111  27.428  0.00  0.00     0.087 H 
ENDROOT
BRANCH   1   3
ATOM      3  N4  non d ame     -33.262  15.831  27.137  0.00  0.00    -0.346 N 
ATOM      4  C10 non d ame     -32.876  17.028  26.305  0.00  0.00     0.241 C 
ATOM      5  O4  non d ame     -31.824  17.065  25.757  0.00  0.00    -0.271 OA
ATOM      6  H19 non d ame     -34.151  15.782  27.613  0.00  0.00     0.163 HD
BRANCH   4   7
ATOM      7  C9  non d ame     -33.835  18.182  26.171  0.00  0.00     0.092 C 
ATOM      8  H11 non d ame     -33.679  18.668  25.208  0.00  0.00     0.088 H 
BRANCH   7   9
ATOM      9  N3  non d ame     -35.212  17.678  26.185  0.00  0.00    -0.346 N 
ATOM     10  C7  non d ame     -36.221  18.317  25.377  0.00  0.00     0.240 C 
ATOM     11  O3  non d ame     -35.943  19.239  24.712  0.00  0.00    -0.271 OA
ATOM     12  H10 non d ame     -35.466  16.884  26.755  0.00  0.00     0.163 HD
BRANCH  10  13
ATOM     13  C6  non d ame     -37.685  17.778  25.398  0.00  0.00     0.086 C 
ATOM     14  H6  non d ame     -38.350  18.336  24.739  0.00  0.00     0.086 H 
BRANCH  13  15
ATOM     15  N2  non d ame     -37.688  16.404  24.923  0.00  0.00    -0.343 N 
ATOM     16  C5  non d ame     -37.964  16.129  23.512  0.00  0.00     0.273 C 
ATOM     17  O2  non d ame     -38.186  17.019  22.767  0.00  0.00    -0.266 OA
ATOM     18  H5  non d ame     -37.500  15.649  25.568  0.00  0.00     0.163 HD
BRANCH  16  19
ATOM     19  C4  non d ame     -37.969  14.681  22.996  0.00  0.00     0.154 A 
ATOM     20  C1  non d ame     -38.253  13.497  23.747  0.00  0.00    -0.017 A 
ATOM     21  C2  non d ame     -38.125  12.439  22.820  0.00  0.00     0.077 A 
ATOM     22  H1  non d ame     -38.511  13.417  24.803  0.00  0.00     0.091 H 
ATOM     23  O1  non d ame     -37.807  12.965  21.673  0.00  0.00    -0.218 OA
ATOM     24  N1  non d ame     -37.710  14.272  21.751  0.00  0.00    -0.123 NA
BRANCH  21  25
ATOM     25  C3  non d ame     -38.325  10.957  23.109  0.00  0.00    -0.029 C 
ATOM     26  H2  non d ame     -39.090  10.836  23.875  0.00  0.00     0.036 H 
ATOM     27  H3  non d ame     -38.640  10.448  22.198  0.00  0.00     0.036 H 
ATOM     28  H4  non d ame     -37.388  10.526  23.460  0.00  0.00     0.036 H 
ENDBRANCH  21  25
ENDBRANCH  16  19
ENDBRANCH  13  15
BRANCH  13  29
ATOM     29  C8  non d ame     -38.227  17.840  26.803  0.00  0.00    -0.049 C 
ATOM     30  H7  non d ame     -39.237  18.249  26.786  0.00  0.00     0.030 H 
ATOM     31  H8  non d ame     -38.248  16.837  27.229  0.00  0.00     0.030 H 
ATOM     32  H9  non d ame     -37.586  18.479  27.412  0.00  0.00     0.030 H 
ENDBRANCH  13  29
ENDBRANCH  10  13
ENDBRANCH   7   9
BRANCH   7  33
ATOM     33  C11 non d ame     -33.634  19.164  27.362  0.00  0.00    -0.033 C 
ATOM     34  H12 non d ame     -32.902  18.719  28.036  0.00  0.00     0.042 H 
BRANCH  33  35
ATOM     35  C12 non d ame     -33.057  20.532  26.880  0.00  0.00    -0.071 C 
ATOM     36  H13 non d ame     -33.182  20.619  25.801  0.00  0.00     0.028 H 
ATOM     37  H14 non d ame     -33.589  21.345  27.374  0.00  0.00     0.028 H 
ATOM     38  H15 non d ame     -31.997  20.587  27.128  0.00  0.00     0.028 H 
ENDBRANCH  33  35
BRANCH  33  39
ATOM     39  C13 non d ame     -34.965  19.360  28.157  0.00  0.00    -0.071 C 
ATOM     40  H16 non d ame     -35.726  18.685  27.763  0.00  0.00     0.028 H 
ATOM     41  H17 non d ame     -34.794  19.140  29.211  0.00  0.00     0.028 H 
ATOM     42  H18 non d ame     -35.303  20.391  28.052  0.00  0.00     0.028 H 
ENDBRANCH  33  39
ENDBRANCH   7  33
ENDBRANCH   4   7
ENDBRANCH   1   3
BRANCH   1  43
ATOM     43  C15 non d ame     -32.437  13.839  25.983  0.00  0.00     0.240 C 
ATOM     44  O5  non d ame     -33.494  13.632  25.481  0.00  0.00    -0.271 OA
ATOM     45  N6  non d ame     -31.201  13.274  25.370  0.00  0.00    -0.355 N 
ATOM     46  H46 non d ame     -30.297  13.447  25.784  0.00  0.00     0.162 HD
BRANCH  45  47
ATOM     47  C20 non d ame     -31.301  12.453  24.144  0.00  0.00     0.013 C 
ATOM     48  H30 non d ame     -32.326  12.520  23.777  0.00  0.00     0.072 H 
BRANCH  47  49
ATOM     49  C21 non d ame     -30.965  11.016  24.475  0.00  0.00    -0.038 C 
ATOM     50  H31 non d ame     -30.747  10.537  23.521  0.00  0.00     0.036 H 
ATOM     51  H32 non d ame     -30.198  11.065  25.249  0.00  0.00     0.036 H 
BRANCH  49  52
ATOM     52  C22 non d ame     -32.156  10.248  25.088  0.00  0.00     0.018 C 
ATOM     53  H33 non d ame     -33.043  10.827  24.834  0.00  0.00     0.048 H 
ATOM     54  H34 non d ame     -32.057   9.221  24.736  0.00  0.00     0.048 H 
BRANCH  52  55
ATOM     55  C23 non d ame     -32.122  10.174  26.639  0.00  0.00     0.259 C 
ATOM     56  O7  non d ame     -31.448  10.927  27.264  0.00  0.00    -0.265 OA
BRANCH  55  57
ATOM     57  O8  non d ame     -32.898   9.186  27.307  0.00  0.00    -0.317 OA
BRANCH  57  58
ATOM     58  C29 non d ame     -33.225   8.056  26.494  0.00  0.00     0.052 C 
ATOM     59  H47 non d ame     -34.195   8.282  26.052  0.00  0.00     0.082 H 
ATOM     60  H48 non d ame     -32.359   7.892  25.854  0.00  0.00     0.082 H 
BRANCH  58  61
ATOM     61  C35 non d ame     -33.385   6.826  27.427  0.00  0.00    -0.034 A 
ATOM     62  C30 non d ame     -34.426   6.782  28.349  0.00  0.00    -0.075 A 
ATOM     63  C31 non d ame     -34.569   5.677  29.188  0.00  0.00    -0.082 A 
ATOM     64  H49 non d ame     -35.128   7.613  28.416  0.00  0.00     0.084 H 
ATOM     65  C32 non d ame     -33.666   4.614  29.102  0.00  0.00    -0.083 A 
ATOM     66  H50 non d ame     -35.387   5.645  29.908  0.00  0.00     0.083 H 
ATOM     67  C33 non d ame     -32.627   4.664  28.182  0.00  0.00    -0.082 A 
ATOM     68  H51 non d ame     -33.771   3.746  29.753  0.00  0.00     0.083 H 
ATOM     69  C34 non d ame     -32.481   5.765  27.341  0.00  0.00    -0.075 A 
ATOM     70  H52 non d ame     -31.923   3.834  28.120  0.00  0.00     0.083 H 
ATOM     71  H53 non d ame     -31.663   5.797  26.621  0.00  0.00     0.084 H 
ENDBRANCH  58  61
ENDBRANCH  57  58
ENDBRANCH  55  57
ENDBRANCH  52  55
ENDBRANCH  49  52
ENDBRANCH  47  49
BRANCH  47  72
ATOM     72  C24 non d ame     -30.326  12.975  23.091  0.00  0.00    -0.039 C 
ATOM     73  H35 non d ame     -29.366  12.518  23.332  0.00  0.00     0.036 H 
ATOM     74  H36 non d ame     -30.800  12.773  22.130  0.00  0.00     0.036 H 
BRANCH  72  75
ATOM     75  C25 non d ame     -30.133  14.562  23.198  0.00  0.00    -0.001 C 
ATOM     76  C26 non d ame     -31.433  15.330  22.546  0.00  0.00    -0.035 C 
ATOM     77  C27 non d ame     -30.994  16.247  21.651  0.00  0.00     0.085 C 
ATOM     78  H38 non d ame     -32.009  14.635  21.936  0.00  0.00     0.036 H 
ATOM     79  H39 non d ame     -31.931  15.932  23.305  0.00  0.00     0.036 H 
ATOM     80  N5  non d ame     -29.536  15.951  21.393  0.00  0.00    -0.049 N 
ATOM     81  H40 non d ame     -31.562  16.060  20.740  0.00  0.00     0.075 H 
ATOM     82  H41 non d ame     -31.076  17.209  22.156  0.00  0.00     0.075 H 
ATOM     83  C28 non d ame     -29.072  14.947  22.570  0.00  0.00     0.193 C 
ATOM     84  H42 non d ame     -29.496  15.456  20.514  0.00  0.00     0.280 HD
ATOM     85  H43 non d ame     -29.043  16.826  21.503  0.00  0.00     0.280 HD
ATOM     86  H44 non d ame     -28.470  15.311  23.402  0.00  0.00     0.129 H 
ATOM     87  H37 non d ame     -29.822  14.874  24.195  0.00  0.00     0.046 H 
BRANCH  83  88
ATOM     88  O6  non d ame     -28.342  13.849  22.021  0.00  0.00    -0.369 OA
ATOM     89  H45 non d ame     -27.486  13.786  22.452  0.00  0.00     0.212 HD
ENDBRANCH  83  88
ENDBRANCH  72  75
ENDBRANCH  47  72
ENDBRANCH  45  47
ENDBRANCH   1  43
BRANCH   1  90
ATOM     90  C16 non d ame     -32.762  13.874  28.476  0.00  0.00    -0.035 C 
ATOM     91  H21 non d ame     -33.605  14.405  28.918  0.00  0.00     0.037 H 
ATOM     92  H22 non d ame     -32.894  12.861  28.096  0.00  0.00     0.037 H 
BRANCH  90  93
ATOM     93  C17 non d ame     -31.665  13.790  29.585  0.00  0.00    -0.059 C 
ATOM     94  H23 non d ame     -31.779  14.661  30.230  0.00  0.00     0.038 H 
BRANCH  93  95
ATOM     95  C18 non d ame     -31.822  12.514  30.473  0.00  0.00    -0.073 C 
ATOM     96  H24 non d ame     -31.291  11.682  30.012  0.00  0.00     0.028 H 
ATOM     97  H25 non d ame     -31.405  12.706  31.462  0.00  0.00     0.028 H 
ATOM     98  H26 non d ame     -32.878  12.265  30.567  0.00  0.00     0.028 H 
ENDBRANCH  93  95
BRANCH  93  99
ATOM     99  C19 non d ame     -30.263  13.859  28.973  0.00  0.00    -0.073 C 
ATOM    100  H27 non d ame     -30.025  12.905  28.502  0.00  0.00     0.028 H 
ATOM    101  H28 non d ame     -30.231  14.651  28.225  0.00  0.00     0.028 H 
ATOM    102  H29 non d ame     -29.535  14.070  29.756  0.00  0.00     0.028 H 
ENDBRANCH  93  99
ENDBRANCH  90  93
ENDBRANCH   1  90
TORSDOF 26
ENDMDL
MODEL 10
REMARK VINA RESULT:      -6.9      2.742      9.342
REMARK  26 active torsions:
REMARK  status: ('A' for Active; 'I' for Inactive)
REMARK    1  A    between atoms: C2_2  and  C3_3 
REMARK    2  A    between atoms: C4_6  and  C5_7 
REMARK       I    between atoms: C5_7  and  N2_9 
REMARK    3  A    between atoms: N2_9  and  C6_10 
REMARK    4  A    between atoms: C6_10  and  C7_11 
REMARK    5  A    between atoms: C6_10  and  C8_13 
REMARK       I    between atoms: C7_11  and  N3_14 
REMARK    6  A    between atoms: N3_14  and  C9_15 
REMARK    7  A    between atoms: C9_15  and  C10_16 
REMARK    8  A    between atoms: C9_15  and  C11_18 
REMARK       I    between atoms: C10_16  and  N4_21 
REMARK    9  A    between atoms: C11_18  and  C12_19 
REMARK   10  A    between atoms: C11_18  and  C13_20 
REMARK   11  A    between atoms: N4_21  and  C14_22 
REMARK   12  A    between atoms: C14_22  and  C15_23 
REMARK   13  A    between atoms: C14_22  and  C16_25 
REMARK       I    between atoms: C15_23  and  N6_40 
REMARK   14  A    between atoms: C16_25  and  C17_26 
REMARK   15  A    between atoms: C17_26  and  C18_27 
REMARK   16  A    between atoms: C17_26  and  C19_28 
REMARK   17  A    between atoms: C20_29  and  C21_30 
REMARK   18  A    between atoms: C20_29  and  C24_33 
REMARK   19  A    between atoms: C20_29  and  N6_40 
REMARK   20  A    between atoms: C21_30  and  C22_31 
REMARK   21  A    between atoms: C22_31  and  C23_32 
REMARK   22  A    between atoms: C23_32  and  O8_43 
REMARK   23  A    between atoms: C24_33  and  C25_34 
REMARK   24  A    between atoms: C28_38  and  O6_39 
REMARK   25  A    between atoms: C29_42  and  O8_43 
REMARK   26  A    between atoms: C29_42  and  C35_49 
ROOT
ATOM      1  C14 non d ame     -30.919  13.335  23.592  0.00  0.00     0.089 C 
ATOM      2  H20 non d ame     -31.801  13.750  23.104  0.00  0.00     0.087 H 
ENDROOT
BRANCH   1   3
ATOM      3  N4  non d ame     -30.743  14.041  24.853  0.00  0.00    -0.346 N 
ATOM      4  C10 non d ame     -31.943  14.450  25.670  0.00  0.00     0.241 C 
ATOM      5  O4  non d ame     -33.040  14.202  25.292  0.00  0.00    -0.271 OA
ATOM      6  H19 non d ame     -29.801  14.244  25.156  0.00  0.00     0.163 HD
BRANCH   4   7
ATOM      7  C9  non d ame     -31.742  15.175  26.975  0.00  0.00     0.092 C 
ATOM      8  H11 non d ame     -30.807  15.733  26.935  0.00  0.00     0.088 H 
BRANCH   7   9
ATOM      9  N3  non d ame     -32.821  16.148  27.165  0.00  0.00    -0.346 N 
ATOM     10  C7  non d ame     -32.740  17.444  26.537  0.00  0.00     0.240 C 
ATOM     11  O3  non d ame     -31.814  17.720  25.877  0.00  0.00    -0.271 OA
ATOM     12  H10 non d ame     -33.626  15.925  27.733  0.00  0.00     0.163 HD
BRANCH  10  13
ATOM     13  C6  non d ame     -33.891  18.478  26.745  0.00  0.00     0.086 C 
ATOM     14  H6  non d ame     -34.149  19.011  25.830  0.00  0.00     0.086 H 
BRANCH  13  15
ATOM     15  N2  non d ame     -35.089  17.771  27.166  0.00  0.00    -0.343 N 
ATOM     16  C5  non d ame     -36.301  17.856  26.349  0.00  0.00     0.273 C 
ATOM     17  O2  non d ame     -36.304  18.498  25.357  0.00  0.00    -0.266 OA
ATOM     18  H5  non d ame     -35.079  17.227  28.017  0.00  0.00     0.163 HD
BRANCH  16  19
ATOM     19  C4  non d ame     -37.575  17.113  26.782  0.00  0.00     0.154 A 
ATOM     20  C1  non d ame     -38.469  16.370  25.947  0.00  0.00    -0.017 A 
ATOM     21  C2  non d ame     -39.469  15.890  26.821  0.00  0.00     0.077 A 
ATOM     22  H1  non d ame     -38.402  16.205  24.871  0.00  0.00     0.091 H 
ATOM     23  O1  non d ame     -39.174  16.311  28.016  0.00  0.00    -0.218 OA
ATOM     24  N1  non d ame     -38.073  17.028  28.019  0.00  0.00    -0.123 NA
BRANCH  21  25
ATOM     25  C3  non d ame     -40.669  15.035  26.436  0.00  0.00    -0.029 C 
ATOM     26  H2  non d ame     -41.568  15.440  26.900  0.00  0.00     0.036 H 
ATOM     27  H3  non d ame     -40.786  15.041  25.352  0.00  0.00     0.036 H 
ATOM     28  H4  non d ame     -40.512  14.013  26.778  0.00  0.00     0.036 H 
ENDBRANCH  21  25
ENDBRANCH  16  19
ENDBRANCH  13  15
BRANCH  13  29
ATOM     29  C8  non d ame     -33.486  19.480  27.796  0.00  0.00    -0.049 C 
ATOM     30  H7  non d ame     -32.543  19.946  27.509  0.00  0.00     0.030 H 
ATOM     31  H8  non d ame     -34.257  20.245  27.884  0.00  0.00     0.030 H 
ATOM     32  H9  non d ame     -33.364  18.974  28.753  0.00  0.00     0.030 H 
ENDBRANCH  13  29
ENDBRANCH  10  13
ENDBRANCH   7   9
BRANCH   7  33
ATOM     33  C11 non d ame     -31.761  14.149  28.146  0.00  0.00    -0.033 C 
ATOM     34  H12 non d ame     -32.263  13.250  27.788  0.00  0.00     0.042 H 
BRANCH  33  35
ATOM     35  C12 non d ame     -30.315  13.742  28.569  0.00  0.00    -0.071 C 
ATOM     36  H13 non d ame     -29.839  14.575  29.087  0.00  0.00     0.028 H 
ATOM     37  H14 non d ame     -30.360  12.879  29.233  0.00  0.00     0.028 H 
ATOM     38  H15 non d ame     -29.735  13.488  27.682  0.00  0.00     0.028 H 
ENDBRANCH  33  35
BRANCH  33  39
ATOM     39  C13 non d ame     -32.571  14.703  29.362  0.00  0.00    -0.071 C 
ATOM     40  H16 non d ame     -31.950  15.398  29.927  0.00  0.00     0.028 H 
ATOM     41  H17 non d ame     -33.460  15.221  29.000  0.00  0.00     0.028 H 
ATOM     42  H18 non d ame     -32.871  13.876  30.006  0.00  0.00     0.028 H 
ENDBRANCH  33  39
ENDBRANCH   7  33
ENDBRANCH   4   7
ENDBRANCH   1   3
BRANCH   1  43
ATOM     43  C15 non d ame     -31.075  11.817  23.892  0.00  0.00     0.240 C 
ATOM     44  O5  non d ame     -30.168  11.077  23.684  0.00  0.00    -0.271 OA
ATOM     45  N6  non d ame     -32.352  11.285  24.447  0.00  0.00    -0.355 N 
ATOM     46  H46 non d ame     -33.128  11.904  24.632  0.00  0.00     0.162 HD
BRANCH  45  47
ATOM     47  C20 non d ame     -32.484   9.839  24.728  0.00  0.00     0.013 C 
ATOM     48  H30 non d ame     -31.484   9.437  24.894  0.00  0.00     0.072 H 
BRANCH  47  49
ATOM     49  C21 non d ame     -33.125   9.156  23.541  0.00  0.00    -0.038 C 
ATOM     50  H31 non d ame     -33.723   8.344  23.956  0.00  0.00     0.036 H 
ATOM     51  H32 non d ame     -33.605   9.950  22.969  0.00  0.00     0.036 H 
BRANCH  49  52
ATOM     52  C22 non d ame     -32.093   8.499  22.598  0.00  0.00     0.018 C 
ATOM     53  H33 non d ame     -31.910   9.227  21.808  0.00  0.00     0.048 H 
ATOM     54  H34 non d ame     -31.274   8.173  23.239  0.00  0.00     0.048 H 
BRANCH  52  55
ATOM     55  C23 non d ame     -32.618   7.221  21.889  0.00  0.00     0.259 C 
ATOM     56  O7  non d ame     -32.479   7.081  20.717  0.00  0.00    -0.265 OA
BRANCH  55  57
ATOM     57  O8  non d ame     -33.280   6.221  22.654  0.00  0.00    -0.317 OA
BRANCH  57  58
ATOM     58  C29 non d ame     -32.413   5.480  23.518  0.00  0.00     0.052 C 
ATOM     59  H47 non d ame     -32.630   4.430  23.323  0.00  0.00     0.082 H 
ATOM     60  H48 non d ame     -31.412   5.872  23.339  0.00  0.00     0.082 H 
BRANCH  58  61
ATOM     61  C35 non d ame     -32.810   5.800  24.984  0.00  0.00    -0.034 A 
ATOM     62  C30 non d ame     -31.833   6.153  25.909  0.00  0.00    -0.075 A 
ATOM     63  C31 non d ame     -32.190   6.440  27.226  0.00  0.00    -0.082 A 
ATOM     64  H49 non d ame     -30.788   6.205  25.603  0.00  0.00     0.084 H 
ATOM     65  C32 non d ame     -33.530   6.370  27.617  0.00  0.00    -0.083 A 
ATOM     66  H50 non d ame     -31.422   6.718  27.949  0.00  0.00     0.083 H 
ATOM     67  C33 non d ame     -34.501   6.013  26.691  0.00  0.00    -0.082 A 
ATOM     68  H51 non d ame     -33.817   6.593  28.645  0.00  0.00     0.083 H 
ATOM     69  C34 non d ame     -34.149   5.728  25.374  0.00  0.00    -0.075 A 
ATOM     70  H52 non d ame     -35.545   5.957  27.000  0.00  0.00     0.083 H 
ATOM     71  H53 non d ame     -34.918   5.450  24.652  0.00  0.00     0.084 H 
ENDBRANCH  58  61
ENDBRANCH  57  58
ENDBRANCH  55  57
ENDBRANCH  52  55
ENDBRANCH  49  52
ENDBRANCH  47  49
BRANCH  47  72
ATOM     72  C24 non d ame     -33.352   9.631  25.967  0.00  0.00    -0.039 C 
ATOM     73  H35 non d ame     -34.378   9.778  25.630  0.00  0.00     0.036 H 
ATOM     74  H36 non d ame     -33.046   8.668  26.377  0.00  0.00     0.036 H 
BRANCH  72  75
ATOM     75  C25 non d ame     -33.060  10.737  27.088  0.00  0.00    -0.001 C 
ATOM     76  C26 non d ame     -32.777  10.007  28.535  0.00  0.00    -0.035 C 
ATOM     77  C27 non d ame     -33.574  10.574  29.472  0.00  0.00     0.085 C 
ATOM     78  H38 non d ame     -33.117   8.972  28.504  0.00  0.00     0.036 H 
ATOM     79  H39 non d ame     -31.771  10.241  28.881  0.00  0.00     0.036 H 
ATOM     80  N5  non d ame     -34.605  11.396  28.737  0.00  0.00    -0.049 N 
ATOM     81  H40 non d ame     -34.072   9.743  29.972  0.00  0.00     0.075 H 
ATOM     82  H41 non d ame     -32.927  11.242  30.039  0.00  0.00     0.075 H 
ATOM     83  C28 non d ame     -34.061  11.541  27.224  0.00  0.00     0.193 C 
ATOM     84  H42 non d ame     -35.453  10.846  28.723  0.00  0.00     0.280 HD
ATOM     85  H43 non d ame     -34.603  12.309  29.169  0.00  0.00     0.280 HD
ATOM     86  H44 non d ame     -33.613  12.475  26.884  0.00  0.00     0.129 H 
ATOM     87  H37 non d ame     -32.333  11.479  26.757  0.00  0.00     0.046 H 
BRANCH  83  88
ATOM     88  O6  non d ame     -35.109  11.259  26.294  0.00  0.00    -0.369 OA
ATOM     89  H45 non d ame     -35.418  12.079  25.902  0.00  0.00     0.212 HD
ENDBRANCH  83  88
ENDBRANCH  72  75
ENDBRANCH  47  72
ENDBRANCH  45  47
ENDBRANCH   1  43
BRANCH   1  90
ATOM     90  C16 non d ame     -29.693  13.561  22.722  0.00  0.00    -0.035 C 
ATOM     91  H21 non d ame     -28.894  12.994  23.196  0.00  0.00     0.037 H 
ATOM     92  H22 non d ame     -30.010  13.315  21.708  0.00  0.00     0.037 H 
BRANCH  90  93
ATOM     93  C17 non d ame     -29.216  15.048  22.686  0.00  0.00    -0.059 C 
ATOM     94  H23 non d ame     -29.636  15.552  23.556  0.00  0.00     0.038 H 
BRANCH  93  95
ATOM     95  C18 non d ame     -27.661  15.170  22.769  0.00  0.00    -0.073 C 
ATOM     96  H24 non d ame     -27.269  14.389  23.420  0.00  0.00     0.028 H 
ATOM     97  H25 non d ame     -27.234  15.060  21.772  0.00  0.00     0.028 H 
ATOM     98  H26 non d ame     -27.395  16.147  23.172  0.00  0.00     0.028 H 
ENDBRANCH  93  95
BRANCH  93  99
ATOM     99  C19 non d ame     -29.753  15.765  21.444  0.00  0.00    -0.073 C 
ATOM    100  H27 non d ame     -30.653  16.322  21.706  0.00  0.00     0.028 H 
ATOM    101  H28 non d ame     -28.997  16.453  21.066  0.00  0.00     0.028 H 
ATOM    102  H29 non d ame     -29.991  15.030  20.675  0.00  0.00     0.028 H 
ENDBRANCH  93  99
ENDBRANCH  90  93
ENDBRANCH   1  90
TORSDOF 26
ENDMDL
MODEL 11
REMARK VINA RESULT:      -6.8      3.244      9.392
REMARK  26 active torsions:
REMARK  status: ('A' for Active; 'I' for Inactive)
REMARK    1  A    between atoms: C2_2  and  C3_3 
REMARK    2  A    between atoms: C4_6  and  C5_7 
REMARK       I    between atoms: C5_7  and  N2_9 
REMARK    3  A    between atoms: N2_9  and  C6_10 
REMARK    4  A    between atoms: C6_10  and  C7_11 
REMARK    5  A    between atoms: C6_10  and  C8_13 
REMARK       I    between atoms: C7_11  and  N3_14 
REMARK    6  A    between atoms: N3_14  and  C9_15 
REMARK    7  A    between atoms: C9_15  and  C10_16 
REMARK    8  A    between atoms: C9_15  and  C11_18 
REMARK       I    between atoms: C10_16  and  N4_21 
REMARK    9  A    between atoms: C11_18  and  C12_19 
REMARK   10  A    between atoms: C11_18  and  C13_20 
REMARK   11  A    between atoms: N4_21  and  C14_22 
REMARK   12  A    between atoms: C14_22  and  C15_23 
REMARK   13  A    between atoms: C14_22  and  C16_25 
REMARK       I    between atoms: C15_23  and  N6_40 
REMARK   14  A    between atoms: C16_25  and  C17_26 
REMARK   15  A    between atoms: C17_26  and  C18_27 
REMARK   16  A    between atoms: C17_26  and  C19_28 
REMARK   17  A    between atoms: C20_29  and  C21_30 
REMARK   18  A    between atoms: C20_29  and  C24_33 
REMARK   19  A    between atoms: C20_29  and  N6_40 
REMARK   20  A    between atoms: C21_30  and  C22_31 
REMARK   21  A    between atoms: C22_31  and  C23_32 
REMARK   22  A    between atoms: C23_32  and  O8_43 
REMARK   23  A    between atoms: C24_33  and  C25_34 
REMARK   24  A    between atoms: C28_38  and  O6_39 
REMARK   25  A    between atoms: C29_42  and  O8_43 
REMARK   26  A    between atoms: C29_42  and  C35_49 
ROOT
ATOM      1  C14 non d ame     -32.280  14.433  27.185  0.00  0.00     0.089 C 
ATOM      2  H20 non d ame     -31.291  14.839  27.398  0.00  0.00     0.087 H 
ENDROOT
BRANCH   1   3
ATOM      3  N4  non d ame     -33.182  15.557  26.985  0.00  0.00    -0.346 N 
ATOM      4  C10 non d ame     -32.726  16.772  26.217  0.00  0.00     0.241 C 
ATOM      5  O4  non d ame     -31.627  16.822  25.770  0.00  0.00    -0.271 OA
ATOM      6  H19 non d ame     -34.112  15.496  27.375  0.00  0.00     0.163 HD
BRANCH   4   7
ATOM      7  C9  non d ame     -33.674  17.925  26.015  0.00  0.00     0.092 C 
ATOM      8  H11 non d ame     -33.515  18.350  25.024  0.00  0.00     0.088 H 
BRANCH   7   9
ATOM      9  N3  non d ame     -35.055  17.435  26.059  0.00  0.00    -0.346 N 
ATOM     10  C7  non d ame     -36.120  18.231  25.499  0.00  0.00     0.240 C 
ATOM     11  O3  non d ame     -35.883  19.268  25.010  0.00  0.00    -0.271 OA
ATOM     12  H10 non d ame     -35.275  16.543  26.479  0.00  0.00     0.163 HD
BRANCH  10  13
ATOM     13  C6  non d ame     -37.588  17.706  25.553  0.00  0.00     0.086 C 
ATOM     14  H6  non d ame     -38.282  18.338  24.998  0.00  0.00     0.086 H 
BRANCH  13  15
ATOM     15  N2  non d ame     -37.641  16.390  24.938  0.00  0.00    -0.343 N 
ATOM     16  C5  non d ame     -37.942  16.273  23.509  0.00  0.00     0.273 C 
ATOM     17  O2  non d ame     -38.143  17.244  22.864  0.00  0.00    -0.266 OA
ATOM     18  H5  non d ame     -37.471  15.566  25.497  0.00  0.00     0.163 HD
BRANCH  16  19
ATOM     19  C4  non d ame     -38.000  14.889  22.845  0.00  0.00     0.154 A 
ATOM     20  C1  non d ame     -39.044  14.370  22.016  0.00  0.00    -0.017 A 
ATOM     21  C2  non d ame     -38.618  13.070  21.665  0.00  0.00     0.077 A 
ATOM     22  H1  non d ame     -39.970  14.862  21.715  0.00  0.00     0.091 H 
ATOM     23  O1  non d ame     -37.463  12.875  22.230  0.00  0.00    -0.218 OA
ATOM     24  N1  non d ame     -37.081  13.922  22.924  0.00  0.00    -0.123 NA
BRANCH  21  25
ATOM     25  C3  non d ame     -39.372  12.080  20.786  0.00  0.00    -0.029 C 
ATOM     26  H2  non d ame     -40.429  12.343  20.767  0.00  0.00     0.036 H 
ATOM     27  H3  non d ame     -38.971  12.116  19.773  0.00  0.00     0.036 H 
ATOM     28  H4  non d ame     -39.255  11.074  21.188  0.00  0.00     0.036 H 
ENDBRANCH  21  25
ENDBRANCH  16  19
ENDBRANCH  13  15
BRANCH  13  29
ATOM     29  C8  non d ame     -38.044  17.624  26.987  0.00  0.00    -0.049 C 
ATOM     30  H7  non d ame     -37.440  18.295  27.599  0.00  0.00     0.030 H 
ATOM     31  H8  non d ame     -39.091  17.918  27.053  0.00  0.00     0.030 H 
ATOM     32  H9  non d ame     -37.930  16.602  27.347  0.00  0.00     0.030 H 
ENDBRANCH  13  29
ENDBRANCH  10  13
ENDBRANCH   7   9
BRANCH   7  33
ATOM     33  C11 non d ame     -33.462  18.975  27.144  0.00  0.00    -0.033 C 
ATOM     34  H12 non d ame     -34.439  19.198  27.573  0.00  0.00     0.042 H 
BRANCH  33  35
ATOM     35  C12 non d ame     -32.566  18.405  28.289  0.00  0.00    -0.071 C 
ATOM     36  H13 non d ame     -33.002  18.663  29.254  0.00  0.00     0.028 H 
ATOM     37  H14 non d ame     -32.504  17.322  28.196  0.00  0.00     0.028 H 
ATOM     38  H15 non d ame     -31.567  18.835  28.215  0.00  0.00     0.028 H 
ENDBRANCH  33  35
BRANCH  33  39
ATOM     39  C13 non d ame     -32.872  20.302  26.570  0.00  0.00    -0.071 C 
ATOM     40  H16 non d ame     -33.507  20.662  25.761  0.00  0.00     0.028 H 
ATOM     41  H17 non d ame     -32.829  21.053  27.360  0.00  0.00     0.028 H 
ATOM     42  H18 non d ame     -31.867  20.119  26.191  0.00  0.00     0.028 H 
ENDBRANCH  33  39
ENDBRANCH   7  33
ENDBRANCH   4   7
ENDBRANCH   1   3
BRANCH   1  43
ATOM     43  C15 non d ame     -32.290  13.556  25.900  0.00  0.00     0.240 C 
ATOM     44  O5  non d ame     -33.302  13.049  25.538  0.00  0.00    -0.271 OA
ATOM     45  N6  non d ame     -31.038  13.354  25.116  0.00  0.00    -0.355 N 
ATOM     46  H46 non d ame     -30.173  13.783  25.411  0.00  0.00     0.162 HD
BRANCH  45  47
ATOM     47  C20 non d ame     -31.065  12.519  23.896  0.00  0.00     0.013 C 
ATOM     48  H30 non d ame     -32.074  12.556  23.485  0.00  0.00     0.072 H 
BRANCH  47  49
ATOM     49  C21 non d ame     -30.706  11.095  24.257  0.00  0.00    -0.038 C 
ATOM     50  H31 non d ame     -29.620  11.035  24.177  0.00  0.00     0.036 H 
ATOM     51  H32 non d ame     -31.194  10.902  25.213  0.00  0.00     0.036 H 
BRANCH  49  52
ATOM     52  C22 non d ame     -31.274  10.062  23.260  0.00  0.00     0.018 C 
ATOM     53  H33 non d ame     -31.948   9.432  23.840  0.00  0.00     0.048 H 
ATOM     54  H34 non d ame     -31.658  10.642  22.420  0.00  0.00     0.048 H 
BRANCH  52  55
ATOM     55  C23 non d ame     -30.201   9.108  22.667  0.00  0.00     0.259 C 
ATOM     56  O7  non d ame     -29.298   9.540  22.026  0.00  0.00    -0.265 OA
BRANCH  55  57
ATOM     57  O8  non d ame     -30.315   7.707  22.887  0.00  0.00    -0.317 OA
BRANCH  57  58
ATOM     58  C29 non d ame     -31.477   7.328  23.631  0.00  0.00     0.052 C 
ATOM     59  H47 non d ame     -31.124   7.112  24.639  0.00  0.00     0.082 H 
ATOM     60  H48 non d ame     -32.205   8.123  23.467  0.00  0.00     0.082 H 
BRANCH  58  61
ATOM     61  C35 non d ame     -32.034   6.018  23.013  0.00  0.00    -0.034 A 
ATOM     62  C30 non d ame     -31.744   5.691  21.693  0.00  0.00    -0.075 A 
ATOM     63  C31 non d ame     -32.244   4.515  21.138  0.00  0.00    -0.082 A 
ATOM     64  H49 non d ame     -31.124   6.358  21.092  0.00  0.00     0.084 H 
ATOM     65  C32 non d ame     -33.041   3.664  21.908  0.00  0.00    -0.083 A 
ATOM     66  H50 non d ame     -32.013   4.261  20.103  0.00  0.00     0.083 H 
ATOM     67  C33 non d ame     -33.331   3.995  23.225  0.00  0.00    -0.082 A 
ATOM     68  H51 non d ame     -33.436   2.741  21.483  0.00  0.00     0.083 H 
ATOM     69  C34 non d ame     -32.831   5.169  23.784  0.00  0.00    -0.075 A 
ATOM     70  H52 non d ame     -33.955   3.330  23.823  0.00  0.00     0.083 H 
ATOM     71  H53 non d ame     -33.063   5.422  24.819  0.00  0.00     0.084 H 
ENDBRANCH  58  61
ENDBRANCH  57  58
ENDBRANCH  55  57
ENDBRANCH  52  55
ENDBRANCH  49  52
ENDBRANCH  47  49
BRANCH  47  72
ATOM     72  C24 non d ame     -30.059  13.056  22.880  0.00  0.00    -0.039 C 
ATOM     73  H35 non d ame     -29.086  12.693  23.215  0.00  0.00     0.036 H 
ATOM     74  H36 non d ame     -30.445  12.760  21.905  0.00  0.00     0.036 H 
BRANCH  72  75
ATOM     75  C25 non d ame     -29.997  14.657  22.897  0.00  0.00    -0.001 C 
ATOM     76  C26 non d ame     -31.247  15.275  22.025  0.00  0.00    -0.035 C 
ATOM     77  C27 non d ame     -30.756  16.168  21.133  0.00  0.00     0.085 C 
ATOM     78  H38 non d ame     -31.683  14.500  21.396  0.00  0.00     0.036 H 
ATOM     79  H39 non d ame     -31.887  15.881  22.667  0.00  0.00     0.036 H 
ATOM     80  N5  non d ame     -29.260  15.976  21.092  0.00  0.00    -0.049 N 
ATOM     81  H40 non d ame     -31.179  15.880  20.171  0.00  0.00     0.075 H 
ATOM     82  H41 non d ame     -30.977  17.149  21.553  0.00  0.00     0.075 H 
ATOM     83  C28 non d ame     -28.891  15.087  22.388  0.00  0.00     0.193 C 
ATOM     84  H42 non d ame     -29.064  15.432  20.263  0.00  0.00     0.280 HD
ATOM     85  H43 non d ame     -28.851  16.893  21.203  0.00  0.00     0.280 HD
ATOM     86  H44 non d ame     -28.436  15.549  23.265  0.00  0.00     0.129 H 
ATOM     87  H37 non d ame     -29.849  15.054  23.902  0.00  0.00     0.046 H 
BRANCH  83  88
ATOM     88  O6  non d ame     -28.015  14.020  22.022  0.00  0.00    -0.369 OA
ATOM     89  H45 non d ame     -28.528  13.295  21.657  0.00  0.00     0.212 HD
ENDBRANCH  83  88
ENDBRANCH  72  75
ENDBRANCH  47  72
ENDBRANCH  45  47
ENDBRANCH   1  43
BRANCH   1  90
ATOM     90  C16 non d ame     -32.766  13.611  28.368  0.00  0.00    -0.035 C 
ATOM     91  H21 non d ame     -33.667  14.114  28.718  0.00  0.00     0.037 H 
ATOM     92  H22 non d ame     -32.821  12.585  28.004  0.00  0.00     0.037 H 
BRANCH  90  93
ATOM     93  C17 non d ame     -31.772  13.600  29.573  0.00  0.00    -0.059 C 
ATOM     94  H23 non d ame     -31.928  14.518  30.139  0.00  0.00     0.038 H 
BRANCH  93  95
ATOM     95  C18 non d ame     -32.029  12.397  30.537  0.00  0.00    -0.073 C 
ATOM     96  H24 non d ame     -32.480  11.575  29.981  0.00  0.00     0.028 H 
ATOM     97  H25 non d ame     -31.083  12.067  30.966  0.00  0.00     0.028 H 
ATOM     98  H26 non d ame     -32.701  12.708  31.335  0.00  0.00     0.028 H 
ENDBRANCH  93  95
BRANCH  93  99
ATOM     99  C19 non d ame     -30.321  13.607  29.085  0.00  0.00    -0.073 C 
ATOM    100  H27 non d ame     -29.721  12.955  29.720  0.00  0.00     0.028 H 
ATOM    101  H28 non d ame     -30.282  13.249  28.056  0.00  0.00     0.028 H 
ATOM    102  H29 non d ame     -29.928  14.622  29.131  0.00  0.00     0.028 H 
ENDBRANCH  93  99
ENDBRANCH  90  93
ENDBRANCH   1  90
TORSDOF 26
ENDMDL
MODEL 12
REMARK VINA RESULT:      -6.8      4.522      9.433
REMARK  26 active torsions:
REMARK  status: ('A' for Active; 'I' for Inactive)
REMARK    1  A    between atoms: C2_2  and  C3_3 
REMARK    2  A    between atoms: C4_6  and  C5_7 
REMARK       I    between atoms: C5_7  and  N2_9 
REMARK    3  A    between atoms: N2_9  and  C6_10 
REMARK    4  A    between atoms: C6_10  and  C7_11 
REMARK    5  A    between atoms: C6_10  and  C8_13 
REMARK       I    between atoms: C7_11  and  N3_14 
REMARK    6  A    between atoms: N3_14  and  C9_15 
REMARK    7  A    between atoms: C9_15  and  C10_16 
REMARK    8  A    between atoms: C9_15  and  C11_18 
REMARK       I    between atoms: C10_16  and  N4_21 
REMARK    9  A    between atoms: C11_18  and  C12_19 
REMARK   10  A    between atoms: C11_18  and  C13_20 
REMARK   11  A    between atoms: N4_21  and  C14_22 
REMARK   12  A    between atoms: C14_22  and  C15_23 
REMARK   13  A    between atoms: C14_22  and  C16_25 
REMARK       I    between atoms: C15_23  and  N6_40 
REMARK   14  A    between atoms: C16_25  and  C17_26 
REMARK   15  A    between atoms: C17_26  and  C18_27 
REMARK   16  A    between atoms: C17_26  and  C19_28 
REMARK   17  A    between atoms: C20_29  and  C21_30 
REMARK   18  A    between atoms: C20_29  and  C24_33 
REMARK   19  A    between atoms: C20_29  and  N6_40 
REMARK   20  A    between atoms: C21_30  and  C22_31 
REMARK   21  A    between atoms: C22_31  and  C23_32 
REMARK   22  A    between atoms: C23_32  and  O8_43 
REMARK   23  A    between atoms: C24_33  and  C25_34 
REMARK   24  A    between atoms: C28_38  and  O6_39 
REMARK   25  A    between atoms: C29_42  and  O8_43 
REMARK   26  A    between atoms: C29_42  and  C35_49 
ROOT
ATOM      1  C14 non d ame     -34.565  18.855  26.679  0.00  0.00     0.089 C 
ATOM      2  H20 non d ame     -34.361  19.926  26.656  0.00  0.00     0.087 H 
ENDROOT
BRANCH   1   3
ATOM      3  N4  non d ame     -35.597  18.583  25.690  0.00  0.00    -0.346 N 
ATOM      4  C10 non d ame     -36.484  19.695  25.189  0.00  0.00     0.241 C 
ATOM      5  O4  non d ame     -36.350  20.800  25.600  0.00  0.00    -0.271 OA
ATOM      6  H19 non d ame     -35.695  17.635  25.355  0.00  0.00     0.163 HD
BRANCH   4   7
ATOM      7  C9  non d ame     -37.542  19.396  24.160  0.00  0.00     0.092 C 
ATOM      8  H11 non d ame     -37.065  19.044  23.246  0.00  0.00     0.088 H 
BRANCH   7   9
ATOM      9  N3  non d ame     -38.404  18.314  24.645  0.00  0.00    -0.346 N 
ATOM     10  C7  non d ame     -38.587  17.127  23.846  0.00  0.00     0.240 C 
ATOM     11  O3  non d ame     -38.051  17.027  22.810  0.00  0.00    -0.271 OA
ATOM     12  H10 non d ame     -38.874  18.386  25.535  0.00  0.00     0.163 HD
BRANCH  10  13
ATOM     13  C6  non d ame     -39.508  15.979  24.365  0.00  0.00     0.086 C 
ATOM     14  H6  non d ame     -40.239  15.657  23.624  0.00  0.00     0.086 H 
BRANCH  13  15
ATOM     15  N2  non d ame     -38.687  14.819  24.672  0.00  0.00    -0.343 N 
ATOM     16  C5  non d ame     -37.503  14.977  25.519  0.00  0.00     0.273 C 
ATOM     17  O2  non d ame     -37.218  16.042  25.947  0.00  0.00    -0.266 OA
ATOM     18  H5  non d ame     -38.937  13.914  24.300  0.00  0.00     0.163 HD
BRANCH  16  19
ATOM     19  C4  non d ame     -36.628  13.759  25.853  0.00  0.00     0.154 A 
ATOM     20  C1  non d ame     -37.047  12.533  26.460  0.00  0.00    -0.017 A 
ATOM     21  C2  non d ame     -35.874  11.751  26.547  0.00  0.00     0.077 A 
ATOM     22  H1  non d ame     -38.049  12.253  26.786  0.00  0.00     0.091 H 
ATOM     23  O1  non d ame     -34.901  12.454  26.045  0.00  0.00    -0.218 OA
ATOM     24  N1  non d ame     -35.316  13.630  25.634  0.00  0.00    -0.123 NA
BRANCH  21  25
ATOM     25  C3  non d ame     -35.769  10.344  27.121  0.00  0.00    -0.029 C 
ATOM     26  H2  non d ame     -35.444   9.656  26.340  0.00  0.00     0.036 H 
ATOM     27  H3  non d ame     -35.045  10.337  27.935  0.00  0.00     0.036 H 
ATOM     28  H4  non d ame     -36.742  10.032  27.498  0.00  0.00     0.036 H 
ENDBRANCH  21  25
ENDBRANCH  16  19
ENDBRANCH  13  15
BRANCH  13  29
ATOM     29  C8  non d ame     -40.238  16.437  25.602  0.00  0.00    -0.049 C 
ATOM     30  H7  non d ame     -39.938  17.457  25.844  0.00  0.00     0.030 H 
ATOM     31  H8  non d ame     -41.312  16.407  25.422  0.00  0.00     0.030 H 
ATOM     32  H9  non d ame     -39.990  15.779  26.435  0.00  0.00     0.030 H 
ENDBRANCH  13  29
ENDBRANCH  10  13
ENDBRANCH   7   9
BRANCH   7  33
ATOM     33  C11 non d ame     -38.403  20.671  23.917  0.00  0.00    -0.033 C 
ATOM     34  H12 non d ame     -37.846  21.523  24.306  0.00  0.00     0.042 H 
BRANCH  33  35
ATOM     35  C12 non d ame     -38.636  20.918  22.394  0.00  0.00    -0.071 C 
ATOM     36  H13 non d ame     -37.686  21.158  21.915  0.00  0.00     0.028 H 
ATOM     37  H14 non d ame     -39.054  20.020  21.940  0.00  0.00     0.028 H 
ATOM     38  H15 non d ame     -39.329  21.748  22.262  0.00  0.00     0.028 H 
ENDBRANCH  33  35
BRANCH  33  39
ATOM     39  C13 non d ame     -39.758  20.586  24.691  0.00  0.00    -0.071 C 
ATOM     40  H16 non d ame     -39.620  20.005  25.602  0.00  0.00     0.028 H 
ATOM     41  H17 non d ame     -40.093  21.592  24.948  0.00  0.00     0.028 H 
ATOM     42  H18 non d ame     -40.507  20.105  24.061  0.00  0.00     0.028 H 
ENDBRANCH  33  39
ENDBRANCH   7  33
ENDBRANCH   4   7
ENDBRANCH   1   3
BRANCH   1  43
ATOM     43  C15 non d ame     -33.307  18.010  26.328  0.00  0.00     0.240 C 
ATOM     44  O5  non d ame     -32.230  18.512  26.363  0.00  0.00    -0.271 OA
ATOM     45  N6  non d ame     -33.444  16.573  25.958  0.00  0.00    -0.355 N 
ATOM     46  H46 non d ame     -34.353  16.134  25.930  0.00  0.00     0.162 HD
BRANCH  45  47
ATOM     47  C20 non d ame     -32.238  15.783  25.628  0.00  0.00     0.013 C 
ATOM     48  H30 non d ame     -31.366  16.414  25.801  0.00  0.00     0.072 H 
BRANCH  47  49
ATOM     49  C21 non d ame     -32.295  15.366  24.176  0.00  0.00    -0.038 C 
ATOM     50  H31 non d ame     -31.849  14.372  24.137  0.00  0.00     0.036 H 
ATOM     51  H32 non d ame     -33.330  15.513  23.868  0.00  0.00     0.036 H 
BRANCH  49  52
ATOM     52  C22 non d ame     -31.436  16.266  23.260  0.00  0.00     0.018 C 
ATOM     53  H33 non d ame     -32.120  16.663  22.511  0.00  0.00     0.048 H 
ATOM     54  H34 non d ame     -30.905  16.945  23.928  0.00  0.00     0.048 H 
BRANCH  52  55
ATOM     55  C23 non d ame     -30.340  15.494  22.474  0.00  0.00     0.259 C 
ATOM     56  O7  non d ame     -30.039  15.828  21.374  0.00  0.00    -0.265 OA
BRANCH  55  57
ATOM     57  O8  non d ame     -29.706  14.374  23.080  0.00  0.00    -0.317 OA
BRANCH  57  58
ATOM     58  C29 non d ame     -29.542  13.255  22.204  0.00  0.00     0.052 C 
ATOM     59  H47 non d ame     -30.103  13.500  21.303  0.00  0.00     0.082 H 
ATOM     60  H48 non d ame     -28.468  13.080  22.146  0.00  0.00     0.082 H 
BRANCH  58  61
ATOM     61  C35 non d ame     -30.204  12.021  22.874  0.00  0.00    -0.034 A 
ATOM     62  C30 non d ame     -29.942  10.743  22.392  0.00  0.00    -0.075 A 
ATOM     63  C31 non d ame     -30.537   9.634  22.994  0.00  0.00    -0.082 A 
ATOM     64  H49 non d ame     -29.272  10.609  21.543  0.00  0.00     0.084 H 
ATOM     65  C32 non d ame     -31.398   9.809  24.081  0.00  0.00    -0.083 A 
ATOM     66  H50 non d ame     -30.329   8.634  22.615  0.00  0.00     0.083 H 
ATOM     67  C33 non d ame     -31.659  11.087  24.556  0.00  0.00    -0.082 A 
ATOM     68  H51 non d ame     -31.867   8.948  24.557  0.00  0.00     0.083 H 
ATOM     69  C34 non d ame     -31.065  12.197  23.959  0.00  0.00    -0.075 A 
ATOM     70  H52 non d ame     -32.333  11.220  25.402  0.00  0.00     0.083 H 
ATOM     71  H53 non d ame     -31.274  13.198  24.339  0.00  0.00     0.084 H 
ENDBRANCH  58  61
ENDBRANCH  57  58
ENDBRANCH  55  57
ENDBRANCH  52  55
ENDBRANCH  49  52
ENDBRANCH  47  49
BRANCH  47  72
ATOM     72  C24 non d ame     -32.176  14.540  26.513  0.00  0.00    -0.039 C 
ATOM     73  H35 non d ame     -33.184  14.124  26.499  0.00  0.00     0.036 H 
ATOM     74  H36 non d ame     -31.340  13.954  26.133  0.00  0.00     0.036 H 
BRANCH  72  75
ATOM     75  C25 non d ame     -31.840  14.911  28.035  0.00  0.00    -0.001 C 
ATOM     76  C26 non d ame     -30.654  13.924  28.604  0.00  0.00    -0.035 C 
ATOM     77  C27 non d ame     -31.063  13.382  29.776  0.00  0.00     0.085 C 
ATOM     78  H38 non d ame     -30.542  13.060  27.949  0.00  0.00     0.036 H 
ATOM     79  H39 non d ame     -29.781  14.512  28.885  0.00  0.00     0.036 H 
ATOM     80  N5  non d ame     -32.543  13.652  29.895  0.00  0.00    -0.049 N 
ATOM     81  H40 non d ame     -30.904  12.309  29.672  0.00  0.00     0.075 H 
ATOM     82  H41 non d ame     -30.537  13.938  30.552  0.00  0.00     0.075 H 
ATOM     83  C28 non d ame     -32.880  14.779  28.789  0.00  0.00     0.193 C 
ATOM     84  H42 non d ame     -33.012  12.796  29.635  0.00  0.00     0.280 HD
ATOM     85  H43 non d ame     -32.688  14.048  30.813  0.00  0.00     0.280 HD
ATOM     86  H44 non d ame     -33.042  15.815  29.086  0.00  0.00     0.129 H 
ATOM     87  H37 non d ame     -31.704  15.983  28.178  0.00  0.00     0.046 H 
BRANCH  83  88
ATOM     88  O6  non d ame     -34.042  14.408  28.045  0.00  0.00    -0.369 OA
ATOM     89  H45 non d ame     -34.693  14.026  28.639  0.00  0.00     0.212 HD
ENDBRANCH  83  88
ENDBRANCH  72  75
ENDBRANCH  47  72
ENDBRANCH  45  47
ENDBRANCH   1  43
BRANCH   1  90
ATOM     90  C16 non d ame     -35.079  18.459  28.054  0.00  0.00    -0.035 C 
ATOM     91  H21 non d ame     -35.235  17.381  28.005  0.00  0.00     0.037 H 
ATOM     92  H22 non d ame     -34.362  18.874  28.762  0.00  0.00     0.037 H 
BRANCH  90  93
ATOM     93  C17 non d ame     -36.464  19.087  28.410  0.00  0.00    -0.059 C 
ATOM     94  H23 non d ame     -36.830  19.605  27.523  0.00  0.00     0.038 H 
BRANCH  93  95
ATOM     95  C18 non d ame     -37.521  18.004  28.798  0.00  0.00    -0.073 C 
ATOM     96  H24 non d ame     -38.427  18.492  29.156  0.00  0.00     0.028 H 
ATOM     97  H25 non d ame     -37.756  17.396  27.925  0.00  0.00     0.028 H 
ATOM     98  H26 non d ame     -37.116  17.368  29.585  0.00  0.00     0.028 H 
ENDBRANCH  93  95
BRANCH  93  99
ATOM     99  C19 non d ame     -36.321  20.132  29.520  0.00  0.00    -0.073 C 
ATOM    100  H27 non d ame     -35.264  20.319  29.709  0.00  0.00     0.028 H 
ATOM    101  H28 non d ame     -36.805  21.059  29.212  0.00  0.00     0.028 H 
ATOM    102  H29 non d ame     -36.794  19.762  30.430  0.00  0.00     0.028 H 
ENDBRANCH  93  99
ENDBRANCH  90  93
ENDBRANCH   1  90
TORSDOF 26
ENDMDL
MODEL 13
REMARK VINA RESULT:      -6.7      3.462     10.200
REMARK  26 active torsions:
REMARK  status: ('A' for Active; 'I' for Inactive)
REMARK    1  A    between atoms: C2_2  and  C3_3 
REMARK    2  A    between atoms: C4_6  and  C5_7 
REMARK       I    between atoms: C5_7  and  N2_9 
REMARK    3  A    between atoms: N2_9  and  C6_10 
REMARK    4  A    between atoms: C6_10  and  C7_11 
REMARK    5  A    between atoms: C6_10  and  C8_13 
REMARK       I    between atoms: C7_11  and  N3_14 
REMARK    6  A    between atoms: N3_14  and  C9_15 
REMARK    7  A    between atoms: C9_15  and  C10_16 
REMARK    8  A    between atoms: C9_15  and  C11_18 
REMARK       I    between atoms: C10_16  and  N4_21 
REMARK    9  A    between atoms: C11_18  and  C12_19 
REMARK   10  A    between atoms: C11_18  and  C13_20 
REMARK   11  A    between atoms: N4_21  and  C14_22 
REMARK   12  A    between atoms: C14_22  and  C15_23 
REMARK   13  A    between atoms: C14_22  and  C16_25 
REMARK       I    between atoms: C15_23  and  N6_40 
REMARK   14  A    between atoms: C16_25  and  C17_26 
REMARK   15  A    between atoms: C17_26  and  C18_27 
REMARK   16  A    between atoms: C17_26  and  C19_28 
REMARK   17  A    between atoms: C20_29  and  C21_30 
REMARK   18  A    between atoms: C20_29  and  C24_33 
REMARK   19  A    between atoms: C20_29  and  N6_40 
REMARK   20  A    between atoms: C21_30  and  C22_31 
REMARK   21  A    between atoms: C22_31  and  C23_32 
REMARK   22  A    between atoms: C23_32  and  O8_43 
REMARK   23  A    between atoms: C24_33  and  C25_34 
REMARK   24  A    between atoms: C28_38  and  O6_39 
REMARK   25  A    between atoms: C29_42  and  O8_43 
REMARK   26  A    between atoms: C29_42  and  C35_49 
ROOT
ATOM      1  C14 non d ame     -31.485  13.031  24.487  0.00  0.00     0.089 C 
ATOM      2  H20 non d ame     -32.452  13.302  24.064  0.00  0.00     0.087 H 
ENDROOT
BRANCH   1   3
ATOM      3  N4  non d ame     -31.138  14.043  25.473  0.00  0.00    -0.346 N 
ATOM      4  C10 non d ame     -32.128  14.439  26.539  0.00  0.00     0.241 C 
ATOM      5  O4  non d ame     -33.199  13.931  26.582  0.00  0.00    -0.271 OA
ATOM      6  H19 non d ame     -30.222  14.466  25.418  0.00  0.00     0.163 HD
BRANCH   4   7
ATOM      7  C9  non d ame     -31.750  15.485  27.555  0.00  0.00     0.092 C 
ATOM      8  H11 non d ame     -30.769  15.890  27.304  0.00  0.00     0.088 H 
BRANCH   7   9
ATOM      9  N3  non d ame     -32.706  16.595  27.494  0.00  0.00    -0.346 N 
ATOM     10  C7  non d ame     -32.688  17.499  26.370  0.00  0.00     0.240 C 
ATOM     11  O3  non d ame     -31.911  17.350  25.508  0.00  0.00    -0.271 OA
ATOM     12  H10 non d ame     -33.381  16.737  28.231  0.00  0.00     0.163 HD
BRANCH  10  13
ATOM     13  C6  non d ame     -33.706  18.680  26.312  0.00  0.00     0.086 C 
ATOM     14  H6  non d ame     -34.431  18.573  25.506  0.00  0.00     0.086 H 
BRANCH  13  15
ATOM     15  N2  non d ame     -34.464  18.711  27.552  0.00  0.00    -0.343 N 
ATOM     16  C5  non d ame     -35.849  19.189  27.539  0.00  0.00     0.273 C 
ATOM     17  O2  non d ame     -36.342  19.550  26.528  0.00  0.00    -0.266 OA
ATOM     18  H5  non d ame     -34.034  18.403  28.412  0.00  0.00     0.163 HD
BRANCH  16  19
ATOM     19  C4  non d ame     -36.663  19.225  28.842  0.00  0.00     0.154 A 
ATOM     20  C1  non d ame     -36.662  20.257  29.834  0.00  0.00    -0.017 A 
ATOM     21  C2  non d ame     -37.570  19.813  30.821  0.00  0.00     0.077 A 
ATOM     22  H1  non d ame     -36.091  21.185  29.837  0.00  0.00     0.091 H 
ATOM     23  O1  non d ame     -38.033  18.661  30.431  0.00  0.00    -0.218 OA
ATOM     24  N1  non d ame     -37.518  18.297  29.280  0.00  0.00    -0.123 NA
BRANCH  21  25
ATOM     25  C3  non d ame     -37.939  20.548  32.103  0.00  0.00    -0.029 C 
ATOM     26  H2  non d ame     -38.792  20.056  32.571  0.00  0.00     0.036 H 
ATOM     27  H3  non d ame     -37.091  20.532  32.787  0.00  0.00     0.036 H 
ATOM     28  H4  non d ame     -38.198  21.580  31.868  0.00  0.00     0.036 H 
ENDBRANCH  21  25
ENDBRANCH  16  19
ENDBRANCH  13  15
BRANCH  13  29
ATOM     29  C8  non d ame     -32.963  19.979  26.129  0.00  0.00    -0.049 C 
ATOM     30  H7  non d ame     -33.508  20.783  26.625  0.00  0.00     0.030 H 
ATOM     31  H8  non d ame     -31.968  19.893  26.565  0.00  0.00     0.030 H 
ATOM     32  H9  non d ame     -32.877  20.202  25.066  0.00  0.00     0.030 H 
ENDBRANCH  13  29
ENDBRANCH  10  13
ENDBRANCH   7   9
BRANCH   7  33
ATOM     33  C11 non d ame     -31.777  14.858  28.980  0.00  0.00    -0.033 C 
ATOM     34  H12 non d ame     -32.787  14.487  29.156  0.00  0.00     0.042 H 
BRANCH  33  35
ATOM     35  C12 non d ame     -30.806  13.641  29.084  0.00  0.00    -0.071 C 
ATOM     36  H13 non d ame     -31.377  12.714  29.031  0.00  0.00     0.028 H 
ATOM     37  H14 non d ame     -30.091  13.676  28.263  0.00  0.00     0.028 H 
ATOM     38  H15 non d ame     -30.272  13.684  30.034  0.00  0.00     0.028 H 
ENDBRANCH  33  35
BRANCH  33  39
ATOM     39  C13 non d ame     -31.460  15.932  30.070  0.00  0.00    -0.071 C 
ATOM     40  H16 non d ame     -30.381  16.070  30.140  0.00  0.00     0.028 H 
ATOM     41  H17 non d ame     -31.931  16.877  29.797  0.00  0.00     0.028 H 
ATOM     42  H18 non d ame     -31.848  15.598  31.032  0.00  0.00     0.028 H 
ENDBRANCH  33  39
ENDBRANCH   7  33
ENDBRANCH   4   7
ENDBRANCH   1   3
BRANCH   1  43
ATOM     43  C15 non d ame     -31.519  11.644  25.192  0.00  0.00     0.240 C 
ATOM     44  O5  non d ame     -30.512  11.030  25.338  0.00  0.00    -0.271 OA
ATOM     45  N6  non d ame     -32.807  11.086  25.693  0.00  0.00    -0.355 N 
ATOM     46  H46 non d ame     -33.669  11.601  25.579  0.00  0.00     0.162 HD
BRANCH  45  47
ATOM     47  C20 non d ame     -32.823   9.767  26.362  0.00  0.00     0.013 C 
ATOM     48  H30 non d ame     -31.846   9.611  26.818  0.00  0.00     0.072 H 
BRANCH  47  49
ATOM     49  C21 non d ame     -33.094   8.690  25.336  0.00  0.00    -0.038 C 
ATOM     50  H31 non d ame     -34.129   8.833  25.024  0.00  0.00     0.036 H 
ATOM     51  H32 non d ame     -32.288   8.769  24.607  0.00  0.00     0.036 H 
BRANCH  49  52
ATOM     52  C22 non d ame     -33.009   7.265  25.927  0.00  0.00     0.018 C 
ATOM     53  H33 non d ame     -32.316   6.721  25.287  0.00  0.00     0.048 H 
ATOM     54  H34 non d ame     -32.785   7.398  26.986  0.00  0.00     0.048 H 
BRANCH  52  55
ATOM     55  C23 non d ame     -34.350   6.483  25.868  0.00  0.00     0.259 C 
ATOM     56  O7  non d ame     -35.243   6.865  25.184  0.00  0.00    -0.265 OA
BRANCH  55  57
ATOM     57  O8  non d ame     -34.506   5.307  26.654  0.00  0.00    -0.317 OA
BRANCH  57  58
ATOM     58  C29 non d ame     -33.299   4.860  27.278  0.00  0.00     0.052 C 
ATOM     59  H47 non d ame     -33.130   3.850  26.905  0.00  0.00     0.082 H 
ATOM     60  H48 non d ame     -32.562   5.640  27.088  0.00  0.00     0.082 H 
BRANCH  58  61
ATOM     61  C35 non d ame     -33.550   4.784  28.808  0.00  0.00    -0.034 A 
ATOM     62  C30 non d ame     -32.709   4.024  29.615  0.00  0.00    -0.075 A 
ATOM     63  C31 non d ame     -32.935   3.955  30.989  0.00  0.00    -0.082 A 
ATOM     64  H49 non d ame     -31.874   3.482  29.171  0.00  0.00     0.084 H 
ATOM     65  C32 non d ame     -34.009   4.648  31.555  0.00  0.00    -0.083 A 
ATOM     66  H50 non d ame     -32.274   3.361  31.619  0.00  0.00     0.083 H 
ATOM     67  C33 non d ame     -34.847   5.402  30.745  0.00  0.00    -0.082 A 
ATOM     68  H51 non d ame     -34.192   4.600  32.628  0.00  0.00     0.083 H 
ATOM     69  C34 non d ame     -34.624   5.476  29.372  0.00  0.00    -0.075 A 
ATOM     70  H52 non d ame     -35.685   5.940  31.189  0.00  0.00     0.083 H 
ATOM     71  H53 non d ame     -35.286   6.071  28.742  0.00  0.00     0.084 H 
ENDBRANCH  58  61
ENDBRANCH  57  58
ENDBRANCH  55  57
ENDBRANCH  52  55
ENDBRANCH  49  52
ENDBRANCH  47  49
BRANCH  47  72
ATOM     72  C24 non d ame     -33.916   9.742  27.428  0.00  0.00    -0.039 C 
ATOM     73  H35 non d ame     -34.528  10.625  27.238  0.00  0.00     0.036 H 
ATOM     74  H36 non d ame     -34.360   8.749  27.366  0.00  0.00     0.036 H 
BRANCH  72  75
ATOM     75  C25 non d ame     -33.310   9.898  28.903  0.00  0.00    -0.001 C 
ATOM     76  C26 non d ame     -34.070   8.866  29.933  0.00  0.00    -0.035 C 
ATOM     77  C27 non d ame     -34.494   9.563  31.014  0.00  0.00     0.085 C 
ATOM     78  H38 non d ame     -34.995   8.504  29.484  0.00  0.00     0.036 H 
ATOM     79  H39 non d ame     -33.354   8.158  30.351  0.00  0.00     0.036 H 
ATOM     80  N5  non d ame     -34.382  11.028  30.667  0.00  0.00    -0.049 N 
ATOM     81  H40 non d ame     -35.547   9.305  31.132  0.00  0.00     0.075 H 
ATOM     82  H41 non d ame     -33.784   9.331  31.807  0.00  0.00     0.075 H 
ATOM     83  C28 non d ame     -33.459  11.102  29.345  0.00  0.00     0.193 C 
ATOM     84  H42 non d ame     -35.313  11.337  30.426  0.00  0.00     0.280 HD
ATOM     85  H43 non d ame     -33.887  11.465  31.431  0.00  0.00     0.280 HD
ATOM     86  H44 non d ame     -32.417  11.418  29.414  0.00  0.00     0.129 H 
ATOM     87  H37 non d ame     -32.219   9.886  28.904  0.00  0.00     0.046 H 
BRANCH  83  88
ATOM     88  O6  non d ame     -34.056  11.963  28.374  0.00  0.00    -0.369 OA
ATOM     89  H45 non d ame     -34.828  12.388  28.755  0.00  0.00     0.212 HD
ENDBRANCH  83  88
ENDBRANCH  72  75
ENDBRANCH  47  72
ENDBRANCH  45  47
ENDBRANCH   1  43
BRANCH   1  90
ATOM     90  C16 non d ame     -30.429  13.022  23.392  0.00  0.00    -0.035 C 
ATOM     91  H21 non d ame     -29.558  12.539  23.835  0.00  0.00     0.037 H 
ATOM     92  H22 non d ame     -30.917  12.576  22.525  0.00  0.00     0.037 H 
BRANCH  90  93
ATOM     93  C17 non d ame     -29.968  14.448  22.955  0.00  0.00    -0.059 C 
ATOM     94  H23 non d ame     -29.984  15.086  23.839  0.00  0.00     0.038 H 
BRANCH  93  95
ATOM     95  C18 non d ame     -28.510  14.450  22.393  0.00  0.00    -0.073 C 
ATOM     96  H24 non d ame     -28.443  15.146  21.558  0.00  0.00     0.028 H 
ATOM     97  H25 non d ame     -27.818  14.756  23.177  0.00  0.00     0.028 H 
ATOM     98  H26 non d ame     -28.251  13.447  22.052  0.00  0.00     0.028 H 
ENDBRANCH  93  95
BRANCH  93  99
ATOM     99  C19 non d ame     -30.943  15.051  21.941  0.00  0.00    -0.073 C 
ATOM    100  H27 non d ame     -30.564  16.016  21.601  0.00  0.00     0.028 H 
ATOM    101  H28 non d ame     -31.043  14.380  21.088  0.00  0.00     0.028 H 
ATOM    102  H29 non d ame     -31.917  15.189  22.410  0.00  0.00     0.028 H 
ENDBRANCH  93  99
ENDBRANCH  90  93
ENDBRANCH   1  90
TORSDOF 26
ENDMDL
MODEL 14
REMARK VINA RESULT:      -6.7      3.387      7.291
REMARK  26 active torsions:
REMARK  status: ('A' for Active; 'I' for Inactive)
REMARK    1  A    between atoms: C2_2  and  C3_3 
REMARK    2  A    between atoms: C4_6  and  C5_7 
REMARK       I    between atoms: C5_7  and  N2_9 
REMARK    3  A    between atoms: N2_9  and  C6_10 
REMARK    4  A    between atoms: C6_10  and  C7_11 
REMARK    5  A    between atoms: C6_10  and  C8_13 
REMARK       I    between atoms: C7_11  and  N3_14 
REMARK    6  A    between atoms: N3_14  and  C9_15 
REMARK    7  A    between atoms: C9_15  and  C10_16 
REMARK    8  A    between atoms: C9_15  and  C11_18 
REMARK       I    between atoms: C10_16  and  N4_21 
REMARK    9  A    between atoms: C11_18  and  C12_19 
REMARK   10  A    between atoms: C11_18  and  C13_20 
REMARK   11  A    between atoms: N4_21  and  C14_22 
REMARK   12  A    between atoms: C14_22  and  C15_23 
REMARK   13  A    between atoms: C14_22  and  C16_25 
REMARK       I    between atoms: C15_23  and  N6_40 
REMARK   14  A    between atoms: C16_25  and  C17_26 
REMARK   15  A    between atoms: C17_26  and  C18_27 
REMARK   16  A    between atoms: C17_26  and  C19_28 
REMARK   17  A    between atoms: C20_29  and  C21_30 
REMARK   18  A    between atoms: C20_29  and  C24_33 
REMARK   19  A    between atoms: C20_29  and  N6_40 
REMARK   20  A    between atoms: C21_30  and  C22_31 
REMARK   21  A    between atoms: C22_31  and  C23_32 
REMARK   22  A    between atoms: C23_32  and  O8_43 
REMARK   23  A    between atoms: C24_33  and  C25_34 
REMARK   24  A    between atoms: C28_38  and  O6_39 
REMARK   25  A    between atoms: C29_42  and  O8_43 
REMARK   26  A    between atoms: C29_42  and  C35_49 
ROOT
ATOM      1  C14 non d ame     -33.189  12.415  28.591  0.00  0.00     0.089 C 
ATOM      2  H20 non d ame     -33.217  12.891  29.571  0.00  0.00     0.087 H 
ENDROOT
BRANCH   1   3
ATOM      3  N4  non d ame     -34.121  11.297  28.620  0.00  0.00    -0.346 N 
ATOM      4  C10 non d ame     -34.477  10.637  29.928  0.00  0.00     0.241 C 
ATOM      5  O4  non d ame     -33.999  11.022  30.944  0.00  0.00    -0.271 OA
ATOM      6  H19 non d ame     -34.514  10.984  27.744  0.00  0.00     0.163 HD
BRANCH   4   7
ATOM      7  C9  non d ame     -35.447   9.485  29.941  0.00  0.00     0.092 C 
ATOM      8  H11 non d ame     -36.393   9.808  29.507  0.00  0.00     0.088 H 
BRANCH   7   9
ATOM      9  N3  non d ame     -34.931   8.402  29.098  0.00  0.00    -0.346 N 
ATOM     10  C7  non d ame     -35.414   8.249  27.747  0.00  0.00     0.240 C 
ATOM     11  O3  non d ame     -36.217   8.986  27.323  0.00  0.00    -0.271 OA
ATOM     12  H10 non d ame     -34.239   7.757  29.450  0.00  0.00     0.163 HD
BRANCH  10  13
ATOM     13  C6  non d ame     -34.863   7.093  26.856  0.00  0.00     0.086 C 
ATOM     14  H6  non d ame     -35.654   6.493  26.407  0.00  0.00     0.086 H 
BRANCH  13  15
ATOM     15  N2  non d ame     -34.102   7.665  25.758  0.00  0.00    -0.343 N 
ATOM     16  C5  non d ame     -33.002   8.587  26.046  0.00  0.00     0.273 C 
ATOM     17  O2  non d ame     -32.738   8.864  27.165  0.00  0.00    -0.266 OA
ATOM     18  H5  non d ame     -34.336   7.426  24.804  0.00  0.00     0.163 HD
BRANCH  16  19
ATOM     19  C4  non d ame     -32.188   9.199  24.895  0.00  0.00     0.154 A 
ATOM     20  C1  non d ame     -31.443   8.498  23.895  0.00  0.00    -0.017 A 
ATOM     21  C2  non d ame     -30.886   9.509  23.081  0.00  0.00     0.077 A 
ATOM     22  H1  non d ame     -31.325   7.421  23.777  0.00  0.00     0.091 H 
ATOM     23  O1  non d ame     -31.272  10.653  23.565  0.00  0.00    -0.218 OA
ATOM     24  N1  non d ame     -32.033  10.498  24.624  0.00  0.00    -0.123 NA
BRANCH  21  25
ATOM     25  C3  non d ame     -29.998   9.298  21.862  0.00  0.00    -0.029 C 
ATOM     26  H2  non d ame     -30.604   8.950  21.026  0.00  0.00     0.036 H 
ATOM     27  H3  non d ame     -29.518  10.240  21.595  0.00  0.00     0.036 H 
ATOM     28  H4  non d ame     -29.235   8.555  22.092  0.00  0.00     0.036 H 
ENDBRANCH  21  25
ENDBRANCH  16  19
ENDBRANCH  13  15
BRANCH  13  29
ATOM     29  C8  non d ame     -33.979   6.194  27.683  0.00  0.00    -0.049 C 
ATOM     30  H7  non d ame     -33.650   6.728  28.574  0.00  0.00     0.030 H 
ATOM     31  H8  non d ame     -34.539   5.306  27.977  0.00  0.00     0.030 H 
ATOM     32  H9  non d ame     -33.110   5.898  27.095  0.00  0.00     0.030 H 
ENDBRANCH  13  29
ENDBRANCH  10  13
ENDBRANCH   7   9
BRANCH   7  33
ATOM     33  C11 non d ame     -35.618   8.967  31.399  0.00  0.00    -0.033 C 
ATOM     34  H12 non d ame     -35.204   9.722  32.067  0.00  0.00     0.042 H 
BRANCH  33  35
ATOM     35  C12 non d ame     -37.124   8.789  31.766  0.00  0.00    -0.071 C 
ATOM     36  H13 non d ame     -37.509   9.721  32.182  0.00  0.00     0.028 H 
ATOM     37  H14 non d ame     -37.688   8.530  30.871  0.00  0.00     0.028 H 
ATOM     38  H15 non d ame     -37.226   7.994  32.504  0.00  0.00     0.028 H 
ENDBRANCH  33  35
BRANCH  33  39
ATOM     39  C13 non d ame     -34.821   7.641  31.618  0.00  0.00    -0.071 C 
ATOM     40  H16 non d ame     -35.373   6.809  31.179  0.00  0.00     0.028 H 
ATOM     41  H17 non d ame     -33.844   7.721  31.142  0.00  0.00     0.028 H 
ATOM     42  H18 non d ame     -34.690   7.467  32.686  0.00  0.00     0.028 H 
ENDBRANCH  33  39
ENDBRANCH   7  33
ENDBRANCH   4   7
ENDBRANCH   1   3
BRANCH   1  43
ATOM     43  C15 non d ame     -33.618  13.387  27.454  0.00  0.00     0.240 C 
ATOM     44  O5  non d ame     -33.000  13.419  26.439  0.00  0.00    -0.271 OA
ATOM     45  N6  non d ame     -34.805  14.272  27.627  0.00  0.00    -0.355 N 
ATOM     46  H46 non d ame     -35.341  14.250  28.482  0.00  0.00     0.162 HD
BRANCH  45  47
ATOM     47  C20 non d ame     -35.200  15.189  26.536  0.00  0.00     0.013 C 
ATOM     48  H30 non d ame     -34.509  15.041  25.706  0.00  0.00     0.072 H 
BRANCH  47  49
ATOM     49  C21 non d ame     -35.118  16.616  27.029  0.00  0.00    -0.038 C 
ATOM     50  H31 non d ame     -36.074  17.073  26.770  0.00  0.00     0.036 H 
ATOM     51  H32 non d ame     -34.810  16.550  28.072  0.00  0.00     0.036 H 
BRANCH  49  52
ATOM     52  C22 non d ame     -34.031  17.439  26.304  0.00  0.00     0.018 C 
ATOM     53  H33 non d ame     -34.184  17.258  25.241  0.00  0.00     0.048 H 
ATOM     54  H34 non d ame     -34.111  18.450  26.703  0.00  0.00     0.048 H 
BRANCH  52  55
ATOM     55  C23 non d ame     -32.581  16.971  26.613  0.00  0.00     0.259 C 
ATOM     56  O7  non d ame     -32.187  16.929  27.733  0.00  0.00    -0.265 OA
BRANCH  55  57
ATOM     57  O8  non d ame     -31.724  16.604  25.539  0.00  0.00    -0.317 OA
BRANCH  57  58
ATOM     58  C29 non d ame     -32.413  16.275  24.330  0.00  0.00     0.052 C 
ATOM     59  H47 non d ame     -33.164  15.536  24.610  0.00  0.00     0.082 H 
ATOM     60  H48 non d ame     -32.720  17.226  23.897  0.00  0.00     0.082 H 
BRANCH  58  61
ATOM     61  C35 non d ame     -31.397  15.603  23.368  0.00  0.00    -0.034 A 
ATOM     62  C30 non d ame     -31.064  16.219  22.166  0.00  0.00    -0.075 A 
ATOM     63  C31 non d ame     -30.152  15.615  21.301  0.00  0.00    -0.082 A 
ATOM     64  H49 non d ame     -31.518  17.174  21.901  0.00  0.00     0.084 H 
ATOM     65  C32 non d ame     -29.575  14.389  21.641  0.00  0.00    -0.083 A 
ATOM     66  H50 non d ame     -29.892  16.101  20.360  0.00  0.00     0.083 H 
ATOM     67  C33 non d ame     -29.913  13.776  22.841  0.00  0.00    -0.082 A 
ATOM     68  H51 non d ame     -28.860  13.910  20.972  0.00  0.00     0.083 H 
ATOM     69  C34 non d ame     -30.822  14.377  23.709  0.00  0.00    -0.075 A 
ATOM     70  H52 non d ame     -29.462  12.819  23.102  0.00  0.00     0.083 H 
ATOM     71  H53 non d ame     -31.082  13.890  24.649  0.00  0.00     0.084 H 
ENDBRANCH  58  61
ENDBRANCH  57  58
ENDBRANCH  55  57
ENDBRANCH  52  55
ENDBRANCH  49  52
ENDBRANCH  47  49
BRANCH  47  72
ATOM     72  C24 non d ame     -36.630  14.883  26.096  0.00  0.00    -0.039 C 
ATOM     73  H35 non d ame     -37.190  14.723  27.019  0.00  0.00     0.036 H 
ATOM     74  H36 non d ame     -36.908  15.695  25.424  0.00  0.00     0.036 H 
BRANCH  72  75
ATOM     75  C25 non d ame     -36.713  13.523  25.253  0.00  0.00    -0.001 C 
ATOM     76  C26 non d ame     -37.069  13.859  23.683  0.00  0.00    -0.035 C 
ATOM     77  C27 non d ame     -38.122  13.096  23.302  0.00  0.00     0.085 C 
ATOM     78  H38 non d ame     -37.447  14.877  23.595  0.00  0.00     0.036 H 
ATOM     79  H39 non d ame     -36.261  13.519  23.035  0.00  0.00     0.036 H 
ATOM     80  N5  non d ame     -38.722  12.512  24.558  0.00  0.00    -0.049 N 
ATOM     81  H40 non d ame     -38.835  13.787  22.855  0.00  0.00     0.075 H 
ATOM     82  H41 non d ame     -37.696  12.290  22.705  0.00  0.00     0.075 H 
ATOM     83  C28 non d ame     -37.624  12.737  25.721  0.00  0.00     0.193 C 
ATOM     84  H42 non d ame     -39.536  13.070  24.772  0.00  0.00     0.280 HD
ATOM     85  H43 non d ame     -38.818  11.520  24.394  0.00  0.00     0.280 HD
ATOM     86  H44 non d ame     -37.010  11.907  26.071  0.00  0.00     0.129 H 
ATOM     87  H37 non d ame     -35.860  12.869  25.439  0.00  0.00     0.046 H 
BRANCH  83  88
ATOM     88  O6  non d ame     -38.248  13.271  26.890  0.00  0.00    -0.369 OA
ATOM     89  H45 non d ame     -37.670  13.925  27.291  0.00  0.00     0.212 HD
ENDBRANCH  83  88
ENDBRANCH  72  75
ENDBRANCH  47  72
ENDBRANCH  45  47
ENDBRANCH   1  43
BRANCH   1  90
ATOM     90  C16 non d ame     -31.791  11.889  28.313  0.00  0.00    -0.035 C 
ATOM     91  H21 non d ame     -31.817  10.836  28.594  0.00  0.00     0.037 H 
ATOM     92  H22 non d ame     -31.575  12.173  27.283  0.00  0.00     0.037 H 
BRANCH  90  93
ATOM     93  C17 non d ame     -30.685  12.552  29.195  0.00  0.00    -0.059 C 
ATOM     94  H23 non d ame     -29.780  11.953  29.096  0.00  0.00     0.038 H 
BRANCH  93  95
ATOM     95  C18 non d ame     -30.349  14.004  28.725  0.00  0.00    -0.073 C 
ATOM     96  H24 non d ame     -29.840  13.966  27.762  0.00  0.00     0.028 H 
ATOM     97  H25 non d ame     -31.270  14.576  28.625  0.00  0.00     0.028 H 
ATOM     98  H26 non d ame     -29.701  14.482  29.459  0.00  0.00     0.028 H 
ENDBRANCH  93  95
BRANCH  93  99
ATOM     99  C19 non d ame     -31.082  12.536  30.673  0.00  0.00    -0.073 C 
ATOM    100  H27 non d ame     -30.700  13.433  31.162  0.00  0.00     0.028 H 
ATOM    101  H28 non d ame     -32.169  12.512  30.758  0.00  0.00     0.028 H 
ATOM    102  H29 non d ame     -30.661  11.653  31.153  0.00  0.00     0.028 H 
ENDBRANCH  93  99
ENDBRANCH  90  93
ENDBRANCH   1  90
TORSDOF 26
ENDMDL
MODEL 15
REMARK VINA RESULT:      -6.7      3.662      8.306
REMARK  26 active torsions:
REMARK  status: ('A' for Active; 'I' for Inactive)
REMARK    1  A    between atoms: C2_2  and  C3_3 
REMARK    2  A    between atoms: C4_6  and  C5_7 
REMARK       I    between atoms: C5_7  and  N2_9 
REMARK    3  A    between atoms: N2_9  and  C6_10 
REMARK    4  A    between atoms: C6_10  and  C7_11 
REMARK    5  A    between atoms: C6_10  and  C8_13 
REMARK       I    between atoms: C7_11  and  N3_14 
REMARK    6  A    between atoms: N3_14  and  C9_15 
REMARK    7  A    between atoms: C9_15  and  C10_16 
REMARK    8  A    between atoms: C9_15  and  C11_18 
REMARK       I    between atoms: C10_16  and  N4_21 
REMARK    9  A    between atoms: C11_18  and  C12_19 
REMARK   10  A    between atoms: C11_18  and  C13_20 
REMARK   11  A    between atoms: N4_21  and  C14_22 
REMARK   12  A    between atoms: C14_22  and  C15_23 
REMARK   13  A    between atoms: C14_22  and  C16_25 
REMARK       I    between atoms: C15_23  and  N6_40 
REMARK   14  A    between atoms: C16_25  and  C17_26 
REMARK   15  A    between atoms: C17_26  and  C18_27 
REMARK   16  A    between atoms: C17_26  and  C19_28 
REMARK   17  A    between atoms: C20_29  and  C21_30 
REMARK   18  A    between atoms: C20_29  and  C24_33 
REMARK   19  A    between atoms: C20_29  and  N6_40 
REMARK   20  A    between atoms: C21_30  and  C22_31 
REMARK   21  A    between atoms: C22_31  and  C23_32 
REMARK   22  A    between atoms: C23_32  and  O8_43 
REMARK   23  A    between atoms: C24_33  and  C25_34 
REMARK   24  A    between atoms: C28_38  and  O6_39 
REMARK   25  A    between atoms: C29_42  and  O8_43 
REMARK   26  A    between atoms: C29_42  and  C35_49 
ROOT
ATOM      1  C14 non d ame     -31.726  12.619  27.802  0.00  0.00     0.089 C 
ATOM      2  H20 non d ame     -32.701  12.673  28.286  0.00  0.00     0.087 H 
ENDROOT
BRANCH   1   3
ATOM      3  N4  non d ame     -31.698  11.402  27.005  0.00  0.00    -0.346 N 
ATOM      4  C10 non d ame     -32.629  10.260  27.327  0.00  0.00     0.241 C 
ATOM      5  O4  non d ame     -33.389  10.343  28.235  0.00  0.00    -0.271 OA
ATOM      6  H19 non d ame     -31.042  11.350  26.238  0.00  0.00     0.163 HD
BRANCH   4   7
ATOM      7  C9  non d ame     -32.591   9.009  26.489  0.00  0.00     0.092 C 
ATOM      8  H11 non d ame     -31.558   8.676  26.389  0.00  0.00     0.088 H 
BRANCH   7   9
ATOM      9  N3  non d ame     -33.327   7.940  27.171  0.00  0.00    -0.346 N 
ATOM     10  C7  non d ame     -32.757   6.618  27.263  0.00  0.00     0.240 C 
ATOM     11  O3  non d ame     -31.709   6.397  26.793  0.00  0.00    -0.271 OA
ATOM     12  H10 non d ame     -34.233   8.116  27.580  0.00  0.00     0.163 HD
BRANCH  10  13
ATOM     13  C6  non d ame     -33.547   5.484  27.988  0.00  0.00     0.086 C 
ATOM     14  H6  non d ame     -33.011   5.080  28.846  0.00  0.00     0.086 H 
BRANCH  13  15
ATOM     15  N2  non d ame     -34.795   6.029  28.495  0.00  0.00    -0.343 N 
ATOM     16  C5  non d ame     -35.113   5.899  29.919  0.00  0.00     0.273 C 
ATOM     17  O2  non d ame     -34.359   5.351  30.647  0.00  0.00    -0.266 OA
ATOM     18  H5  non d ame     -35.435   6.493  27.866  0.00  0.00     0.163 HD
BRANCH  16  19
ATOM     19  C4  non d ame     -36.428   6.471  30.470  0.00  0.00     0.154 A 
ATOM     20  C1  non d ame     -36.824   7.846  30.508  0.00  0.00    -0.017 A 
ATOM     21  C2  non d ame     -38.105   7.839  31.104  0.00  0.00     0.077 A 
ATOM     22  H1  non d ame     -36.267   8.715  30.158  0.00  0.00     0.091 H 
ATOM     23  O1  non d ame     -38.401   6.601  31.371  0.00  0.00    -0.218 OA
ATOM     24  N1  non d ame     -37.438   5.784  31.010  0.00  0.00    -0.123 NA
BRANCH  21  25
ATOM     25  C3  non d ame     -38.977   9.057  31.381  0.00  0.00    -0.029 C 
ATOM     26  H2  non d ame     -39.358   9.007  32.400  0.00  0.00     0.036 H 
ATOM     27  H3  non d ame     -38.384   9.963  31.259  0.00  0.00     0.036 H 
ATOM     28  H4  non d ame     -39.812   9.073  30.680  0.00  0.00     0.036 H 
ENDBRANCH  21  25
ENDBRANCH  16  19
ENDBRANCH  13  15
BRANCH  13  29
ATOM     29  C8  non d ame     -33.829   4.365  27.017  0.00  0.00    -0.049 C 
ATOM     30  H7  non d ame     -34.800   4.526  26.550  0.00  0.00     0.030 H 
ATOM     31  H8  non d ame     -33.055   4.347  26.250  0.00  0.00     0.030 H 
ATOM     32  H9  non d ame     -33.834   3.414  27.551  0.00  0.00     0.030 H 
ENDBRANCH  13  29
ENDBRANCH  10  13
ENDBRANCH   7   9
BRANCH   7  33
ATOM     33  C11 non d ame     -33.252   9.290  25.108  0.00  0.00    -0.033 C 
ATOM     34  H12 non d ame     -33.793  10.233  25.188  0.00  0.00     0.042 H 
BRANCH  33  35
ATOM     35  C12 non d ame     -32.178   9.461  23.988  0.00  0.00    -0.071 C 
ATOM     36  H13 non d ame     -31.292   9.940  24.404  0.00  0.00     0.028 H 
ATOM     37  H14 non d ame     -31.909   8.482  23.591  0.00  0.00     0.028 H 
ATOM     38  H15 non d ame     -32.583  10.079  23.188  0.00  0.00     0.028 H 
ENDBRANCH  33  35
BRANCH  33  39
ATOM     39  C13 non d ame     -34.280   8.172  24.741  0.00  0.00    -0.071 C 
ATOM     40  H16 non d ame     -33.995   7.242  25.233  0.00  0.00     0.028 H 
ATOM     41  H17 non d ame     -35.275   8.470  25.074  0.00  0.00     0.028 H 
ATOM     42  H18 non d ame     -34.287   8.025  23.661  0.00  0.00     0.028 H 
ENDBRANCH  33  39
ENDBRANCH   7  33
ENDBRANCH   4   7
ENDBRANCH   1   3
BRANCH   1  43
ATOM     43  C15 non d ame     -31.469  13.832  26.862  0.00  0.00     0.240 C 
ATOM     44  O5  non d ame     -30.356  14.195  26.655  0.00  0.00    -0.271 OA
ATOM     45  N6  non d ame     -32.611  14.536  26.212  0.00  0.00    -0.355 N 
ATOM     46  H46 non d ame     -33.561  14.234  26.376  0.00  0.00     0.162 HD
BRANCH  45  47
ATOM     47  C20 non d ame     -32.350  15.687  25.319  0.00  0.00     0.013 C 
ATOM     48  H30 non d ame     -31.392  16.121  25.604  0.00  0.00     0.072 H 
BRANCH  47  49
ATOM     49  C21 non d ame     -33.452  16.709  25.488  0.00  0.00    -0.038 C 
ATOM     50  H31 non d ame     -33.875  16.853  24.493  0.00  0.00     0.036 H 
ATOM     51  H32 non d ame     -34.078  16.336  26.298  0.00  0.00     0.036 H 
BRANCH  49  52
ATOM     52  C22 non d ame     -32.925  18.088  25.942  0.00  0.00     0.018 C 
ATOM     53  H33 non d ame     -31.847  17.972  26.046  0.00  0.00     0.048 H 
ATOM     54  H34 non d ame     -33.330  18.808  25.230  0.00  0.00     0.048 H 
BRANCH  52  55
ATOM     55  C23 non d ame     -33.445  18.528  27.339  0.00  0.00     0.259 C 
ATOM     56  O7  non d ame     -33.209  17.875  28.303  0.00  0.00    -0.265 OA
BRANCH  55  57
ATOM     57  O8  non d ame     -34.220  19.715  27.451  0.00  0.00    -0.317 OA
BRANCH  57  58
ATOM     58  C29 non d ame     -35.572  19.491  27.859  0.00  0.00     0.052 C 
ATOM     59  H47 non d ame     -35.671  18.412  27.973  0.00  0.00     0.082 H 
ATOM     60  H48 non d ame     -35.735  20.147  28.715  0.00  0.00     0.082 H 
BRANCH  58  61
ATOM     61  C35 non d ame     -36.503  19.951  26.705  0.00  0.00    -0.034 A 
ATOM     62  C30 non d ame     -36.183  19.641  25.387  0.00  0.00    -0.075 A 
ATOM     63  C31 non d ame     -37.018  20.054  24.350  0.00  0.00    -0.082 A 
ATOM     64  H49 non d ame     -35.278  19.076  25.166  0.00  0.00     0.084 H 
ATOM     65  C32 non d ame     -38.177  20.782  24.636  0.00  0.00    -0.083 A 
ATOM     66  H50 non d ame     -36.766  19.808  23.319  0.00  0.00     0.083 H 
ATOM     67  C33 non d ame     -38.490  21.091  25.952  0.00  0.00    -0.082 A 
ATOM     68  H51 non d ame     -38.836  21.108  23.831  0.00  0.00     0.083 H 
ATOM     69  C34 non d ame     -37.659  20.679  26.992  0.00  0.00    -0.075 A 
ATOM     70  H52 non d ame     -39.394  21.661  26.171  0.00  0.00     0.083 H 
ATOM     71  H53 non d ame     -37.913  20.925  28.023  0.00  0.00     0.084 H 
ENDBRANCH  58  61
ENDBRANCH  57  58
ENDBRANCH  55  57
ENDBRANCH  52  55
ENDBRANCH  49  52
ENDBRANCH  47  49
BRANCH  47  72
ATOM     72  C24 non d ame     -32.310  15.215  23.867  0.00  0.00    -0.039 C 
ATOM     73  H35 non d ame     -32.527  14.147  23.903  0.00  0.00     0.036 H 
ATOM     74  H36 non d ame     -32.974  15.888  23.325  0.00  0.00     0.036 H 
BRANCH  72  75
ATOM     75  C25 non d ame     -30.848  15.380  23.232  0.00  0.00    -0.001 C 
ATOM     76  C26 non d ame     -30.960  16.062  21.740  0.00  0.00    -0.035 C 
ATOM     77  C27 non d ame     -30.269  15.301  20.858  0.00  0.00     0.085 C 
ATOM     78  H38 non d ame     -31.986  16.003  21.378  0.00  0.00     0.036 H 
ATOM     79  H39 non d ame     -30.430  17.015  21.724  0.00  0.00     0.036 H 
ATOM     80  N5  non d ame     -29.971  13.990  21.546  0.00  0.00    -0.049 N 
ATOM     81  H40 non d ame     -30.954  15.120  20.030  0.00  0.00     0.075 H 
ATOM     82  H41 non d ame     -29.334  15.832  20.686  0.00  0.00     0.075 H 
ATOM     83  C28 non d ame     -30.258  14.237  23.116  0.00  0.00     0.193 C 
ATOM     84  H42 non d ame     -30.644  13.324  21.197  0.00  0.00     0.280 HD
ATOM     85  H43 non d ame     -28.982  13.822  21.423  0.00  0.00     0.280 HD
ATOM     86  H44 non d ame     -29.433  14.369  23.816  0.00  0.00     0.129 H 
ATOM     87  H37 non d ame     -30.142  15.828  23.931  0.00  0.00     0.046 H 
BRANCH  83  88
ATOM     88  O6  non d ame     -31.043  13.168  23.647  0.00  0.00    -0.369 OA
ATOM     89  H45 non d ame     -31.973  13.340  23.479  0.00  0.00     0.212 HD
ENDBRANCH  83  88
ENDBRANCH  72  75
ENDBRANCH  47  72
ENDBRANCH  45  47
ENDBRANCH   1  43
BRANCH   1  90
ATOM     90  C16 non d ame     -30.632  12.548  28.854  0.00  0.00    -0.035 C 
ATOM     91  H21 non d ame     -30.450  11.485  29.011  0.00  0.00     0.037 H 
ATOM     92  H22 non d ame     -29.831  13.189  28.483  0.00  0.00     0.037 H 
BRANCH  90  93
ATOM     93  C17 non d ame     -31.056  13.131  30.240  0.00  0.00    -0.059 C 
ATOM     94  H23 non d ame     -30.315  12.813  30.973  0.00  0.00     0.038 H 
BRANCH  93  95
ATOM     95  C18 non d ame     -31.085  14.693  30.238  0.00  0.00    -0.073 C 
ATOM     96  H24 non d ame     -30.131  15.074  29.877  0.00  0.00     0.028 H 
ATOM     97  H25 non d ame     -31.885  15.041  29.585  0.00  0.00     0.028 H 
ATOM     98  H26 non d ame     -31.261  15.054  31.251  0.00  0.00     0.028 H 
ENDBRANCH  93  95
BRANCH  93  99
ATOM     99  C19 non d ame     -32.407  12.562  30.682  0.00  0.00    -0.073 C 
ATOM    100  H27 non d ame     -32.687  11.739  30.024  0.00  0.00     0.028 H 
ATOM    101  H28 non d ame     -32.330  12.197  31.707  0.00  0.00     0.028 H 
ATOM    102  H29 non d ame     -33.165  13.343  30.630  0.00  0.00     0.028 H 
ENDBRANCH  93  99
ENDBRANCH  90  93
ENDBRANCH   1  90
TORSDOF 26
ENDMDL
MODEL 16
REMARK VINA RESULT:      -6.7      3.032      9.933
REMARK  26 active torsions:
REMARK  status: ('A' for Active; 'I' for Inactive)
REMARK    1  A    between atoms: C2_2  and  C3_3 
REMARK    2  A    between atoms: C4_6  and  C5_7 
REMARK       I    between atoms: C5_7  and  N2_9 
REMARK    3  A    between atoms: N2_9  and  C6_10 
REMARK    4  A    between atoms: C6_10  and  C7_11 
REMARK    5  A    between atoms: C6_10  and  C8_13 
REMARK       I    between atoms: C7_11  and  N3_14 
REMARK    6  A    between atoms: N3_14  and  C9_15 
REMARK    7  A    between atoms: C9_15  and  C10_16 
REMARK    8  A    between atoms: C9_15  and  C11_18 
REMARK       I    between atoms: C10_16  and  N4_21 
REMARK    9  A    between atoms: C11_18  and  C12_19 
REMARK   10  A    between atoms: C11_18  and  C13_20 
REMARK   11  A    between atoms: N4_21  and  C14_22 
REMARK   12  A    between atoms: C14_22  and  C15_23 
REMARK   13  A    between atoms: C14_22  and  C16_25 
REMARK       I    between atoms: C15_23  and  N6_40 
REMARK   14  A    between atoms: C16_25  and  C17_26 
REMARK   15  A    between atoms: C17_26  and  C18_27 
REMARK   16  A    between atoms: C17_26  and  C19_28 
REMARK   17  A    between atoms: C20_29  and  C21_30 
REMARK   18  A    between atoms: C20_29  and  C24_33 
REMARK   19  A    between atoms: C20_29  and  N6_40 
REMARK   20  A    between atoms: C21_30  and  C22_31 
REMARK   21  A    between atoms: C22_31  and  C23_32 
REMARK   22  A    between atoms: C23_32  and  O8_43 
REMARK   23  A    between atoms: C24_33  and  C25_34 
REMARK   24  A    between atoms: C28_38  and  O6_39 
REMARK   25  A    between atoms: C29_42  and  O8_43 
REMARK   26  A    between atoms: C29_42  and  C35_49 
ROOT
ATOM      1  C14 non d ame     -32.099  14.281  27.403  0.00  0.00     0.089 C 
ATOM      2  H20 non d ame     -31.079  14.578  27.651  0.00  0.00     0.087 H 
ENDROOT
BRANCH   1   3
ATOM      3  N4  non d ame     -32.886  15.496  27.258  0.00  0.00    -0.346 N 
ATOM      4  C10 non d ame     -32.407  16.613  26.364  0.00  0.00     0.241 C 
ATOM      5  O4  non d ame     -31.382  16.511  25.774  0.00  0.00    -0.271 OA
ATOM      6  H19 non d ame     -33.754  15.564  27.770  0.00  0.00     0.163 HD
BRANCH   4   7
ATOM      7  C9  non d ame     -33.237  17.861  26.222  0.00  0.00     0.092 C 
ATOM      8  H11 non d ame     -33.487  18.007  25.171  0.00  0.00     0.088 H 
BRANCH   7   9
ATOM      9  N3  non d ame     -34.499  17.695  26.949  0.00  0.00    -0.346 N 
ATOM     10  C7  non d ame     -35.740  18.114  26.344  0.00  0.00     0.240 C 
ATOM     11  O3  non d ame     -35.740  18.589  25.274  0.00  0.00    -0.271 OA
ATOM     12  H10 non d ame     -34.514  17.288  27.873  0.00  0.00     0.163 HD
BRANCH  10  13
ATOM     13  C6  non d ame     -37.079  17.937  27.124  0.00  0.00     0.086 C 
ATOM     14  H6  non d ame     -37.923  18.417  26.627  0.00  0.00     0.086 H 
BRANCH  13  15
ATOM     15  N2  non d ame     -37.395  16.521  27.204  0.00  0.00    -0.343 N 
ATOM     16  C5  non d ame     -38.181  15.895  26.138  0.00  0.00     0.273 C 
ATOM     17  O2  non d ame     -38.557  16.541  25.222  0.00  0.00    -0.266 OA
ATOM     18  H5  non d ame     -37.071  15.977  27.992  0.00  0.00     0.163 HD
BRANCH  16  19
ATOM     19  C4  non d ame     -38.520  14.398  26.209  0.00  0.00     0.154 A 
ATOM     20  C1  non d ame     -39.602  13.725  25.559  0.00  0.00    -0.017 A 
ATOM     21  C2  non d ame     -39.472  12.372  25.943  0.00  0.00     0.077 A 
ATOM     22  H1  non d ame     -40.365  14.153  24.908  0.00  0.00     0.091 H 
ATOM     23  O1  non d ame     -38.433  12.288  26.721  0.00  0.00    -0.218 OA
ATOM     24  N1  non d ame     -37.861  13.458  26.892  0.00  0.00    -0.123 NA
BRANCH  21  25
ATOM     25  C3  non d ame     -40.380  11.224  25.522  0.00  0.00    -0.029 C 
ATOM     26  H2  non d ame     -40.188  10.358  26.155  0.00  0.00     0.036 H 
ATOM     27  H3  non d ame     -41.422  11.527  25.629  0.00  0.00     0.036 H 
ATOM     28  H4  non d ame     -40.182  10.966  24.482  0.00  0.00     0.036 H 
ENDBRANCH  21  25
ENDBRANCH  16  19
ENDBRANCH  13  15
BRANCH  13  29
ATOM     29  C8  non d ame     -36.938  18.514  28.509  0.00  0.00    -0.049 C 
ATOM     30  H7  non d ame     -37.224  17.764  29.246  0.00  0.00     0.030 H 
ATOM     31  H8  non d ame     -35.902  18.809  28.675  0.00  0.00     0.030 H 
ATOM     32  H9  non d ame     -37.585  19.386  28.608  0.00  0.00     0.030 H 
ENDBRANCH  13  29
ENDBRANCH  10  13
ENDBRANCH   7   9
BRANCH   7  33
ATOM     33  C11 non d ame     -32.458  19.073  26.812  0.00  0.00    -0.033 C 
ATOM     34  H12 non d ame     -31.408  18.948  26.548  0.00  0.00     0.042 H 
BRANCH  33  35
ATOM     35  C12 non d ame     -32.942  20.419  26.188  0.00  0.00    -0.071 C 
ATOM     36  H13 non d ame     -32.934  20.339  25.101  0.00  0.00     0.028 H 
ATOM     37  H14 non d ame     -33.954  20.634  26.529  0.00  0.00     0.028 H 
ATOM     38  H15 non d ame     -32.275  21.223  26.497  0.00  0.00     0.028 H 
ENDBRANCH  33  35
BRANCH  33  39
ATOM     39  C13 non d ame     -32.564  19.100  28.371  0.00  0.00    -0.071 C 
ATOM     40  H16 non d ame     -31.566  19.188  28.801  0.00  0.00     0.028 H 
ATOM     41  H17 non d ame     -33.170  19.954  28.679  0.00  0.00     0.028 H 
ATOM     42  H18 non d ame     -33.032  18.180  28.719  0.00  0.00     0.028 H 
ENDBRANCH  33  39
ENDBRANCH   7  33
ENDBRANCH   4   7
ENDBRANCH   1   3
BRANCH   1  43
ATOM     43  C15 non d ame     -32.170  13.483  26.069  0.00  0.00     0.240 C 
ATOM     44  O5  non d ame     -33.179  12.937  25.761  0.00  0.00    -0.271 OA
ATOM     45  N6  non d ame     -30.982  13.406  25.173  0.00  0.00    -0.355 N 
ATOM     46  H46 non d ame     -30.120  13.870  25.422  0.00  0.00     0.162 HD
BRANCH  45  47
ATOM     47  C20 non d ame     -31.066  12.645  23.908  0.00  0.00     0.013 C 
ATOM     48  H30 non d ame     -32.092  12.706  23.547  0.00  0.00     0.072 H 
BRANCH  47  49
ATOM     49  C21 non d ame     -30.694  11.202  24.168  0.00  0.00    -0.038 C 
ATOM     50  H31 non d ame     -29.615  11.146  24.026  0.00  0.00     0.036 H 
ATOM     51  H32 non d ame     -31.131  10.956  25.135  0.00  0.00     0.036 H 
BRANCH  49  52
ATOM     52  C22 non d ame     -31.320  10.229  23.145  0.00  0.00     0.018 C 
ATOM     53  H33 non d ame     -31.834   9.471  23.736  0.00  0.00     0.048 H 
ATOM     54  H34 non d ame     -31.882  10.852  22.449  0.00  0.00     0.048 H 
BRANCH  52  55
ATOM     55  C23 non d ame     -30.274   9.465  22.287  0.00  0.00     0.259 C 
ATOM     56  O7  non d ame     -29.190   9.919  22.111  0.00  0.00    -0.265 OA
BRANCH  55  57
ATOM     57  O8  non d ame     -30.630   8.218  21.701  0.00  0.00    -0.317 OA
BRANCH  57  58
ATOM     58  C29 non d ame     -32.038   7.964  21.683  0.00  0.00     0.052 C 
ATOM     59  H47 non d ame     -32.335   7.877  22.729  0.00  0.00     0.082 H 
ATOM     60  H48 non d ame     -32.471   8.744  21.058  0.00  0.00     0.082 H 
BRANCH  58  61
ATOM     61  C35 non d ame     -32.269   6.595  20.991  0.00  0.00    -0.034 A 
ATOM     62  C30 non d ame     -31.755   5.433  21.557  0.00  0.00    -0.075 A 
ATOM     63  C31 non d ame     -31.962   4.202  20.934  0.00  0.00    -0.082 A 
ATOM     64  H49 non d ame     -31.190   5.485  22.487  0.00  0.00     0.084 H 
ATOM     65  C32 non d ame     -32.684   4.137  19.740  0.00  0.00    -0.083 A 
ATOM     66  H50 non d ame     -31.560   3.293  21.381  0.00  0.00     0.083 H 
ATOM     67  C33 non d ame     -33.192   5.301  19.177  0.00  0.00    -0.082 A 
ATOM     68  H51 non d ame     -32.852   3.180  19.247  0.00  0.00     0.083 H 
ATOM     69  C34 non d ame     -32.989   6.532  19.797  0.00  0.00    -0.075 A 
ATOM     70  H52 non d ame     -33.753   5.247  18.244  0.00  0.00     0.083 H 
ATOM     71  H53 non d ame     -33.392   7.441  19.349  0.00  0.00     0.084 H 
ENDBRANCH  58  61
ENDBRANCH  57  58
ENDBRANCH  55  57
ENDBRANCH  52  55
ENDBRANCH  49  52
ENDBRANCH  47  49
BRANCH  47  72
ATOM     72  C24 non d ame     -30.106  13.241  22.881  0.00  0.00    -0.039 C 
ATOM     73  H35 non d ame     -29.124  13.220  23.354  0.00  0.00     0.036 H 
ATOM     74  H36 non d ame     -30.280  12.682  21.962  0.00  0.00     0.036 H 
BRANCH  72  75
ATOM     75  C25 non d ame     -30.447  14.776  22.572  0.00  0.00    -0.001 C 
ATOM     76  C26 non d ame     -31.015  14.925  21.036  0.00  0.00    -0.035 C 
ATOM     77  C27 non d ame     -30.314  15.896  20.403  0.00  0.00     0.085 C 
ATOM     78  H38 non d ame     -30.783  14.028  20.463  0.00  0.00     0.036 H 
ATOM     79  H39 non d ame     -32.034  15.314  21.049  0.00  0.00     0.036 H 
ATOM     80  N5  non d ame     -29.106  16.195  21.258  0.00  0.00    -0.049 N 
ATOM     81  H40 non d ame     -29.984  15.452  19.464  0.00  0.00     0.075 H 
ATOM     82  H41 non d ame     -30.967  16.768  20.394  0.00  0.00     0.075 H 
ATOM     83  C28 non d ame     -29.401  15.522  22.695  0.00  0.00     0.193 C 
ATOM     84  H42 non d ame     -28.327  15.715  20.831  0.00  0.00     0.280 HD
ATOM     85  H43 non d ame     -29.079  17.199  21.372  0.00  0.00     0.280 HD
ATOM     86  H44 non d ame     -29.695  16.137  23.545  0.00  0.00     0.129 H 
ATOM     87  H37 non d ame     -31.037  15.235  23.365  0.00  0.00     0.046 H 
BRANCH  83  88
ATOM     88  O6  non d ame     -28.261  14.782  23.136  0.00  0.00    -0.369 OA
ATOM     89  H45 non d ame     -27.542  15.388  23.331  0.00  0.00     0.212 HD
ENDBRANCH  83  88
ENDBRANCH  72  75
ENDBRANCH  47  72
ENDBRANCH  45  47
ENDBRANCH   1  43
BRANCH   1  90
ATOM     90  C16 non d ame     -32.681  13.445  28.531  0.00  0.00    -0.035 C 
ATOM     91  H21 non d ame     -33.308  14.128  29.103  0.00  0.00     0.037 H 
ATOM     92  H22 non d ame     -33.124  12.574  28.046  0.00  0.00     0.037 H 
BRANCH  90  93
ATOM     93  C17 non d ame     -31.606  12.898  29.524  0.00  0.00    -0.059 C 
ATOM     94  H23 non d ame     -30.957  12.221  28.968  0.00  0.00     0.038 H 
BRANCH  93  95
ATOM     95  C18 non d ame     -30.715  14.037  30.114  0.00  0.00    -0.073 C 
ATOM     96  H24 non d ame     -31.268  14.975  30.101  0.00  0.00     0.028 H 
ATOM     97  H25 non d ame     -30.441  13.791  31.139  0.00  0.00     0.028 H 
ATOM     98  H26 non d ame     -29.812  14.140  29.512  0.00  0.00     0.028 H 
ENDBRANCH  93  95
BRANCH  93  99
ATOM     99  C19 non d ame     -32.260  12.083  30.643  0.00  0.00    -0.073 C 
ATOM    100  H27 non d ame     -33.329  12.299  30.673  0.00  0.00     0.028 H 
ATOM    101  H28 non d ame     -32.110  11.020  30.455  0.00  0.00     0.028 H 
ATOM    102  H29 non d ame     -31.808  12.350  31.598  0.00  0.00     0.028 H 
ENDBRANCH  93  99
ENDBRANCH  90  93
ENDBRANCH   1  90
TORSDOF 26
ENDMDL
MODEL 17
REMARK VINA RESULT:      -6.7      3.648      7.216
REMARK  26 active torsions:
REMARK  status: ('A' for Active; 'I' for Inactive)
REMARK    1  A    between atoms: C2_2  and  C3_3 
REMARK    2  A    between atoms: C4_6  and  C5_7 
REMARK       I    between atoms: C5_7  and  N2_9 
REMARK    3  A    between atoms: N2_9  and  C6_10 
REMARK    4  A    between atoms: C6_10  and  C7_11 
REMARK    5  A    between atoms: C6_10  and  C8_13 
REMARK       I    between atoms: C7_11  and  N3_14 
REMARK    6  A    between atoms: N3_14  and  C9_15 
REMARK    7  A    between atoms: C9_15  and  C10_16 
REMARK    8  A    between atoms: C9_15  and  C11_18 
REMARK       I    between atoms: C10_16  and  N4_21 
REMARK    9  A    between atoms: C11_18  and  C12_19 
REMARK   10  A    between atoms: C11_18  and  C13_20 
REMARK   11  A    between atoms: N4_21  and  C14_22 
REMARK   12  A    between atoms: C14_22  and  C15_23 
REMARK   13  A    between atoms: C14_22  and  C16_25 
REMARK       I    between atoms: C15_23  and  N6_40 
REMARK   14  A    between atoms: C16_25  and  C17_26 
REMARK   15  A    between atoms: C17_26  and  C18_27 
REMARK   16  A    between atoms: C17_26  and  C19_28 
REMARK   17  A    between atoms: C20_29  and  C21_30 
REMARK   18  A    between atoms: C20_29  and  C24_33 
REMARK   19  A    between atoms: C20_29  and  N6_40 
REMARK   20  A    between atoms: C21_30  and  C22_31 
REMARK   21  A    between atoms: C22_31  and  C23_32 
REMARK   22  A    between atoms: C23_32  and  O8_43 
REMARK   23  A    between atoms: C24_33  and  C25_34 
REMARK   24  A    between atoms: C28_38  and  O6_39 
REMARK   25  A    between atoms: C29_42  and  O8_43 
REMARK   26  A    between atoms: C29_42  and  C35_49 
ROOT
ATOM      1  C14 non d ame     -32.206   9.782  25.267  0.00  0.00     0.089 C 
ATOM      2  H20 non d ame     -31.511   8.953  25.405  0.00  0.00     0.087 H 
ENDROOT
BRANCH   1   3
ATOM      3  N4  non d ame     -33.228   9.672  26.296  0.00  0.00    -0.346 N 
ATOM      4  C10 non d ame     -33.182   8.548  27.300  0.00  0.00     0.241 C 
ATOM      5  O4  non d ame     -32.313   7.740  27.257  0.00  0.00    -0.271 OA
ATOM      6  H19 non d ame     -33.961  10.368  26.314  0.00  0.00     0.163 HD
BRANCH   4   7
ATOM      7  C9  non d ame     -34.246   8.453  28.362  0.00  0.00     0.092 C 
ATOM      8  H11 non d ame     -33.850   8.839  29.301  0.00  0.00     0.088 H 
BRANCH   7   9
ATOM      9  N3  non d ame     -35.384   9.301  27.991  0.00  0.00    -0.346 N 
ATOM     10  C7  non d ame     -36.048  10.094  28.996  0.00  0.00     0.240 C 
ATOM     11  O3  non d ame     -35.682  10.061  30.107  0.00  0.00    -0.271 OA
ATOM     12  H10 non d ame     -35.712   9.338  27.037  0.00  0.00     0.163 HD
BRANCH  10  13
ATOM     13  C6  non d ame     -37.261  10.991  28.597  0.00  0.00     0.086 C 
ATOM     14  H6  non d ame     -37.102  12.043  28.832  0.00  0.00     0.086 H 
BRANCH  13  15
ATOM     15  N2  non d ame     -37.452  10.912  27.158  0.00  0.00    -0.343 N 
ATOM     16  C5  non d ame     -37.553  12.145  26.374  0.00  0.00     0.273 C 
ATOM     17  O2  non d ame     -37.483  13.195  26.911  0.00  0.00    -0.266 OA
ATOM     18  H5  non d ame     -37.514  10.009  26.708  0.00  0.00     0.163 HD
BRANCH  16  19
ATOM     19  C4  non d ame     -37.754  12.075  24.852  0.00  0.00     0.154 A 
ATOM     20  C1  non d ame     -38.836  12.630  24.097  0.00  0.00    -0.017 A 
ATOM     21  C2  non d ame     -38.552  12.293  22.755  0.00  0.00     0.077 A 
ATOM     22  H1  non d ame     -39.694  13.191  24.466  0.00  0.00     0.091 H 
ATOM     23  O1  non d ame     -37.436  11.624  22.751  0.00  0.00    -0.218 OA
ATOM     24  N1  non d ame     -36.951  11.484  23.963  0.00  0.00    -0.123 NA
BRANCH  21  25
ATOM     25  C3  non d ame     -39.396  12.648  21.538  0.00  0.00    -0.029 C 
ATOM     26  H2  non d ame     -39.212  11.925  20.744  0.00  0.00     0.036 H 
ATOM     27  H3  non d ame     -40.451  12.627  21.810  0.00  0.00     0.036 H 
ATOM     28  H4  non d ame     -39.130  13.646  21.190  0.00  0.00     0.036 H 
ENDBRANCH  21  25
ENDBRANCH  16  19
ENDBRANCH  13  15
BRANCH  13  29
ATOM     29  C8  non d ame     -38.500  10.514  29.310  0.00  0.00    -0.049 C 
ATOM     30  H7  non d ame     -38.985  11.358  29.799  0.00  0.00     0.030 H 
ATOM     31  H8  non d ame     -39.185  10.069  28.589  0.00  0.00     0.030 H 
ATOM     32  H9  non d ame     -38.225   9.769  30.057  0.00  0.00     0.030 H 
ENDBRANCH  13  29
ENDBRANCH  10  13
ENDBRANCH   7   9
BRANCH   7  33
ATOM     33  C11 non d ame     -34.722   6.977  28.489  0.00  0.00    -0.033 C 
ATOM     34  H12 non d ame     -33.879   6.336  28.231  0.00  0.00     0.042 H 
BRANCH  33  35
ATOM     35  C12 non d ame     -35.138   6.638  29.955  0.00  0.00    -0.071 C 
ATOM     36  H13 non d ame     -36.064   7.159  30.200  0.00  0.00     0.028 H 
ATOM     37  H14 non d ame     -35.290   5.563  30.050  0.00  0.00     0.028 H 
ATOM     38  H15 non d ame     -34.351   6.956  30.638  0.00  0.00     0.028 H 
ENDBRANCH  33  35
BRANCH  33  39
ATOM     39  C13 non d ame     -35.883   6.675  27.487  0.00  0.00    -0.071 C 
ATOM     40  H16 non d ame     -36.124   5.613  27.520  0.00  0.00     0.028 H 
ATOM     41  H17 non d ame     -36.763   7.257  27.764  0.00  0.00     0.028 H 
ATOM     42  H18 non d ame     -35.572   6.947  26.478  0.00  0.00     0.028 H 
ENDBRANCH  33  39
ENDBRANCH   7  33
ENDBRANCH   4   7
ENDBRANCH   1   3
BRANCH   1  43
ATOM     43  C15 non d ame     -31.506  11.164  25.408  0.00  0.00     0.240 C 
ATOM     44  O5  non d ame     -30.751  11.355  26.305  0.00  0.00    -0.271 OA
ATOM     45  N6  non d ame     -31.772  12.247  24.419  0.00  0.00    -0.355 N 
ATOM     46  H46 non d ame     -32.407  12.095  23.649  0.00  0.00     0.162 HD
BRANCH  45  47
ATOM     47  C20 non d ame     -31.097  13.555  24.566  0.00  0.00     0.013 C 
ATOM     48  H30 non d ame     -30.023  13.376  24.608  0.00  0.00     0.072 H 
BRANCH  47  49
ATOM     49  C21 non d ame     -31.562  14.215  25.844  0.00  0.00    -0.038 C 
ATOM     50  H31 non d ame     -32.601  13.911  25.973  0.00  0.00     0.036 H 
ATOM     51  H32 non d ame     -30.819  13.952  26.598  0.00  0.00     0.036 H 
BRANCH  49  52
ATOM     52  C22 non d ame     -31.567  15.757  25.755  0.00  0.00     0.018 C 
ATOM     53  H33 non d ame     -30.539  16.067  25.942  0.00  0.00     0.048 H 
ATOM     54  H34 non d ame     -32.044  15.996  24.805  0.00  0.00     0.048 H 
BRANCH  52  55
ATOM     55  C23 non d ame     -32.427  16.445  26.852  0.00  0.00     0.259 C 
ATOM     56  O7  non d ame     -32.558  17.626  26.863  0.00  0.00    -0.265 OA
BRANCH  55  57
ATOM     57  O8  non d ame     -33.047  15.648  27.853  0.00  0.00    -0.317 OA
BRANCH  57  58
ATOM     58  C29 non d ame     -32.321  15.589  29.084  0.00  0.00     0.052 C 
ATOM     59  H47 non d ame     -31.346  16.027  28.872  0.00  0.00     0.082 H 
ATOM     60  H48 non d ame     -32.971  16.042  29.832  0.00  0.00     0.082 H 
BRANCH  58  61
ATOM     61  C35 non d ame     -32.120  14.094  29.450  0.00  0.00    -0.034 A 
ATOM     62  C30 non d ame     -31.061  13.714  30.269  0.00  0.00    -0.075 A 
ATOM     63  C31 non d ame     -30.880  12.372  30.598  0.00  0.00    -0.082 A 
ATOM     64  H49 non d ame     -30.373  14.468  30.653  0.00  0.00     0.084 H 
ATOM     65  C32 non d ame     -31.760  11.407  30.102  0.00  0.00    -0.083 A 
ATOM     66  H50 non d ame     -30.050  12.078  31.241  0.00  0.00     0.083 H 
ATOM     67  C33 non d ame     -32.813  11.790  29.283  0.00  0.00    -0.082 A 
ATOM     68  H51 non d ame     -31.626  10.355  30.355  0.00  0.00     0.083 H 
ATOM     69  C34 non d ame     -33.000  13.131  28.953  0.00  0.00    -0.075 A 
ATOM     70  H52 non d ame     -33.497  11.035  28.896  0.00  0.00     0.083 H 
ATOM     71  H53 non d ame     -33.830  13.425  28.310  0.00  0.00     0.084 H 
ENDBRANCH  58  61
ENDBRANCH  57  58
ENDBRANCH  55  57
ENDBRANCH  52  55
ENDBRANCH  49  52
ENDBRANCH  47  49
BRANCH  47  72
ATOM     72  C24 non d ame     -31.440  14.450  23.376  0.00  0.00    -0.039 C 
ATOM     73  H35 non d ame     -32.366  14.046  22.967  0.00  0.00     0.036 H 
ATOM     74  H36 non d ame     -31.414  15.469  23.763  0.00  0.00     0.036 H 
BRANCH  72  75
ATOM     75  C25 non d ame     -30.332  14.352  22.223  0.00  0.00    -0.001 C 
ATOM     76  C26 non d ame     -28.850  14.105  22.891  0.00  0.00    -0.035 C 
ATOM     77  C27 non d ame     -27.987  15.020  22.389  0.00  0.00     0.085 C 
ATOM     78  H38 non d ame     -28.876  14.335  23.955  0.00  0.00     0.036 H 
ATOM     79  H39 non d ame     -28.440  13.154  22.549  0.00  0.00     0.036 H 
ATOM     80  N5  non d ame     -28.815  16.072  21.692  0.00  0.00    -0.049 N 
ATOM     81  H40 non d ame     -27.500  15.467  23.256  0.00  0.00     0.075 H 
ATOM     82  H41 non d ame     -27.394  14.486  21.647  0.00  0.00     0.075 H 
ATOM     83  C28 non d ame     -30.290  15.437  21.523  0.00  0.00     0.193 C 
ATOM     84  H42 non d ame     -28.874  16.857  22.326  0.00  0.00     0.280 HD
ATOM     85  H43 non d ame     -28.410  16.193  20.775  0.00  0.00     0.280 HD
ATOM     86  H44 non d ame     -30.623  15.061  20.556  0.00  0.00     0.129 H 
ATOM     87  H37 non d ame     -30.632  13.681  21.418  0.00  0.00     0.046 H 
BRANCH  83  88
ATOM     88  O6  non d ame     -31.283  16.380  21.930  0.00  0.00    -0.369 OA
ATOM     89  H45 non d ame     -32.155  15.998  21.808  0.00  0.00     0.212 HD
ENDBRANCH  83  88
ENDBRANCH  72  75
ENDBRANCH  47  72
ENDBRANCH  45  47
ENDBRANCH   1  43
BRANCH   1  90
ATOM     90  C16 non d ame     -32.864   9.679  23.900  0.00  0.00    -0.035 C 
ATOM     91  H21 non d ame     -33.914   9.468  24.101  0.00  0.00     0.037 H 
ATOM     92  H22 non d ame     -32.583  10.592  23.375  0.00  0.00     0.037 H 
BRANCH  90  93
ATOM     93  C17 non d ame     -32.333   8.491  23.036  0.00  0.00    -0.059 C 
ATOM     94  H23 non d ame     -32.191   7.638  23.699  0.00  0.00     0.038 H 
BRANCH  93  95
ATOM     95  C18 non d ame     -33.349   8.069  21.927  0.00  0.00    -0.073 C 
ATOM     96  H24 non d ame     -33.366   6.983  21.844  0.00  0.00     0.028 H 
ATOM     97  H25 non d ame     -34.343   8.429  22.189  0.00  0.00     0.028 H 
ATOM     98  H26 non d ame     -33.045   8.502  20.974  0.00  0.00     0.028 H 
ENDBRANCH  93  95
BRANCH  93  99
ATOM     99  C19 non d ame     -30.969   8.825  22.428  0.00  0.00    -0.073 C 
ATOM    100  H27 non d ame     -30.656   8.014  21.770  0.00  0.00     0.028 H 
ATOM    101  H28 non d ame     -31.043   9.749  21.854  0.00  0.00     0.028 H 
ATOM    102  H29 non d ame     -30.236   8.950  23.224  0.00  0.00     0.028 H 
ENDBRANCH  93  99
ENDBRANCH  90  93
ENDBRANCH   1  90
TORSDOF 26
ENDMDL
MODEL 18
REMARK VINA RESULT:      -6.6      2.861      5.423
REMARK  26 active torsions:
REMARK  status: ('A' for Active; 'I' for Inactive)
REMARK    1  A    between atoms: C2_2  and  C3_3 
REMARK    2  A    between atoms: C4_6  and  C5_7 
REMARK       I    between atoms: C5_7  and  N2_9 
REMARK    3  A    between atoms: N2_9  and  C6_10 
REMARK    4  A    between atoms: C6_10  and  C7_11 
REMARK    5  A    between atoms: C6_10  and  C8_13 
REMARK       I    between atoms: C7_11  and  N3_14 
REMARK    6  A    between atoms: N3_14  and  C9_15 
REMARK    7  A    between atoms: C9_15  and  C10_16 
REMARK    8  A    between atoms: C9_15  and  C11_18 
REMARK       I    between atoms: C10_16  and  N4_21 
REMARK    9  A    between atoms: C11_18  and  C12_19 
REMARK   10  A    between atoms: C11_18  and  C13_20 
REMARK   11  A    between atoms: N4_21  and  C14_22 
REMARK   12  A    between atoms: C14_22  and  C15_23 
REMARK   13  A    between atoms: C14_22  and  C16_25 
REMARK       I    between atoms: C15_23  and  N6_40 
REMARK   14  A    between atoms: C16_25  and  C17_26 
REMARK   15  A    between atoms: C17_26  and  C18_27 
REMARK   16  A    between atoms: C17_26  and  C19_28 
REMARK   17  A    between atoms: C20_29  and  C21_30 
REMARK   18  A    between atoms: C20_29  and  C24_33 
REMARK   19  A    between atoms: C20_29  and  N6_40 
REMARK   20  A    between atoms: C21_30  and  C22_31 
REMARK   21  A    between atoms: C22_31  and  C23_32 
REMARK   22  A    between atoms: C23_32  and  O8_43 
REMARK   23  A    between atoms: C24_33  and  C25_34 
REMARK   24  A    between atoms: C28_38  and  O6_39 
REMARK   25  A    between atoms: C29_42  and  O8_43 
REMARK   26  A    between atoms: C29_42  and  C35_49 
ROOT
ATOM      1  C14 non d ame     -33.758  17.074  27.512  0.00  0.00     0.089 C 
ATOM      2  H20 non d ame     -33.483  17.431  28.505  0.00  0.00     0.087 H 
ENDROOT
BRANCH   1   3
ATOM      3  N4  non d ame     -33.455  15.651  27.459  0.00  0.00    -0.346 N 
ATOM      4  C10 non d ame     -32.775  14.973  28.622  0.00  0.00     0.241 C 
ATOM      5  O4  non d ame     -32.477  15.594  29.589  0.00  0.00    -0.271 OA
ATOM      6  H19 non d ame     -33.714  15.141  26.627  0.00  0.00     0.163 HD
BRANCH   4   7
ATOM      7  C9  non d ame     -32.474  13.499  28.552  0.00  0.00     0.092 C 
ATOM      8  H11 non d ame     -33.402  12.951  28.390  0.00  0.00     0.088 H 
BRANCH   7   9
ATOM      9  N3  non d ame     -31.605  13.231  27.402  0.00  0.00    -0.346 N 
ATOM     10  C7  non d ame     -32.143  12.590  26.227  0.00  0.00     0.240 C 
ATOM     11  O3  non d ame     -33.272  12.281  26.191  0.00  0.00    -0.271 OA
ATOM     12  H10 non d ame     -30.629  13.489  27.419  0.00  0.00     0.163 HD
BRANCH  10  13
ATOM     13  C6  non d ame     -31.213  12.304  25.008  0.00  0.00     0.086 C 
ATOM     14  H6  non d ame     -30.232  11.933  25.303  0.00  0.00     0.086 H 
BRANCH  13  15
ATOM     15  N2  non d ame     -31.819  11.270  24.185  0.00  0.00    -0.343 N 
ATOM     16  C5  non d ame     -30.967  10.256  23.559  0.00  0.00     0.273 C 
ATOM     17  O2  non d ame     -29.797  10.282  23.721  0.00  0.00    -0.266 OA
ATOM     18  H5  non d ame     -32.820  11.256  24.050  0.00  0.00     0.163 HD
BRANCH  16  19
ATOM     19  C4  non d ame     -31.594   9.155  22.688  0.00  0.00     0.154 A 
ATOM     20  C1  non d ame     -32.976   8.791  22.618  0.00  0.00    -0.017 A 
ATOM     21  C2  non d ame     -33.026   7.736  21.680  0.00  0.00     0.077 A 
ATOM     22  H1  non d ame     -33.814   9.225  23.164  0.00  0.00     0.091 H 
ATOM     23  O1  non d ame     -31.811   7.528  21.265  0.00  0.00    -0.218 OA
ATOM     24  N1  non d ame     -30.957   8.344  21.840  0.00  0.00    -0.123 NA
BRANCH  21  25
ATOM     25  C3  non d ame     -34.273   6.982  21.236  0.00  0.00    -0.029 C 
ATOM     26  H2  non d ame     -34.416   7.116  20.164  0.00  0.00     0.036 H 
ATOM     27  H3  non d ame     -34.155   5.922  21.457  0.00  0.00     0.036 H 
ATOM     28  H4  non d ame     -35.141   7.370  21.769  0.00  0.00     0.036 H 
ENDBRANCH  21  25
ENDBRANCH  16  19
ENDBRANCH  13  15
BRANCH  13  29
ATOM     29  C8  non d ame     -31.034  13.566  24.202  0.00  0.00    -0.049 C 
ATOM     30  H7  non d ame     -31.858  14.249  24.410  0.00  0.00     0.030 H 
ATOM     31  H8  non d ame     -30.092  14.040  24.475  0.00  0.00     0.030 H 
ATOM     32  H9  non d ame     -31.025  13.321  23.140  0.00  0.00     0.030 H 
ENDBRANCH  13  29
ENDBRANCH  10  13
ENDBRANCH   7   9
BRANCH   7  33
ATOM     33  C11 non d ame     -31.752  13.055  29.858  0.00  0.00    -0.033 C 
ATOM     34  H12 non d ame     -31.662  13.932  30.499  0.00  0.00     0.042 H 
BRANCH  33  35
ATOM     35  C12 non d ame     -32.588  11.991  30.636  0.00  0.00    -0.071 C 
ATOM     36  H13 non d ame     -31.941  11.166  30.933  0.00  0.00     0.028 H 
ATOM     37  H14 non d ame     -33.024  12.449  31.523  0.00  0.00     0.028 H 
ATOM     38  H15 non d ame     -33.384  11.614  29.993  0.00  0.00     0.028 H 
ENDBRANCH  33  35
BRANCH  33  39
ATOM     39  C13 non d ame     -30.313  12.530  29.551  0.00  0.00    -0.071 C 
ATOM     40  H16 non d ame     -29.648  13.376  29.373  0.00  0.00     0.028 H 
ATOM     41  H17 non d ame     -29.947  11.953  30.401  0.00  0.00     0.028 H 
ATOM     42  H18 non d ame     -30.339  11.894  28.666  0.00  0.00     0.028 H 
ENDBRANCH  33  39
ENDBRANCH   7  33
ENDBRANCH   4   7
ENDBRANCH   1   3
BRANCH   1  43
ATOM     43  C15 non d ame     -35.272  17.269  27.216  0.00  0.00     0.240 C 
ATOM     44  O5  non d ame     -35.972  17.784  28.028  0.00  0.00    -0.271 OA
ATOM     45  N6  non d ame     -35.849  16.822  25.916  0.00  0.00    -0.355 N 
ATOM     46  H46 non d ame     -35.264  16.388  25.217  0.00  0.00     0.162 HD
BRANCH  45  47
ATOM     47  C20 non d ame     -37.291  17.017  25.649  0.00  0.00     0.013 C 
ATOM     48  H30 non d ame     -37.696  17.651  26.438  0.00  0.00     0.072 H 
BRANCH  47  49
ATOM     49  C21 non d ame     -37.986  15.674  25.658  0.00  0.00    -0.038 C 
ATOM     50  H31 non d ame     -38.559  15.644  26.585  0.00  0.00     0.036 H 
ATOM     51  H32 non d ame     -38.498  15.602  24.698  0.00  0.00     0.036 H 
BRANCH  49  52
ATOM     52  C22 non d ame     -36.999  14.488  25.716  0.00  0.00     0.018 C 
ATOM     53  H33 non d ame     -36.788  14.228  24.680  0.00  0.00     0.048 H 
ATOM     54  H34 non d ame     -36.190  14.810  26.373  0.00  0.00     0.048 H 
BRANCH  52  55
ATOM     55  C23 non d ame     -37.595  13.209  26.366  0.00  0.00     0.259 C 
ATOM     56  O7  non d ame     -38.708  12.871  26.124  0.00  0.00    -0.265 OA
BRANCH  55  57
ATOM     57  O8  non d ame     -36.798  12.449  27.268  0.00  0.00    -0.317 OA
BRANCH  57  58
ATOM     58  C29 non d ame     -36.554  11.106  26.840  0.00  0.00     0.052 C 
ATOM     59  H47 non d ame     -37.537  10.674  26.650  0.00  0.00     0.082 H 
ATOM     60  H48 non d ame     -35.827  11.181  26.031  0.00  0.00     0.082 H 
BRANCH  58  61
ATOM     61  C35 non d ame     -35.899  10.339  28.019  0.00  0.00    -0.034 A 
ATOM     62  C30 non d ame     -36.542  10.275  29.251  0.00  0.00    -0.075 A 
ATOM     63  C31 non d ame     -35.954   9.586  30.311  0.00  0.00    -0.082 A 
ATOM     64  H49 non d ame     -37.507  10.765  29.387  0.00  0.00     0.084 H 
ATOM     65  C32 non d ame     -34.717   8.962  30.136  0.00  0.00    -0.083 A 
ATOM     66  H50 non d ame     -36.462   9.537  31.275  0.00  0.00     0.083 H 
ATOM     67  C33 non d ame     -34.077   9.031  28.905  0.00  0.00    -0.082 A 
ATOM     68  H51 non d ame     -34.250   8.420  30.959  0.00  0.00     0.083 H 
ATOM     69  C34 non d ame     -34.662   9.716  27.843  0.00  0.00    -0.075 A 
ATOM     70  H52 non d ame     -33.110   8.544  28.773  0.00  0.00     0.083 H 
ATOM     71  H53 non d ame     -34.154   9.765  26.879  0.00  0.00     0.084 H 
ENDBRANCH  58  61
ENDBRANCH  57  58
ENDBRANCH  55  57
ENDBRANCH  52  55
ENDBRANCH  49  52
ENDBRANCH  47  49
BRANCH  47  72
ATOM     72  C24 non d ame     -37.479  17.679  24.286  0.00  0.00    -0.039 C 
ATOM     73  H35 non d ame     -36.886  17.085  23.590  0.00  0.00     0.036 H 
ATOM     74  H36 non d ame     -38.557  17.763  24.150  0.00  0.00     0.036 H 
BRANCH  72  75
ATOM     75  C25 non d ame     -36.883  19.166  24.263  0.00  0.00    -0.001 C 
ATOM     76  C26 non d ame     -37.328  19.969  25.628  0.00  0.00    -0.035 C 
ATOM     77  C27 non d ame     -37.878  21.156  25.276  0.00  0.00     0.085 C 
ATOM     78  H38 non d ame     -38.146  19.444  26.120  0.00  0.00     0.036 H 
ATOM     79  H39 non d ame     -36.444  20.256  26.197  0.00  0.00     0.036 H 
ATOM     80  N5  non d ame     -38.148  21.095  23.792  0.00  0.00    -0.049 N 
ATOM     81  H40 non d ame     -38.828  21.205  25.809  0.00  0.00     0.075 H 
ATOM     82  H41 non d ame     -37.107  21.902  25.467  0.00  0.00     0.075 H 
ATOM     83  C28 non d ame     -37.315  19.827  23.241  0.00  0.00     0.193 C 
ATOM     84  H42 non d ame     -39.134  20.902  23.688  0.00  0.00     0.280 HD
ATOM     85  H43 non d ame     -37.753  21.936  23.396  0.00  0.00     0.280 HD
ATOM     86  H44 non d ame     -36.385  19.972  22.691  0.00  0.00     0.129 H 
ATOM     87  H37 non d ame     -35.825  19.183  24.000  0.00  0.00     0.046 H 
BRANCH  83  88
ATOM     88  O6  non d ame     -38.139  19.027  22.391  0.00  0.00    -0.369 OA
ATOM     89  H45 non d ame     -37.951  19.236  21.473  0.00  0.00     0.212 HD
ENDBRANCH  83  88
ENDBRANCH  72  75
ENDBRANCH  47  72
ENDBRANCH  45  47
ENDBRANCH   1  43
BRANCH   1  90
ATOM     90  C16 non d ame     -32.933  17.796  26.459  0.00  0.00    -0.035 C 
ATOM     91  H21 non d ame     -32.010  17.224  26.373  0.00  0.00     0.037 H 
ATOM     92  H22 non d ame     -33.593  17.899  25.597  0.00  0.00     0.037 H 
BRANCH  90  93
ATOM     93  C17 non d ame     -32.517  19.243  26.873  0.00  0.00    -0.059 C 
ATOM     94  H23 non d ame     -31.483  19.392  26.562  0.00  0.00     0.038 H 
BRANCH  93  95
ATOM     95  C18 non d ame     -33.388  20.331  26.166  0.00  0.00    -0.073 C 
ATOM     96  H24 non d ame     -34.194  19.850  25.614  0.00  0.00     0.028 H 
ATOM     97  H25 non d ame     -33.812  21.000  26.915  0.00  0.00     0.028 H 
ATOM     98  H26 non d ame     -32.767  20.903  25.478  0.00  0.00     0.028 H 
ENDBRANCH  93  95
BRANCH  93  99
ATOM     99  C19 non d ame     -32.563  19.412  28.394  0.00  0.00    -0.073 C 
ATOM    100  H27 non d ame     -33.128  20.310  28.643  0.00  0.00     0.028 H 
ATOM    101  H28 non d ame     -33.047  18.543  28.841  0.00  0.00     0.028 H 
ATOM    102  H29 non d ame     -31.549  19.501  28.780  0.00  0.00     0.028 H 
ENDBRANCH  93  99
ENDBRANCH  90  93
ENDBRANCH   1  90
TORSDOF 26
ENDMDL
MODEL 19
REMARK VINA RESULT:      -6.5      4.140      8.893
REMARK  26 active torsions:
REMARK  status: ('A' for Active; 'I' for Inactive)
REMARK    1  A    between atoms: C2_2  and  C3_3 
REMARK    2  A    between atoms: C4_6  and  C5_7 
REMARK       I    between atoms: C5_7  and  N2_9 
REMARK    3  A    between atoms: N2_9  and  C6_10 
REMARK    4  A    between atoms: C6_10  and  C7_11 
REMARK    5  A    between atoms: C6_10  and  C8_13 
REMARK       I    between atoms: C7_11  and  N3_14 
REMARK    6  A    between atoms: N3_14  and  C9_15 
REMARK    7  A    between atoms: C9_15  and  C10_16 
REMARK    8  A    between atoms: C9_15  and  C11_18 
REMARK       I    between atoms: C10_16  and  N4_21 
REMARK    9  A    between atoms: C11_18  and  C12_19 
REMARK   10  A    between atoms: C11_18  and  C13_20 
REMARK   11  A    between atoms: N4_21  and  C14_22 
REMARK   12  A    between atoms: C14_22  and  C15_23 
REMARK   13  A    between atoms: C14_22  and  C16_25 
REMARK       I    between atoms: C15_23  and  N6_40 
REMARK   14  A    between atoms: C16_25  and  C17_26 
REMARK   15  A    between atoms: C17_26  and  C18_27 
REMARK   16  A    between atoms: C17_26  and  C19_28 
REMARK   17  A    between atoms: C20_29  and  C21_30 
REMARK   18  A    between atoms: C20_29  and  C24_33 
REMARK   19  A    between atoms: C20_29  and  N6_40 
REMARK   20  A    between atoms: C21_30  and  C22_31 
REMARK   21  A    between atoms: C22_31  and  C23_32 
REMARK   22  A    between atoms: C23_32  and  O8_43 
REMARK   23  A    between atoms: C24_33  and  C25_34 
REMARK   24  A    between atoms: C28_38  and  O6_39 
REMARK   25  A    between atoms: C29_42  and  O8_43 
REMARK   26  A    between atoms: C29_42  and  C35_49 
ROOT
ATOM      1  C14 non d ame     -34.742  19.076  26.016  0.00  0.00     0.089 C 
ATOM      2  H20 non d ame     -34.736  19.863  25.261  0.00  0.00     0.087 H 
ENDROOT
BRANCH   1   3
ATOM      3  N4  non d ame     -35.891  18.223  25.751  0.00  0.00    -0.346 N 
ATOM      4  C10 non d ame     -36.881  18.591  24.674  0.00  0.00     0.241 C 
ATOM      5  O4  non d ame     -36.733  19.581  24.036  0.00  0.00    -0.271 OA
ATOM      6  H19 non d ame     -36.000  17.387  26.306  0.00  0.00     0.163 HD
BRANCH   4   7
ATOM      7  C9  non d ame     -38.061  17.694  24.410  0.00  0.00     0.092 C 
ATOM      8  H11 non d ame     -38.404  17.845  23.386  0.00  0.00     0.088 H 
BRANCH   7   9
ATOM      9  N3  non d ame     -37.646  16.293  24.526  0.00  0.00    -0.346 N 
ATOM     10  C7  non d ame     -37.827  15.393  23.413  0.00  0.00     0.240 C 
ATOM     11  O3  non d ame     -38.306  15.779  22.418  0.00  0.00    -0.271 OA
ATOM     12  H10 non d ame     -37.233  15.945  25.379  0.00  0.00     0.163 HD
BRANCH  10  13
ATOM     13  C6  non d ame     -37.386  13.902  23.545  0.00  0.00     0.086 C 
ATOM     14  H6  non d ame     -36.308  13.772  23.461  0.00  0.00     0.086 H 
BRANCH  13  15
ATOM     15  N2  non d ame     -37.763  13.413  24.861  0.00  0.00    -0.343 N 
ATOM     16  C5  non d ame     -36.983  12.341  25.482  0.00  0.00     0.273 C 
ATOM     17  O2  non d ame     -36.056  11.876  24.914  0.00  0.00    -0.266 OA
ATOM     18  H5  non d ame     -38.558  13.814  25.338  0.00  0.00     0.163 HD
BRANCH  16  19
ATOM     19  C4  non d ame     -37.368  11.815  26.873  0.00  0.00     0.154 A 
ATOM     20  C1  non d ame     -36.635  10.889  27.682  0.00  0.00    -0.017 A 
ATOM     21  C2  non d ame     -37.409  10.738  28.854  0.00  0.00     0.077 A 
ATOM     22  H1  non d ame     -35.687  10.402  27.453  0.00  0.00     0.091 H 
ATOM     23  O1  non d ame     -38.460  11.494  28.725  0.00  0.00    -0.218 OA
ATOM     24  N1  non d ame     -38.459  12.132  27.577  0.00  0.00    -0.123 NA
BRANCH  21  25
ATOM     25  C3  non d ame     -37.073   9.855  30.048  0.00  0.00    -0.029 C 
ATOM     26  H2  non d ame     -36.151  10.204  30.511  0.00  0.00     0.036 H 
ATOM     27  H3  non d ame     -37.884   9.903  30.775  0.00  0.00     0.036 H 
ATOM     28  H4  non d ame     -36.946   8.825  29.715  0.00  0.00     0.036 H 
ENDBRANCH  21  25
ENDBRANCH  16  19
ENDBRANCH  13  15
BRANCH  13  29
ATOM     29  C8  non d ame     -38.061  13.080  22.476  0.00  0.00    -0.049 C 
ATOM     30  H7  non d ame     -37.721  13.411  21.494  0.00  0.00     0.030 H 
ATOM     31  H8  non d ame     -37.808  12.029  22.613  0.00  0.00     0.030 H 
ATOM     32  H9  non d ame     -39.141  13.206  22.547  0.00  0.00     0.030 H 
ENDBRANCH  13  29
ENDBRANCH  10  13
ENDBRANCH   7   9
BRANCH   7  33
ATOM     33  C11 non d ame     -39.180  17.989  25.451  0.00  0.00    -0.033 C 
ATOM     34  H12 non d ame     -38.736  17.909  26.443  0.00  0.00     0.042 H 
BRANCH  33  35
ATOM     35  C12 non d ame     -39.730  19.441  25.298  0.00  0.00    -0.071 C 
ATOM     36  H13 non d ame     -38.899  20.146  25.294  0.00  0.00     0.028 H 
ATOM     37  H14 non d ame     -40.282  19.525  24.363  0.00  0.00     0.028 H 
ATOM     38  H15 non d ame     -40.393  19.668  26.133  0.00  0.00     0.028 H 
ENDBRANCH  33  35
BRANCH  33  39
ATOM     39  C13 non d ame     -40.330  16.935  25.350  0.00  0.00    -0.071 C 
ATOM     40  H16 non d ame     -40.536  16.721  24.301  0.00  0.00     0.028 H 
ATOM     41  H17 non d ame     -40.026  16.017  25.856  0.00  0.00     0.028 H 
ATOM     42  H18 non d ame     -41.228  17.330  25.825  0.00  0.00     0.028 H 
ENDBRANCH  33  39
ENDBRANCH   7  33
ENDBRANCH   4   7
ENDBRANCH   1   3
BRANCH   1  43
ATOM     43  C15 non d ame     -33.455  18.204  25.964  0.00  0.00     0.240 C 
ATOM     44  O5  non d ame     -32.396  18.700  26.173  0.00  0.00    -0.271 OA
ATOM     45  N6  non d ame     -33.545  16.746  25.663  0.00  0.00    -0.355 N 
ATOM     46  H46 non d ame     -34.439  16.312  25.489  0.00  0.00     0.162 HD
BRANCH  45  47
ATOM     47  C20 non d ame     -32.312  15.930  25.619  0.00  0.00     0.013 C 
ATOM     48  H30 non d ame     -31.490  16.544  25.988  0.00  0.00     0.072 H 
BRANCH  47  49
ATOM     49  C21 non d ame     -32.042  15.509  24.193  0.00  0.00    -0.038 C 
ATOM     50  H31 non d ame     -32.581  14.571  24.055  0.00  0.00     0.036 H 
ATOM     51  H32 non d ame     -32.290  16.375  23.578  0.00  0.00     0.036 H 
BRANCH  49  52
ATOM     52  C22 non d ame     -30.552  15.199  23.930  0.00  0.00     0.018 C 
ATOM     53  H33 non d ame     -30.089  16.156  23.692  0.00  0.00     0.048 H 
ATOM     54  H34 non d ame     -30.213  14.629  24.796  0.00  0.00     0.048 H 
BRANCH  52  55
ATOM     55  C23 non d ame     -30.310  14.288  22.695  0.00  0.00     0.259 C 
ATOM     56  O7  non d ame     -30.438  14.717  21.595  0.00  0.00    -0.265 OA
BRANCH  55  57
ATOM     57  O8  non d ame     -29.944  12.928  22.894  0.00  0.00    -0.317 OA
BRANCH  57  58
ATOM     58  C29 non d ame     -30.805  12.219  23.791  0.00  0.00     0.052 C 
ATOM     59  H47 non d ame     -30.306  12.244  24.760  0.00  0.00     0.082 H 
ATOM     60  H48 non d ame     -31.790  12.669  23.673  0.00  0.00     0.082 H 
BRANCH  58  61
ATOM     61  C35 non d ame     -30.880  10.743  23.315  0.00  0.00    -0.034 A 
ATOM     62  C30 non d ame     -31.912   9.921  23.757  0.00  0.00    -0.075 A 
ATOM     63  C31 non d ame     -31.980   8.596  23.330  0.00  0.00    -0.082 A 
ATOM     64  H49 non d ame     -32.667  10.315  24.437  0.00  0.00     0.084 H 
ATOM     65  C32 non d ame     -31.009   8.092  22.460  0.00  0.00    -0.083 A 
ATOM     66  H50 non d ame     -32.791   7.954  23.676  0.00  0.00     0.083 H 
ATOM     67  C33 non d ame     -29.979   8.915  22.025  0.00  0.00    -0.082 A 
ATOM     68  H51 non d ame     -31.055   7.057  22.121  0.00  0.00     0.083 H 
ATOM     69  C34 non d ame     -29.909  10.241  22.447  0.00  0.00    -0.075 A 
ATOM     70  H52 non d ame     -29.222   8.518  21.349  0.00  0.00     0.083 H 
ATOM     71  H53 non d ame     -29.097  10.881  22.101  0.00  0.00     0.084 H 
ENDBRANCH  58  61
ENDBRANCH  57  58
ENDBRANCH  55  57
ENDBRANCH  52  55
ENDBRANCH  49  52
ENDBRANCH  47  49
BRANCH  47  72
ATOM     72  C24 non d ame     -32.482  14.690  26.494  0.00  0.00    -0.039 C 
ATOM     73  H35 non d ame     -33.555  14.606  26.672  0.00  0.00     0.036 H 
ATOM     74  H36 non d ame     -31.952  13.892  25.973  0.00  0.00     0.036 H 
BRANCH  72  75
ATOM     75  C25 non d ame     -31.779  14.870  27.922  0.00  0.00    -0.001 C 
ATOM     76  C26 non d ame     -30.864  13.548  28.266  0.00  0.00    -0.035 C 
ATOM     77  C27 non d ame     -31.196  13.097  29.500  0.00  0.00     0.085 C 
ATOM     78  H38 non d ame     -31.138  12.723  27.610  0.00  0.00     0.036 H 
ATOM     79  H39 non d ame     -29.817  13.835  28.374  0.00  0.00     0.036 H 
ATOM     80  N5  non d ame     -32.479  13.789  29.892  0.00  0.00    -0.049 N 
ATOM     81  H40 non d ame     -31.390  12.031  29.377  0.00  0.00     0.075 H 
ATOM     82  H41 non d ame     -30.395  13.432  30.158  0.00  0.00     0.075 H 
ATOM     83  C28 non d ame     -32.654  15.018  28.859  0.00  0.00     0.193 C 
ATOM     84  H42 non d ame     -33.223  13.126  29.732  0.00  0.00     0.280 HD
ATOM     85  H43 non d ame     -32.328  14.166  30.817  0.00  0.00     0.280 HD
ATOM     86  H44 non d ame     -32.440  16.039  29.172  0.00  0.00     0.129 H 
ATOM     87  H37 non d ame     -31.301  15.845  28.027  0.00  0.00     0.046 H 
BRANCH  83  88
ATOM     88  O6  non d ame     -33.989  15.046  28.350  0.00  0.00    -0.369 OA
ATOM     89  H45 non d ame     -33.966  15.179  27.400  0.00  0.00     0.212 HD
ENDBRANCH  83  88
ENDBRANCH  72  75
ENDBRANCH  47  72
ENDBRANCH  45  47
ENDBRANCH   1  43
BRANCH   1  90
ATOM     90  C16 non d ame     -34.888  19.690  27.399  0.00  0.00    -0.035 C 
ATOM     91  H21 non d ame     -34.479  18.951  28.087  0.00  0.00     0.037 H 
ATOM     92  H22 non d ame     -34.433  20.678  27.326  0.00  0.00     0.037 H 
BRANCH  90  93
ATOM     93  C17 non d ame     -36.372  19.918  27.829  0.00  0.00    -0.059 C 
ATOM     94  H23 non d ame     -36.972  19.125  27.383  0.00  0.00     0.038 H 
BRANCH  93  95
ATOM     95  C18 non d ame     -36.555  19.840  29.379  0.00  0.00    -0.073 C 
ATOM     96  H24 non d ame     -37.561  20.167  29.643  0.00  0.00     0.028 H 
ATOM     97  H25 non d ame     -36.409  18.813  29.711  0.00  0.00     0.028 H 
ATOM     98  H26 non d ame     -35.824  20.487  29.864  0.00  0.00     0.028 H 
ENDBRANCH  93  95
BRANCH  93  99
ATOM     99  C19 non d ame     -36.901  21.248  27.285  0.00  0.00    -0.073 C 
ATOM    100  H27 non d ame     -36.660  22.049  27.984  0.00  0.00     0.028 H 
ATOM    101  H28 non d ame     -36.436  21.457  26.321  0.00  0.00     0.028 H 
ATOM    102  H29 non d ame     -37.982  21.186  27.160  0.00  0.00     0.028 H 
ENDBRANCH  93  99
ENDBRANCH  90  93
ENDBRANCH   1  90
TORSDOF 26
ENDMDL
MODEL 20
REMARK VINA RESULT:      -6.4      4.098      7.600
REMARK  26 active torsions:
REMARK  status: ('A' for Active; 'I' for Inactive)
REMARK    1  A    between atoms: C2_2  and  C3_3 
REMARK    2  A    between atoms: C4_6  and  C5_7 
REMARK       I    between atoms: C5_7  and  N2_9 
REMARK    3  A    between atoms: N2_9  and  C6_10 
REMARK    4  A    between atoms: C6_10  and  C7_11 
REMARK    5  A    between atoms: C6_10  and  C8_13 
REMARK       I    between atoms: C7_11  and  N3_14 
REMARK    6  A    between atoms: N3_14  and  C9_15 
REMARK    7  A    between atoms: C9_15  and  C10_16 
REMARK    8  A    between atoms: C9_15  and  C11_18 
REMARK       I    between atoms: C10_16  and  N4_21 
REMARK    9  A    between atoms: C11_18  and  C12_19 
REMARK   10  A    between atoms: C11_18  and  C13_20 
REMARK   11  A    between atoms: N4_21  and  C14_22 
REMARK   12  A    between atoms: C14_22  and  C15_23 
REMARK   13  A    between atoms: C14_22  and  C16_25 
REMARK       I    between atoms: C15_23  and  N6_40 
REMARK   14  A    between atoms: C16_25  and  C17_26 
REMARK   15  A    between atoms: C17_26  and  C18_27 
REMARK   16  A    between atoms: C17_26  and  C19_28 
REMARK   17  A    between atoms: C20_29  and  C21_30 
REMARK   18  A    between atoms: C20_29  and  C24_33 
REMARK   19  A    between atoms: C20_29  and  N6_40 
REMARK   20  A    between atoms: C21_30  and  C22_31 
REMARK   21  A    between atoms: C22_31  and  C23_32 
REMARK   22  A    between atoms: C23_32  and  O8_43 
REMARK   23  A    between atoms: C24_33  and  C25_34 
REMARK   24  A    between atoms: C28_38  and  O6_39 
REMARK   25  A    between atoms: C29_42  and  O8_43 
REMARK   26  A    between atoms: C29_42  and  C35_49 
ROOT
ATOM      1  C14 non d ame     -32.426   8.540  24.429  0.00  0.00     0.089 C 
ATOM      2  H20 non d ame     -31.479   8.037  24.624  0.00  0.00     0.087 H 
ENDROOT
BRANCH   1   3
ATOM      3  N4  non d ame     -33.485   7.551  24.569  0.00  0.00    -0.346 N 
ATOM      4  C10 non d ame     -33.195   6.208  25.189  0.00  0.00     0.241 C 
ATOM      5  O4  non d ame     -32.100   5.944  25.565  0.00  0.00    -0.271 OA
ATOM      6  H19 non d ame     -34.409   7.794  24.240  0.00  0.00     0.163 HD
BRANCH   4   7
ATOM      7  C9  non d ame     -34.303   5.198  25.331  0.00  0.00     0.092 C 
ATOM      8  H11 non d ame     -34.041   4.485  26.112  0.00  0.00     0.088 H 
BRANCH   7   9
ATOM      9  N3  non d ame     -35.531   5.876  25.759  0.00  0.00    -0.346 N 
ATOM     10  C7  non d ame     -36.568   5.133  26.431  0.00  0.00     0.240 C 
ATOM     11  O3  non d ame     -36.431   3.988  26.635  0.00  0.00    -0.271 OA
ATOM     12  H10 non d ame     -35.663   6.863  25.588  0.00  0.00     0.163 HD
BRANCH  10  13
ATOM     13  C6  non d ame     -37.873   5.860  26.881  0.00  0.00     0.086 C 
ATOM     14  H6  non d ame     -38.159   5.617  27.904  0.00  0.00     0.086 H 
BRANCH  13  15
ATOM     15  N2  non d ame     -37.651   7.296  26.841  0.00  0.00    -0.343 N 
ATOM     16  C5  non d ame     -38.205   8.141  27.900  0.00  0.00     0.273 C 
ATOM     17  O2  non d ame     -38.831   7.657  28.779  0.00  0.00    -0.266 OA
ATOM     18  H5  non d ame     -37.118   7.701  26.085  0.00  0.00     0.163 HD
BRANCH  16  19
ATOM     19  C4  non d ame     -37.977   9.661  27.871  0.00  0.00     0.154 A 
ATOM     20  C1  non d ame     -37.141  10.392  26.969  0.00  0.00    -0.017 A 
ATOM     21  C2  non d ame     -37.279  11.743  27.359  0.00  0.00     0.077 A 
ATOM     22  H1  non d ame     -36.527  10.003  26.156  0.00  0.00     0.091 H 
ATOM     23  O1  non d ame     -38.102  11.773  28.366  0.00  0.00    -0.218 OA
ATOM     24  N1  non d ame     -38.522  10.570  28.683  0.00  0.00    -0.123 NA
BRANCH  21  25
ATOM     25  C3  non d ame     -36.593  12.942  26.717  0.00  0.00    -0.029 C 
ATOM     26  H2  non d ame     -36.972  13.078  25.705  0.00  0.00     0.036 H 
ATOM     27  H3  non d ame     -36.799  13.835  27.306  0.00  0.00     0.036 H 
ATOM     28  H4  non d ame     -35.517  12.769  26.683  0.00  0.00     0.036 H 
ENDBRANCH  21  25
ENDBRANCH  16  19
ENDBRANCH  13  15
BRANCH  13  29
ATOM     29  C8  non d ame     -39.004   5.486  25.957  0.00  0.00    -0.049 C 
ATOM     30  H7  non d ame     -39.434   6.389  25.525  0.00  0.00     0.030 H 
ATOM     31  H8  non d ame     -38.625   4.847  25.160  0.00  0.00     0.030 H 
ATOM     32  H9  non d ame     -39.770   4.951  26.519  0.00  0.00     0.030 H 
ENDBRANCH  13  29
ENDBRANCH  10  13
ENDBRANCH   7   9
BRANCH   7  33
ATOM     33  C11 non d ame     -34.549   4.502  23.961  0.00  0.00    -0.033 C 
ATOM     34  H12 non d ame     -35.237   3.674  24.131  0.00  0.00     0.042 H 
BRANCH  33  35
ATOM     35  C12 non d ame     -35.227   5.472  22.944  0.00  0.00    -0.071 C 
ATOM     36  H13 non d ame     -36.306   5.464  23.098  0.00  0.00     0.028 H 
ATOM     37  H14 non d ame     -34.846   6.481  23.095  0.00  0.00     0.028 H 
ATOM     38  H15 non d ame     -35.004   5.147  21.927  0.00  0.00     0.028 H 
ENDBRANCH  33  35
BRANCH  33  39
ATOM     39  C13 non d ame     -33.221   3.915  23.385  0.00  0.00    -0.071 C 
ATOM     40  H16 non d ame     -32.982   4.411  22.444  0.00  0.00     0.028 H 
ATOM     41  H17 non d ame     -32.412   4.079  24.098  0.00  0.00     0.028 H 
ATOM     42  H18 non d ame     -33.340   2.846  23.212  0.00  0.00     0.028 H 
ENDBRANCH  33  39
ENDBRANCH   7  33
ENDBRANCH   4   7
ENDBRANCH   1   3
BRANCH   1  43
ATOM     43  C15 non d ame     -32.694   9.698  25.433  0.00  0.00     0.240 C 
ATOM     44  O5  non d ame     -33.493  10.537  25.168  0.00  0.00    -0.271 OA
ATOM     45  N6  non d ame     -31.961   9.754  26.730  0.00  0.00    -0.355 N 
ATOM     46  H46 non d ame     -31.284   9.044  26.969  0.00  0.00     0.162 HD
BRANCH  45  47
ATOM     47  C20 non d ame     -32.228  10.860  27.675  0.00  0.00     0.013 C 
ATOM     48  H30 non d ame     -31.522  10.774  28.501  0.00  0.00     0.072 H 
BRANCH  47  49
ATOM     49  C21 non d ame     -33.645  10.746  28.191  0.00  0.00    -0.038 C 
ATOM     50  H31 non d ame     -33.892  11.728  28.595  0.00  0.00     0.036 H 
ATOM     51  H32 non d ame     -34.226  10.333  27.367  0.00  0.00     0.036 H 
BRANCH  49  52
ATOM     52  C22 non d ame     -33.777   9.747  29.362  0.00  0.00     0.018 C 
ATOM     53  H33 non d ame     -32.759   9.451  29.614  0.00  0.00     0.048 H 
ATOM     54  H34 non d ame     -34.400  10.244  30.105  0.00  0.00     0.048 H 
BRANCH  52  55
ATOM     55  C23 non d ame     -34.522   8.436  28.985  0.00  0.00     0.259 C 
ATOM     56  O7  non d ame     -34.591   8.086  27.852  0.00  0.00    -0.265 OA
BRANCH  55  57
ATOM     57  O8  non d ame     -35.134   7.663  30.011  0.00  0.00    -0.317 OA
BRANCH  57  58
ATOM     58  C29 non d ame     -35.546   6.360  29.590  0.00  0.00     0.052 C 
ATOM     59  H47 non d ame     -36.460   6.146  30.145  0.00  0.00     0.082 H 
ATOM     60  H48 non d ame     -35.565   6.393  28.501  0.00  0.00     0.082 H 
BRANCH  58  61
ATOM     61  C35 non d ame     -34.456   5.347  30.031  0.00  0.00    -0.034 A 
ATOM     62  C30 non d ame     -34.294   5.040  31.378  0.00  0.00    -0.075 A 
ATOM     63  C31 non d ame     -33.315   4.130  31.774  0.00  0.00    -0.082 A 
ATOM     64  H49 non d ame     -34.935   5.511  32.123  0.00  0.00     0.084 H 
ATOM     65  C32 non d ame     -32.492   3.529  30.817  0.00  0.00    -0.083 A 
ATOM     66  H50 non d ame     -33.192   3.890  32.831  0.00  0.00     0.083 H 
ATOM     67  C33 non d ame     -32.655   3.842  29.474  0.00  0.00    -0.082 A 
ATOM     68  H51 non d ame     -31.725   2.817  31.118  0.00  0.00     0.083 H 
ATOM     69  C34 non d ame     -33.634   4.748  29.074  0.00  0.00    -0.075 A 
ATOM     70  H52 non d ame     -32.010   3.373  28.730  0.00  0.00     0.083 H 
ATOM     71  H53 non d ame     -33.756   4.988  28.017  0.00  0.00     0.084 H 
ENDBRANCH  58  61
ENDBRANCH  57  58
ENDBRANCH  55  57
ENDBRANCH  52  55
ENDBRANCH  49  52
ENDBRANCH  47  49
BRANCH  47  72
ATOM     72  C24 non d ame     -32.052  12.201  26.964  0.00  0.00    -0.039 C 
ATOM     73  H35 non d ame     -31.410  11.993  26.108  0.00  0.00     0.036 H 
ATOM     74  H36 non d ame     -33.061  12.582  26.808  0.00  0.00     0.036 H 
BRANCH  72  75
ATOM     75  C25 non d ame     -31.282  13.263  27.885  0.00  0.00    -0.001 C 
ATOM     76  C26 non d ame     -30.686  12.516  29.222  0.00  0.00    -0.035 C 
ATOM     77  C27 non d ame     -31.075  13.209  30.319  0.00  0.00     0.085 C 
ATOM     78  H38 non d ame     -31.162  11.544  29.352  0.00  0.00     0.036 H 
ATOM     79  H39 non d ame     -29.599  12.597  29.243  0.00  0.00     0.036 H 
ATOM     80  N5  non d ame     -32.152  14.169  29.875  0.00  0.00    -0.049 N 
ATOM     81  H40 non d ame     -31.513  12.469  30.990  0.00  0.00     0.075 H 
ATOM     82  H41 non d ame     -30.199  13.776  30.631  0.00  0.00     0.075 H 
ATOM     83  C28 non d ame     -32.072  14.212  28.263  0.00  0.00     0.193 C 
ATOM     84  H42 non d ame     -33.033  13.755  30.143  0.00  0.00     0.280 HD
ATOM     85  H43 non d ame     -31.890  15.076  30.235  0.00  0.00     0.280 HD
ATOM     86  H44 non d ame     -31.619  15.062  27.754  0.00  0.00     0.129 H 
ATOM     87  H37 non d ame     -30.591  13.881  27.312  0.00  0.00     0.046 H 
BRANCH  83  88
ATOM     88  O6  non d ame     -33.379  14.082  27.702  0.00  0.00    -0.369 OA
ATOM     89  H45 non d ame     -33.990  14.649  28.178  0.00  0.00     0.212 HD
ENDBRANCH  83  88
ENDBRANCH  72  75
ENDBRANCH  47  72
ENDBRANCH  45  47
ENDBRANCH   1  43
BRANCH   1  90
ATOM     90  C16 non d ame     -32.439   9.083  23.009  0.00  0.00    -0.035 C 
ATOM     91  H21 non d ame     -33.471   8.986  22.672  0.00  0.00     0.037 H 
ATOM     92  H22 non d ame     -31.976  10.067  23.072  0.00  0.00     0.037 H 
BRANCH  90  93
ATOM     93  C17 non d ame     -31.571   8.250  22.012  0.00  0.00    -0.059 C 
ATOM     94  H23 non d ame     -31.073   8.950  21.342  0.00  0.00     0.038 H 
BRANCH  93  95
ATOM     95  C18 non d ame     -30.466   7.422  22.743  0.00  0.00    -0.073 C 
ATOM     96  H24 non d ame     -30.926   6.587  23.271  0.00  0.00     0.028 H 
ATOM     97  H25 non d ame     -29.754   7.040  22.012  0.00  0.00     0.028 H 
ATOM     98  H26 non d ame     -29.946   8.060  23.457  0.00  0.00     0.028 H 
ENDBRANCH  93  95
BRANCH  93  99
ATOM     99  C19 non d ame     -32.450   7.341  21.149  0.00  0.00    -0.073 C 
ATOM    100  H27 non d ame     -33.491   7.655  21.234  0.00  0.00     0.028 H 
ATOM    101  H28 non d ame     -32.134   7.411  20.108  0.00  0.00     0.028 H 
ATOM    102  H29 non d ame     -32.352   6.311  21.489  0.00  0.00     0.028 H 
ENDBRANCH  93  99
ENDBRANCH  90  93
ENDBRANCH   1  90
TORSDOF 26
ENDMDL
