MODEL 1
REMARK VINA RESULT:      -6.7      0.000      0.000
REMARK  26 active torsions:
REMARK  status: ('A' for Active; 'I' for Inactive)
REMARK    1  A    between atoms: C2_2  and  C3_3 
REMARK    2  A    between atoms: C4_6  and  C5_7 
REMARK       I    between atoms: C5_7  and  N2_9 
REMARK    3  A    between atoms: N2_9  and  C6_10 
REMARK    4  A    between atoms: C6_10  and  C7_11 
REMARK    5  A    between atoms: C6_10  and  C8_13 
REMARK       I    between atoms: C7_11  and  N3_14 
REMARK    6  A    between atoms: N3_14  and  C9_15 
REMARK    7  A    between atoms: C9_15  and  C10_16 
REMARK    8  A    between atoms: C9_15  and  C11_18 
REMARK       I    between atoms: C10_16  and  N4_21 
REMARK    9  A    between atoms: C11_18  and  C12_19 
REMARK   10  A    between atoms: C11_18  and  C13_20 
REMARK   11  A    between atoms: N4_21  and  C14_22 
REMARK   12  A    between atoms: C14_22  and  C15_23 
REMARK   13  A    between atoms: C14_22  and  C16_25 
REMARK       I    between atoms: C15_23  and  N6_40 
REMARK   14  A    between atoms: C16_25  and  C17_26 
REMARK   15  A    between atoms: C17_26  and  C18_27 
REMARK   16  A    between atoms: C17_26  and  C19_28 
REMARK   17  A    between atoms: C20_29  and  C21_30 
REMARK   18  A    between atoms: C20_29  and  C24_33 
REMARK   19  A    between atoms: C20_29  and  N6_40 
REMARK   20  A    between atoms: C21_30  and  C22_31 
REMARK   21  A    between atoms: C22_31  and  C23_32 
REMARK   22  A    between atoms: C23_32  and  O8_43 
REMARK   23  A    between atoms: C24_33  and  C25_34 
REMARK   24  A    between atoms: C28_38  and  O6_39 
REMARK   25  A    between atoms: C29_42  and  O8_43 
REMARK   26  A    between atoms: C29_42  and  C35_49 
ROOT
ATOM      1  C14 non d ame     -35.850  12.829  26.065  0.00  0.00     0.089 C 
ATOM      2  H20 non d ame     -36.579  12.626  26.849  0.00  0.00     0.087 H 
ENDROOT
BRANCH   1   3
ATOM      3  N4  non d ame     -35.686  14.273  25.982  0.00  0.00    -0.346 N 
ATOM      4  C10 non d ame     -36.787  15.192  26.445  0.00  0.00     0.241 C 
ATOM      5  O4  non d ame     -37.799  14.747  26.878  0.00  0.00    -0.271 OA
ATOM      6  H19 non d ame     -34.818  14.632  25.609  0.00  0.00     0.163 HD
BRANCH   4   7
ATOM      7  C9  non d ame     -36.598  16.684  26.358  0.00  0.00     0.092 C 
ATOM      8  H11 non d ame     -36.852  17.134  27.318  0.00  0.00     0.088 H 
BRANCH   7   9
ATOM      9  N3  non d ame     -35.187  16.983  26.099  0.00  0.00    -0.346 N 
ATOM     10  C7  non d ame     -34.310  17.323  27.193  0.00  0.00     0.240 C 
ATOM     11  O3  non d ame     -34.724  17.362  28.287  0.00  0.00    -0.271 OA
ATOM     12  H10 non d ame     -34.815  16.956  25.160  0.00  0.00     0.163 HD
BRANCH  10  13
ATOM     13  C6  non d ame     -32.809  17.644  26.910  0.00  0.00     0.086 C 
ATOM     14  H6  non d ame     -32.135  17.173  27.626  0.00  0.00     0.086 H 
BRANCH  13  15
ATOM     15  N2  non d ame     -32.454  17.125  25.600  0.00  0.00    -0.343 N 
ATOM     16  C5  non d ame     -31.655  15.902  25.501  0.00  0.00     0.273 C 
ATOM     17  O2  non d ame     -31.300  15.345  26.481  0.00  0.00    -0.266 OA
ATOM     18  H5  non d ame     -32.760  17.609  24.768  0.00  0.00     0.163 HD
BRANCH  16  19
ATOM     19  C4  non d ame     -31.274  15.340  24.122  0.00  0.00     0.154 A 
ATOM     20  C1  non d ame     -31.253  16.046  22.877  0.00  0.00    -0.017 A 
ATOM     21  C2  non d ame     -30.838  15.089  21.924  0.00  0.00     0.077 A 
ATOM     22  H1  non d ame     -31.501  17.092  22.694  0.00  0.00     0.091 H 
ATOM     23  O1  non d ame     -30.645  13.970  22.558  0.00  0.00    -0.218 OA
ATOM     24  N1  non d ame     -30.893  14.091  23.842  0.00  0.00    -0.123 NA
BRANCH  21  25
ATOM     25  C3  non d ame     -30.650  15.326  20.432  0.00  0.00    -0.029 C 
ATOM     26  H2  non d ame     -31.542  15.001  19.897  0.00  0.00     0.036 H 
ATOM     27  H3  non d ame     -30.486  16.388  20.251  0.00  0.00     0.036 H 
ATOM     28  H4  non d ame     -29.788  14.760  20.079  0.00  0.00     0.036 H 
ENDBRANCH  21  25
ENDBRANCH  16  19
ENDBRANCH  13  15
BRANCH  13  29
ATOM     29  C8  non d ame     -32.595  19.136  26.950  0.00  0.00    -0.049 C 
ATOM     30  H7  non d ame     -31.526  19.350  26.943  0.00  0.00     0.030 H 
ATOM     31  H8  non d ame     -33.063  19.593  26.079  0.00  0.00     0.030 H 
ATOM     32  H9  non d ame     -33.041  19.543  27.858  0.00  0.00     0.030 H 
ENDBRANCH  13  29
ENDBRANCH  10  13
ENDBRANCH   7   9
BRANCH   7  33
ATOM     33  C11 non d ame     -37.467  17.250  25.197  0.00  0.00    -0.033 C 
ATOM     34  H12 non d ame     -38.499  17.285  25.546  0.00  0.00     0.042 H 
BRANCH  33  35
ATOM     35  C12 non d ame     -37.046  18.707  24.831  0.00  0.00    -0.071 C 
ATOM     36  H13 non d ame     -35.971  18.821  24.969  0.00  0.00     0.028 H 
ATOM     37  H14 non d ame     -37.303  18.909  23.791  0.00  0.00     0.028 H 
ATOM     38  H15 non d ame     -37.571  19.410  25.477  0.00  0.00     0.028 H 
ENDBRANCH  33  35
BRANCH  33  39
ATOM     39  C13 non d ame     -37.410  16.313  23.948  0.00  0.00    -0.071 C 
ATOM     40  H16 non d ame     -36.379  16.010  23.767  0.00  0.00     0.028 H 
ATOM     41  H17 non d ame     -38.023  15.429  24.129  0.00  0.00     0.028 H 
ATOM     42  H18 non d ame     -37.791  16.845  23.077  0.00  0.00     0.028 H 
ENDBRANCH  33  39
ENDBRANCH   7  33
ENDBRANCH   4   7
ENDBRANCH   1   3
BRANCH   1  43
ATOM     43  C15 non d ame     -34.465  12.190  26.371  0.00  0.00     0.240 C 
ATOM     44  O5  non d ame     -33.480  12.658  25.898  0.00  0.00    -0.271 OA
ATOM     45  N6  non d ame     -34.366  10.998  27.261  0.00  0.00    -0.355 N 
ATOM     46  H46 non d ame     -35.195  10.594  27.673  0.00  0.00     0.162 HD
BRANCH  45  47
ATOM     47  C20 non d ame     -33.042  10.403  27.544  0.00  0.00     0.013 C 
ATOM     48  H30 non d ame     -32.293  10.973  26.994  0.00  0.00     0.072 H 
BRANCH  47  49
ATOM     49  C21 non d ame     -33.034   8.962  27.085  0.00  0.00    -0.038 C 
ATOM     50  H31 non d ame     -32.254   8.900  26.325  0.00  0.00     0.036 H 
ATOM     51  H32 non d ame     -32.959   8.364  27.993  0.00  0.00     0.036 H 
BRANCH  49  52
ATOM     52  C22 non d ame     -34.351   8.546  26.394  0.00  0.00     0.018 C 
ATOM     53  H33 non d ame     -34.933   8.030  27.157  0.00  0.00     0.048 H 
ATOM     54  H34 non d ame     -34.740   9.452  25.931  0.00  0.00     0.048 H 
BRANCH  52  55
ATOM     55  C23 non d ame     -34.157   7.523  25.240  0.00  0.00     0.259 C 
ATOM     56  O7  non d ame     -33.817   6.408  25.473  0.00  0.00    -0.265 OA
BRANCH  55  57
ATOM     57  O8  non d ame     -34.377   7.938  23.898  0.00  0.00    -0.317 OA
BRANCH  57  58
ATOM     58  C29 non d ame     -34.067   9.314  23.655  0.00  0.00     0.052 C 
ATOM     59  H47 non d ame     -34.666   9.603  22.791  0.00  0.00     0.082 H 
ATOM     60  H48 non d ame     -34.207   9.820  24.609  0.00  0.00     0.082 H 
BRANCH  58  61
ATOM     61  C35 non d ame     -32.567   9.405  23.266  0.00  0.00    -0.034 A 
ATOM     62  C30 non d ame     -32.025   8.497  22.362  0.00  0.00    -0.075 A 
ATOM     63  C31 non d ame     -30.678   8.579  22.013  0.00  0.00    -0.082 A 
ATOM     64  H49 non d ame     -32.656   7.721  21.927  0.00  0.00     0.084 H 
ATOM     65  C32 non d ame     -29.871   9.573  22.573  0.00  0.00    -0.083 A 
ATOM     66  H50 non d ame     -30.257   7.867  21.302  0.00  0.00     0.083 H 
ATOM     67  C33 non d ame     -30.416  10.474  23.478  0.00  0.00    -0.082 A 
ATOM     68  H51 non d ame     -28.817   9.645  22.305  0.00  0.00     0.083 H 
ATOM     69  C34 non d ame     -31.762  10.398  23.828  0.00  0.00    -0.075 A 
ATOM     70  H52 non d ame     -29.783  11.247  23.915  0.00  0.00     0.083 H 
ATOM     71  H53 non d ame     -32.182  11.110  24.538  0.00  0.00     0.084 H 
ENDBRANCH  58  61
ENDBRANCH  57  58
ENDBRANCH  55  57
ENDBRANCH  52  55
ENDBRANCH  49  52
ENDBRANCH  47  49
BRANCH  47  72
ATOM     72  C24 non d ame     -32.759  10.461  29.044  0.00  0.00    -0.039 C 
ATOM     73  H35 non d ame     -33.593   9.942  29.517  0.00  0.00     0.036 H 
ATOM     74  H36 non d ame     -31.743  10.082  29.162  0.00  0.00     0.036 H 
BRANCH  72  75
ATOM     75  C25 non d ame     -32.768  11.967  29.590  0.00  0.00    -0.001 C 
ATOM     76  C26 non d ame     -31.578  12.836  28.858  0.00  0.00    -0.035 C 
ATOM     77  C27 non d ame     -30.841  13.454  29.811  0.00  0.00     0.085 C 
ATOM     78  H38 non d ame     -30.866  12.164  28.380  0.00  0.00     0.036 H 
ATOM     79  H39 non d ame     -32.011  13.662  28.295  0.00  0.00     0.036 H 
ATOM     80  N5  non d ame     -31.213  12.828  31.133  0.00  0.00    -0.049 N 
ATOM     81  H40 non d ame     -29.804  13.209  29.581  0.00  0.00     0.075 H 
ATOM     82  H41 non d ame     -31.169  14.493  29.805  0.00  0.00     0.075 H 
ATOM     83  C28 non d ame     -32.574  12.003  30.866  0.00  0.00     0.193 C 
ATOM     84  H42 non d ame     -30.478  12.173  31.357  0.00  0.00     0.280 HD
ATOM     85  H43 non d ame     -31.418  13.592  31.763  0.00  0.00     0.280 HD
ATOM     86  H44 non d ame     -33.535  12.395  31.201  0.00  0.00     0.129 H 
ATOM     87  H37 non d ame     -33.768  12.400  29.591  0.00  0.00     0.046 H 
BRANCH  83  88
ATOM     88  O6  non d ame     -32.477  10.695  31.433  0.00  0.00    -0.369 OA
ATOM     89  H45 non d ame     -32.696  10.040  30.766  0.00  0.00     0.212 HD
ENDBRANCH  83  88
ENDBRANCH  72  75
ENDBRANCH  47  72
ENDBRANCH  45  47
ENDBRANCH   1  43
BRANCH   1  90
ATOM     90  C16 non d ame     -36.368  12.312  24.733  0.00  0.00    -0.035 C 
ATOM     91  H21 non d ame     -36.558  13.201  24.132  0.00  0.00     0.037 H 
ATOM     92  H22 non d ame     -35.633  11.577  24.402  0.00  0.00     0.037 H 
BRANCH  90  93
ATOM     93  C17 non d ame     -37.730  11.555  24.841  0.00  0.00    -0.059 C 
ATOM     94  H23 non d ame     -38.512  12.229  24.490  0.00  0.00     0.038 H 
BRANCH  93  95
ATOM     95  C18 non d ame     -37.767  10.275  23.946  0.00  0.00    -0.073 C 
ATOM     96  H24 non d ame     -38.702  10.248  23.388  0.00  0.00     0.028 H 
ATOM     97  H25 non d ame     -36.929  10.295  23.249  0.00  0.00     0.028 H 
ATOM     98  H26 non d ame     -37.694   9.389  24.577  0.00  0.00     0.028 H 
ENDBRANCH  93  95
BRANCH  93  99
ATOM     99  C19 non d ame     -38.049  11.210  26.298  0.00  0.00    -0.073 C 
ATOM    100  H27 non d ame     -39.057  11.549  26.540  0.00  0.00     0.028 H 
ATOM    101  H28 non d ame     -37.985  10.131  26.439  0.00  0.00     0.028 H 
ATOM    102  H29 non d ame     -37.333  11.705  26.954  0.00  0.00     0.028 H 
ENDBRANCH  93  99
ENDBRANCH  90  93
ENDBRANCH   1  90
TORSDOF 26
ENDMDL
MODEL 2
REMARK VINA RESULT:      -6.6      3.114      9.070
REMARK  26 active torsions:
REMARK  status: ('A' for Active; 'I' for Inactive)
REMARK    1  A    between atoms: C2_2  and  C3_3 
REMARK    2  A    between atoms: C4_6  and  C5_7 
REMARK       I    between atoms: C5_7  and  N2_9 
REMARK    3  A    between atoms: N2_9  and  C6_10 
REMARK    4  A    between atoms: C6_10  and  C7_11 
REMARK    5  A    between atoms: C6_10  and  C8_13 
REMARK       I    between atoms: C7_11  and  N3_14 
REMARK    6  A    between atoms: N3_14  and  C9_15 
REMARK    7  A    between atoms: C9_15  and  C10_16 
REMARK    8  A    between atoms: C9_15  and  C11_18 
REMARK       I    between atoms: C10_16  and  N4_21 
REMARK    9  A    between atoms: C11_18  and  C12_19 
REMARK   10  A    between atoms: C11_18  and  C13_20 
REMARK   11  A    between atoms: N4_21  and  C14_22 
REMARK   12  A    between atoms: C14_22  and  C15_23 
REMARK   13  A    between atoms: C14_22  and  C16_25 
REMARK       I    between atoms: C15_23  and  N6_40 
REMARK   14  A    between atoms: C16_25  and  C17_26 
REMARK   15  A    between atoms: C17_26  and  C18_27 
REMARK   16  A    between atoms: C17_26  and  C19_28 
REMARK   17  A    between atoms: C20_29  and  C21_30 
REMARK   18  A    between atoms: C20_29  and  C24_33 
REMARK   19  A    between atoms: C20_29  and  N6_40 
REMARK   20  A    between atoms: C21_30  and  C22_31 
REMARK   21  A    between atoms: C22_31  and  C23_32 
REMARK   22  A    between atoms: C23_32  and  O8_43 
REMARK   23  A    between atoms: C24_33  and  C25_34 
REMARK   24  A    between atoms: C28_38  and  O6_39 
REMARK   25  A    between atoms: C29_42  and  O8_43 
REMARK   26  A    between atoms: C29_42  and  C35_49 
ROOT
ATOM      1  C14 non d ame     -32.623   8.631  24.907  0.00  0.00     0.089 C 
ATOM      2  H20 non d ame     -31.564   8.446  24.728  0.00  0.00     0.087 H 
ENDROOT
BRANCH   1   3
ATOM      3  N4  non d ame     -33.219   7.380  25.351  0.00  0.00    -0.346 N 
ATOM      4  C10 non d ame     -32.503   6.072  25.122  0.00  0.00     0.241 C 
ATOM      5  O4  non d ame     -31.450   6.052  24.575  0.00  0.00    -0.271 OA
ATOM      6  H19 non d ame     -34.116   7.418  25.813  0.00  0.00     0.163 HD
BRANCH   4   7
ATOM      7  C9  non d ame     -33.131   4.787  25.594  0.00  0.00     0.092 C 
ATOM      8  H11 non d ame     -32.469   4.308  26.316  0.00  0.00     0.088 H 
BRANCH   7   9
ATOM      9  N3  non d ame     -34.388   5.083  26.288  0.00  0.00    -0.346 N 
ATOM     10  C7  non d ame     -34.592   4.618  27.638  0.00  0.00     0.240 C 
ATOM     11  O3  non d ame     -33.756   4.004  28.180  0.00  0.00    -0.271 OA
ATOM     12  H10 non d ame     -35.119   5.610  25.833  0.00  0.00     0.163 HD
BRANCH  10  13
ATOM     13  C6  non d ame     -35.933   4.934  28.371  0.00  0.00     0.086 C 
ATOM     14  H6  non d ame     -36.125   4.261  29.206  0.00  0.00     0.086 H 
BRANCH  13  15
ATOM     15  N2  non d ame     -35.863   6.276  28.925  0.00  0.00    -0.343 N 
ATOM     16  C5  non d ame     -36.495   6.556  30.216  0.00  0.00     0.273 C 
ATOM     17  O2  non d ame     -37.060   5.697  30.799  0.00  0.00    -0.266 OA
ATOM     18  H5  non d ame     -35.381   7.005  28.419  0.00  0.00     0.163 HD
BRANCH  16  19
ATOM     19  C4  non d ame     -36.428   7.970  30.815  0.00  0.00     0.154 A 
ATOM     20  C1  non d ame     -35.461   8.470  31.744  0.00  0.00    -0.017 A 
ATOM     21  C2  non d ame     -35.839   9.812  31.975  0.00  0.00     0.077 A 
ATOM     22  H1  non d ame     -34.615   7.941  32.183  0.00  0.00     0.091 H 
ATOM     23  O1  non d ame     -36.899  10.045  31.257  0.00  0.00    -0.218 OA
ATOM     24  N1  non d ame     -37.262   8.985  30.572  0.00  0.00    -0.123 NA
BRANCH  21  25
ATOM     25  C3  non d ame     -35.135  10.801  32.894  0.00  0.00    -0.029 C 
ATOM     26  H2  non d ame     -34.775  10.281  33.781  0.00  0.00     0.036 H 
ATOM     27  H3  non d ame     -34.292  11.249  32.368  0.00  0.00     0.036 H 
ATOM     28  H4  non d ame     -35.835  11.583  33.191  0.00  0.00     0.036 H 
ENDBRANCH  21  25
ENDBRANCH  16  19
ENDBRANCH  13  15
BRANCH  13  29
ATOM     29  C8  non d ame     -37.077   4.838  27.394  0.00  0.00    -0.049 C 
ATOM     30  H7  non d ame     -37.417   3.804  27.334  0.00  0.00     0.030 H 
ATOM     31  H8  non d ame     -37.897   5.470  27.732  0.00  0.00     0.030 H 
ATOM     32  H9  non d ame     -36.744   5.168  26.410  0.00  0.00     0.030 H 
ENDBRANCH  13  29
ENDBRANCH  10  13
ENDBRANCH   7   9
BRANCH   7  33
ATOM     33  C11 non d ame     -33.422   3.872  24.369  0.00  0.00    -0.033 C 
ATOM     34  H12 non d ame     -32.498   3.785  23.796  0.00  0.00     0.042 H 
BRANCH  33  35
ATOM     35  C12 non d ame     -33.831   2.434  24.818  0.00  0.00    -0.071 C 
ATOM     36  H13 non d ame     -34.896   2.415  25.048  0.00  0.00     0.028 H 
ATOM     37  H14 non d ame     -33.621   1.729  24.014  0.00  0.00     0.028 H 
ATOM     38  H15 non d ame     -33.263   2.155  25.705  0.00  0.00     0.028 H 
ENDBRANCH  33  35
BRANCH  33  39
ATOM     39  C13 non d ame     -34.507   4.506  23.441  0.00  0.00    -0.071 C 
ATOM     40  H16 non d ame     -34.021   5.034  22.621  0.00  0.00     0.028 H 
ATOM     41  H17 non d ame     -35.147   3.720  23.040  0.00  0.00     0.028 H 
ATOM     42  H18 non d ame     -35.112   5.207  24.017  0.00  0.00     0.028 H 
ENDBRANCH  33  39
ENDBRANCH   7  33
ENDBRANCH   4   7
ENDBRANCH   1   3
BRANCH   1  43
ATOM     43  C15 non d ame     -32.854   9.707  26.006  0.00  0.00     0.240 C 
ATOM     44  O5  non d ame     -33.155   9.373  27.107  0.00  0.00    -0.271 OA
ATOM     45  N6  non d ame     -32.692  11.155  25.689  0.00  0.00    -0.355 N 
ATOM     46  H46 non d ame     -32.432  11.451  24.759  0.00  0.00     0.162 HD
BRANCH  45  47
ATOM     47  C20 non d ame     -32.913  12.166  26.746  0.00  0.00     0.013 C 
ATOM     48  H30 non d ame     -33.471  11.691  27.553  0.00  0.00     0.072 H 
BRANCH  47  49
ATOM     49  C21 non d ame     -33.710  13.318  26.176  0.00  0.00    -0.038 C 
ATOM     50  H31 non d ame     -33.245  13.552  25.218  0.00  0.00     0.036 H 
ATOM     51  H32 non d ame     -34.752  13.002  26.214  0.00  0.00     0.036 H 
BRANCH  49  52
ATOM     52  C22 non d ame     -33.609  14.598  27.034  0.00  0.00     0.018 C 
ATOM     53  H33 non d ame     -34.632  14.845  27.315  0.00  0.00     0.048 H 
ATOM     54  H34 non d ame     -32.869  14.380  27.804  0.00  0.00     0.048 H 
BRANCH  52  55
ATOM     55  C23 non d ame     -33.069  15.831  26.258  0.00  0.00     0.259 C 
ATOM     56  O7  non d ame     -33.714  16.826  26.182  0.00  0.00    -0.265 OA
BRANCH  55  57
ATOM     57  O8  non d ame     -31.797  15.754  25.625  0.00  0.00    -0.317 OA
BRANCH  57  58
ATOM     58  C29 non d ame     -31.799  16.182  24.261  0.00  0.00     0.052 C 
ATOM     59  H47 non d ame     -32.835  16.114  23.931  0.00  0.00     0.082 H 
ATOM     60  H48 non d ame     -31.286  17.144  24.252  0.00  0.00     0.082 H 
BRANCH  58  61
ATOM     61  C35 non d ame     -30.955  15.170  23.440  0.00  0.00    -0.034 A 
ATOM     62  C30 non d ame     -30.975  13.818  23.770  0.00  0.00    -0.075 A 
ATOM     63  C31 non d ame     -30.218  12.909  23.033  0.00  0.00    -0.082 A 
ATOM     64  H49 non d ame     -31.584  13.472  24.605  0.00  0.00     0.084 H 
ATOM     65  C32 non d ame     -29.436  13.356  21.965  0.00  0.00    -0.083 A 
ATOM     66  H50 non d ame     -30.237  11.850  23.293  0.00  0.00     0.083 H 
ATOM     67  C33 non d ame     -29.416  14.706  21.642  0.00  0.00    -0.082 A 
ATOM     68  H51 non d ame     -28.841  12.651  21.384  0.00  0.00     0.083 H 
ATOM     69  C34 non d ame     -30.173  15.618  22.374  0.00  0.00    -0.075 A 
ATOM     70  H52 non d ame     -28.803  15.051  20.809  0.00  0.00     0.083 H 
ATOM     71  H53 non d ame     -30.154  16.676  22.114  0.00  0.00     0.084 H 
ENDBRANCH  58  61
ENDBRANCH  57  58
ENDBRANCH  55  57
ENDBRANCH  52  55
ENDBRANCH  49  52
ENDBRANCH  47  49
BRANCH  47  72
ATOM     72  C24 non d ame     -31.570  12.679  27.259  0.00  0.00    -0.039 C 
ATOM     73  H35 non d ame     -30.828  12.308  26.552  0.00  0.00     0.036 H 
ATOM     74  H36 non d ame     -31.702  13.752  27.396  0.00  0.00     0.036 H 
BRANCH  72  75
ATOM     75  C25 non d ame     -31.208  12.061  28.692  0.00  0.00    -0.001 C 
ATOM     76  C26 non d ame     -32.587  11.706  29.514  0.00  0.00    -0.035 C 
ATOM     77  C27 non d ame     -32.517  12.265  30.746  0.00  0.00     0.085 C 
ATOM     78  H38 non d ame     -33.437  12.210  29.053  0.00  0.00     0.036 H 
ATOM     79  H39 non d ame     -32.635  10.637  29.721  0.00  0.00     0.036 H 
ATOM     80  N5  non d ame     -31.365  13.239  30.724  0.00  0.00    -0.049 N 
ATOM     81  H40 non d ame     -33.449  12.818  30.868  0.00  0.00     0.075 H 
ATOM     82  H41 non d ame     -32.277  11.446  31.423  0.00  0.00     0.075 H 
ATOM     83  C28 non d ame     -30.513  12.891  29.397  0.00  0.00     0.193 C 
ATOM     84  H42 non d ame     -31.769  14.158  30.614  0.00  0.00     0.280 HD
ATOM     85  H43 non d ame     -30.799  13.030  31.534  0.00  0.00     0.280 HD
ATOM     86  H44 non d ame     -29.571  12.348  29.471  0.00  0.00     0.129 H 
ATOM     87  H37 non d ame     -30.455  11.276  28.625  0.00  0.00     0.046 H 
BRANCH  83  88
ATOM     88  O6  non d ame     -30.210  14.087  28.678  0.00  0.00    -0.369 OA
ATOM     89  H45 non d ame     -29.286  14.076  28.414  0.00  0.00     0.212 HD
ENDBRANCH  83  88
ENDBRANCH  72  75
ENDBRANCH  47  72
ENDBRANCH  45  47
ENDBRANCH   1  43
BRANCH   1  90
ATOM     90  C16 non d ame     -33.295   9.068  23.615  0.00  0.00    -0.035 C 
ATOM     91  H21 non d ame     -34.085   8.339  23.439  0.00  0.00     0.037 H 
ATOM     92  H22 non d ame     -33.546  10.119  23.761  0.00  0.00     0.037 H 
BRANCH  90  93
ATOM     93  C17 non d ame     -32.354   9.009  22.369  0.00  0.00    -0.059 C 
ATOM     94  H23 non d ame     -32.639   9.821  21.700  0.00  0.00     0.038 H 
BRANCH  93  95
ATOM     95  C18 non d ame     -30.854   9.212  22.753  0.00  0.00    -0.073 C 
ATOM     96  H24 non d ame     -30.284   9.482  21.864  0.00  0.00     0.028 H 
ATOM     97  H25 non d ame     -30.772  10.008  23.492  0.00  0.00     0.028 H 
ATOM     98  H26 non d ame     -30.457   8.287  23.171  0.00  0.00     0.028 H 
ENDBRANCH  93  95
BRANCH  93  99
ATOM     99  C19 non d ame     -32.547   7.698  21.601  0.00  0.00    -0.073 C 
ATOM    100  H27 non d ame     -32.840   7.919  20.574  0.00  0.00     0.028 H 
ATOM    101  H28 non d ame     -31.613   7.137  21.599  0.00  0.00     0.028 H 
ATOM    102  H29 non d ame     -33.326   7.106  22.082  0.00  0.00     0.028 H 
ENDBRANCH  93  99
ENDBRANCH  90  93
ENDBRANCH   1  90
TORSDOF 26
ENDMDL
MODEL 3
REMARK VINA RESULT:      -6.4      3.281      6.334
REMARK  26 active torsions:
REMARK  status: ('A' for Active; 'I' for Inactive)
REMARK    1  A    between atoms: C2_2  and  C3_3 
REMARK    2  A    between atoms: C4_6  and  C5_7 
REMARK       I    between atoms: C5_7  and  N2_9 
REMARK    3  A    between atoms: N2_9  and  C6_10 
REMARK    4  A    between atoms: C6_10  and  C7_11 
REMARK    5  A    between atoms: C6_10  and  C8_13 
REMARK       I    between atoms: C7_11  and  N3_14 
REMARK    6  A    between atoms: N3_14  and  C9_15 
REMARK    7  A    between atoms: C9_15  and  C10_16 
REMARK    8  A    between atoms: C9_15  and  C11_18 
REMARK       I    between atoms: C10_16  and  N4_21 
REMARK    9  A    between atoms: C11_18  and  C12_19 
REMARK   10  A    between atoms: C11_18  and  C13_20 
REMARK   11  A    between atoms: N4_21  and  C14_22 
REMARK   12  A    between atoms: C14_22  and  C15_23 
REMARK   13  A    between atoms: C14_22  and  C16_25 
REMARK       I    between atoms: C15_23  and  N6_40 
REMARK   14  A    between atoms: C16_25  and  C17_26 
REMARK   15  A    between atoms: C17_26  and  C18_27 
REMARK   16  A    between atoms: C17_26  and  C19_28 
REMARK   17  A    between atoms: C20_29  and  C21_30 
REMARK   18  A    between atoms: C20_29  and  C24_33 
REMARK   19  A    between atoms: C20_29  and  N6_40 
REMARK   20  A    between atoms: C21_30  and  C22_31 
REMARK   21  A    between atoms: C22_31  and  C23_32 
REMARK   22  A    between atoms: C23_32  and  O8_43 
REMARK   23  A    between atoms: C24_33  and  C25_34 
REMARK   24  A    between atoms: C28_38  and  O6_39 
REMARK   25  A    between atoms: C29_42  and  O8_43 
REMARK   26  A    between atoms: C29_42  and  C35_49 
ROOT
ATOM      1  C14 non d ame     -34.641   8.719  31.064  0.00  0.00     0.089 C 
ATOM      2  H20 non d ame     -33.730   9.020  31.581  0.00  0.00     0.087 H 
ENDROOT
BRANCH   1   3
ATOM      3  N4  non d ame     -34.614   9.322  29.740  0.00  0.00    -0.346 N 
ATOM      4  C10 non d ame     -33.496  10.256  29.351  0.00  0.00     0.241 C 
ATOM      5  O4  non d ame     -32.630  10.510  30.122  0.00  0.00    -0.271 OA
ATOM      6  H19 non d ame     -35.362   9.096  29.099  0.00  0.00     0.163 HD
BRANCH   4   7
ATOM      7  C9  non d ame     -33.481  10.868  27.975  0.00  0.00     0.092 C 
ATOM      8  H11 non d ame     -34.435  11.360  27.791  0.00  0.00     0.088 H 
BRANCH   7   9
ATOM      9  N3  non d ame     -32.441  11.899  27.909  0.00  0.00    -0.346 N 
ATOM     10  C7  non d ame     -32.769  13.224  27.444  0.00  0.00     0.240 C 
ATOM     11  O3  non d ame     -33.864  13.478  27.118  0.00  0.00    -0.271 OA
ATOM     12  H10 non d ame     -31.491  11.695  28.185  0.00  0.00     0.163 HD
BRANCH  10  13
ATOM     13  C6  non d ame     -31.657  14.317  27.373  0.00  0.00     0.086 C 
ATOM     14  H6  non d ame     -31.143  14.333  26.413  0.00  0.00     0.086 H 
BRANCH  13  15
ATOM     15  N2  non d ame     -32.270  15.624  27.540  0.00  0.00    -0.343 N 
ATOM     16  C5  non d ame     -32.108  16.635  26.492  0.00  0.00     0.273 C 
ATOM     17  O2  non d ame     -31.481  16.387  25.521  0.00  0.00    -0.266 OA
ATOM     18  H5  non d ame     -32.802  15.828  28.374  0.00  0.00     0.163 HD
BRANCH  16  19
ATOM     19  C4  non d ame     -32.752  18.021  26.654  0.00  0.00     0.154 A 
ATOM     20  C1  non d ame     -34.149  18.329  26.668  0.00  0.00    -0.017 A 
ATOM     21  C2  non d ame     -34.211  19.730  26.843  0.00  0.00     0.077 A 
ATOM     22  H1  non d ame     -34.989  17.642  26.567  0.00  0.00     0.091 H 
ATOM     23  O1  non d ame     -32.987  20.165  26.920  0.00  0.00    -0.218 OA
ATOM     24  N1  non d ame     -32.118  19.186  26.812  0.00  0.00    -0.123 NA
BRANCH  21  25
ATOM     25  C3  non d ame     -35.476  20.573  26.926  0.00  0.00    -0.029 C 
ATOM     26  H2  non d ame     -36.224  20.049  27.520  0.00  0.00     0.036 H 
ATOM     27  H3  non d ame     -35.245  21.529  27.395  0.00  0.00     0.036 H 
ATOM     28  H4  non d ame     -35.864  20.746  25.922  0.00  0.00     0.036 H 
ENDBRANCH  21  25
ENDBRANCH  16  19
ENDBRANCH  13  15
BRANCH  13  29
ATOM     29  C8  non d ame     -30.644  14.078  28.464  0.00  0.00    -0.049 C 
ATOM     30  H7  non d ame     -29.786  14.733  28.312  0.00  0.00     0.030 H 
ATOM     31  H8  non d ame     -31.097  14.291  29.432  0.00  0.00     0.030 H 
ATOM     32  H9  non d ame     -30.317  13.039  28.436  0.00  0.00     0.030 H 
ENDBRANCH  13  29
ENDBRANCH  10  13
ENDBRANCH   7   9
BRANCH   7  33
ATOM     33  C11 non d ame     -33.179   9.763  26.920  0.00  0.00    -0.033 C 
ATOM     34  H12 non d ame     -32.969   8.840  27.461  0.00  0.00     0.042 H 
BRANCH  33  35
ATOM     35  C12 non d ame     -34.415   9.499  26.004  0.00  0.00    -0.071 C 
ATOM     36  H13 non d ame     -34.533   8.425  25.854  0.00  0.00     0.028 H 
ATOM     37  H14 non d ame     -35.311   9.900  26.478  0.00  0.00     0.028 H 
ATOM     38  H15 non d ame     -34.264   9.985  25.041  0.00  0.00     0.028 H 
ENDBRANCH  33  35
BRANCH  33  39
ATOM     39  C13 non d ame     -31.916  10.126  26.075  0.00  0.00    -0.071 C 
ATOM     40  H16 non d ame     -31.214   9.291  26.095  0.00  0.00     0.028 H 
ATOM     41  H17 non d ame     -32.213  10.328  25.046  0.00  0.00     0.028 H 
ATOM     42  H18 non d ame     -31.440  11.011  26.496  0.00  0.00     0.028 H 
ENDBRANCH  33  39
ENDBRANCH   7  33
ENDBRANCH   4   7
ENDBRANCH   1   3
BRANCH   1  43
ATOM     43  C15 non d ame     -34.742   7.175  30.903  0.00  0.00     0.240 C 
ATOM     44  O5  non d ame     -35.078   6.505  31.825  0.00  0.00    -0.271 OA
ATOM     45  N6  non d ame     -34.428   6.532  29.595  0.00  0.00    -0.355 N 
ATOM     46  H46 non d ame     -34.146   7.091  28.803  0.00  0.00     0.162 HD
BRANCH  45  47
ATOM     47  C20 non d ame     -34.529   5.063  29.457  0.00  0.00     0.013 C 
ATOM     48  H30 non d ame     -34.789   4.652  30.432  0.00  0.00     0.072 H 
BRANCH  47  49
ATOM     49  C21 non d ame     -33.198   4.511  29.002  0.00  0.00    -0.038 C 
ATOM     50  H31 non d ame     -32.455   5.253  29.295  0.00  0.00     0.036 H 
ATOM     51  H32 non d ame     -33.146   3.499  29.404  0.00  0.00     0.036 H 
BRANCH  49  52
ATOM     52  C22 non d ame     -33.098   4.376  27.467  0.00  0.00     0.018 C 
ATOM     53  H33 non d ame     -32.264   3.699  27.284  0.00  0.00     0.048 H 
ATOM     54  H34 non d ame     -34.099   4.111  27.128  0.00  0.00     0.048 H 
BRANCH  52  55
ATOM     55  C23 non d ame     -32.738   5.704  26.744  0.00  0.00     0.259 C 
ATOM     56  O7  non d ame     -32.014   6.493  27.258  0.00  0.00    -0.265 OA
BRANCH  55  57
ATOM     57  O8  non d ame     -33.295   5.973  25.463  0.00  0.00    -0.317 OA
BRANCH  57  58
ATOM     58  C29 non d ame     -32.480   5.539  24.371  0.00  0.00     0.052 C 
ATOM     59  H47 non d ame     -31.618   5.048  24.823  0.00  0.00     0.082 H 
ATOM     60  H48 non d ame     -33.143   4.978  23.712  0.00  0.00     0.082 H 
BRANCH  58  61
ATOM     61  C35 non d ame     -31.985   6.799  23.612  0.00  0.00    -0.034 A 
ATOM     62  C30 non d ame     -30.645   6.917  23.257  0.00  0.00    -0.075 A 
ATOM     63  C31 non d ame     -30.201   8.049  22.576  0.00  0.00    -0.082 A 
ATOM     64  H49 non d ame     -29.943   6.123  23.513  0.00  0.00     0.084 H 
ATOM     65  C32 non d ame     -31.102   9.067  22.252  0.00  0.00    -0.083 A 
ATOM     66  H50 non d ame     -29.150   8.138  22.298  0.00  0.00     0.083 H 
ATOM     67  C33 non d ame     -32.437   8.946  22.611  0.00  0.00    -0.082 A 
ATOM     68  H51 non d ame     -30.763   9.955  21.719  0.00  0.00     0.083 H 
ATOM     69  C34 non d ame     -32.886   7.816  23.290  0.00  0.00    -0.075 A 
ATOM     70  H52 non d ame     -33.137   9.743  22.358  0.00  0.00     0.083 H 
ATOM     71  H53 non d ame     -33.937   7.727  23.567  0.00  0.00     0.084 H 
ENDBRANCH  58  61
ENDBRANCH  57  58
ENDBRANCH  55  57
ENDBRANCH  52  55
ENDBRANCH  49  52
ENDBRANCH  47  49
BRANCH  47  72
ATOM     72  C24 non d ame     -35.604   4.714  28.430  0.00  0.00    -0.039 C 
ATOM     73  H35 non d ame     -35.102   4.744  27.463  0.00  0.00     0.036 H 
ATOM     74  H36 non d ame     -36.051   3.784  28.783  0.00  0.00     0.036 H 
BRANCH  72  75
ATOM     75  C25 non d ame     -36.768   5.814  28.393  0.00  0.00    -0.001 C 
ATOM     76  C26 non d ame     -38.107   5.238  29.155  0.00  0.00    -0.035 C 
ATOM     77  C27 non d ame     -39.176   5.394  28.337  0.00  0.00     0.085 C 
ATOM     78  H38 non d ame     -38.033   4.158  29.275  0.00  0.00     0.036 H 
ATOM     79  H39 non d ame     -38.349   5.867  30.013  0.00  0.00     0.036 H 
ATOM     80  N5  non d ame     -38.637   5.720  26.965  0.00  0.00    -0.049 N 
ATOM     81  H40 non d ame     -39.662   4.419  28.306  0.00  0.00     0.075 H 
ATOM     82  H41 non d ame     -39.714   6.259  28.723  0.00  0.00     0.075 H 
ATOM     83  C28 non d ame     -37.087   6.117  27.179  0.00  0.00     0.193 C 
ATOM     84  H42 non d ame     -38.680   4.865  26.430  0.00  0.00     0.280 HD
ATOM     85  H43 non d ame     -39.138   6.539  26.650  0.00  0.00     0.280 HD
ATOM     86  H44 non d ame     -36.773   7.160  27.146  0.00  0.00     0.129 H 
ATOM     87  H37 non d ame     -36.414   6.801  28.691  0.00  0.00     0.046 H 
BRANCH  83  88
ATOM     88  O6  non d ame     -36.269   5.440  26.223  0.00  0.00    -0.369 OA
ATOM     89  H45 non d ame     -36.469   5.768  25.342  0.00  0.00     0.212 HD
ENDBRANCH  83  88
ENDBRANCH  72  75
ENDBRANCH  47  72
ENDBRANCH  45  47
ENDBRANCH   1  43
BRANCH   1  90
ATOM     90  C16 non d ame     -35.856   9.234  31.819  0.00  0.00    -0.035 C 
ATOM     91  H21 non d ame     -36.037   8.504  32.608  0.00  0.00     0.037 H 
ATOM     92  H22 non d ame     -35.619  10.267  32.076  0.00  0.00     0.037 H 
BRANCH  90  93
ATOM     93  C17 non d ame     -37.157   9.281  30.956  0.00  0.00    -0.059 C 
ATOM     94  H23 non d ame     -36.885   9.021  29.933  0.00  0.00     0.038 H 
BRANCH  93  95
ATOM     95  C18 non d ame     -38.225   8.249  31.443  0.00  0.00    -0.073 C 
ATOM     96  H24 non d ame     -38.887   7.994  30.616  0.00  0.00     0.028 H 
ATOM     97  H25 non d ame     -37.724   7.349  31.798  0.00  0.00     0.028 H 
ATOM     98  H26 non d ame     -38.807   8.685  32.254  0.00  0.00     0.028 H 
ENDBRANCH  93  95
BRANCH  93  99
ATOM     99  C19 non d ame     -37.741  10.696  30.925  0.00  0.00    -0.073 C 
ATOM    100  H27 non d ame     -37.836  11.073  31.943  0.00  0.00     0.028 H 
ATOM    101  H28 non d ame     -37.081  11.350  30.355  0.00  0.00     0.028 H 
ATOM    102  H29 non d ame     -38.723  10.673  30.453  0.00  0.00     0.028 H 
ENDBRANCH  93  99
ENDBRANCH  90  93
ENDBRANCH   1  90
TORSDOF 26
ENDMDL
MODEL 4
REMARK VINA RESULT:      -6.3      2.142      7.012
REMARK  26 active torsions:
REMARK  status: ('A' for Active; 'I' for Inactive)
REMARK    1  A    between atoms: C2_2  and  C3_3 
REMARK    2  A    between atoms: C4_6  and  C5_7 
REMARK       I    between atoms: C5_7  and  N2_9 
REMARK    3  A    between atoms: N2_9  and  C6_10 
REMARK    4  A    between atoms: C6_10  and  C7_11 
REMARK    5  A    between atoms: C6_10  and  C8_13 
REMARK       I    between atoms: C7_11  and  N3_14 
REMARK    6  A    between atoms: N3_14  and  C9_15 
REMARK    7  A    between atoms: C9_15  and  C10_16 
REMARK    8  A    between atoms: C9_15  and  C11_18 
REMARK       I    between atoms: C10_16  and  N4_21 
REMARK    9  A    between atoms: C11_18  and  C12_19 
REMARK   10  A    between atoms: C11_18  and  C13_20 
REMARK   11  A    between atoms: N4_21  and  C14_22 
REMARK   12  A    between atoms: C14_22  and  C15_23 
REMARK   13  A    between atoms: C14_22  and  C16_25 
REMARK       I    between atoms: C15_23  and  N6_40 
REMARK   14  A    between atoms: C16_25  and  C17_26 
REMARK   15  A    between atoms: C17_26  and  C18_27 
REMARK   16  A    between atoms: C17_26  and  C19_28 
REMARK   17  A    between atoms: C20_29  and  C21_30 
REMARK   18  A    between atoms: C20_29  and  C24_33 
REMARK   19  A    between atoms: C20_29  and  N6_40 
REMARK   20  A    between atoms: C21_30  and  C22_31 
REMARK   21  A    between atoms: C22_31  and  C23_32 
REMARK   22  A    between atoms: C23_32  and  O8_43 
REMARK   23  A    between atoms: C24_33  and  C25_34 
REMARK   24  A    between atoms: C28_38  and  O6_39 
REMARK   25  A    between atoms: C29_42  and  O8_43 
REMARK   26  A    between atoms: C29_42  and  C35_49 
ROOT
ATOM      1  C14 non d ame     -32.384   9.874  24.407  0.00  0.00     0.089 C 
ATOM      2  H20 non d ame     -32.343   8.918  24.929  0.00  0.00     0.087 H 
ENDROOT
BRANCH   1   3
ATOM      3  N4  non d ame     -33.783  10.265  24.318  0.00  0.00    -0.346 N 
ATOM      4  C10 non d ame     -34.687  10.137  25.517  0.00  0.00     0.241 C 
ATOM      5  O4  non d ame     -34.267   9.713  26.543  0.00  0.00    -0.271 OA
ATOM      6  H19 non d ame     -34.121  10.622  23.435  0.00  0.00     0.163 HD
BRANCH   4   7
ATOM      7  C9  non d ame     -36.131  10.552  25.409  0.00  0.00     0.092 C 
ATOM      8  H11 non d ame     -36.540  10.690  26.410  0.00  0.00     0.088 H 
BRANCH   7   9
ATOM      9  N3  non d ame     -36.218  11.845  24.723  0.00  0.00    -0.346 N 
ATOM     10  C7  non d ame     -36.857  12.963  25.372  0.00  0.00     0.240 C 
ATOM     11  O3  non d ame     -37.308  12.840  26.445  0.00  0.00    -0.271 OA
ATOM     12  H10 non d ame     -35.835  11.966  23.796  0.00  0.00     0.163 HD
BRANCH  10  13
ATOM     13  C6  non d ame     -36.950  14.336  24.636  0.00  0.00     0.086 C 
ATOM     14  H6  non d ame     -37.781  14.947  24.986  0.00  0.00     0.086 H 
BRANCH  13  15
ATOM     15  N2  non d ame     -35.738  15.094  24.898  0.00  0.00    -0.343 N 
ATOM     16  C5  non d ame     -35.813  16.324  25.690  0.00  0.00     0.273 C 
ATOM     17  O2  non d ame     -36.854  16.696  26.108  0.00  0.00    -0.266 OA
ATOM     18  H5  non d ame     -34.853  14.770  24.535  0.00  0.00     0.163 HD
BRANCH  16  19
ATOM     19  C4  non d ame     -34.540  17.134  25.976  0.00  0.00     0.154 A 
ATOM     20  C1  non d ame     -34.359  18.134  26.984  0.00  0.00    -0.017 A 
ATOM     21  C2  non d ame     -33.024  18.568  26.831  0.00  0.00     0.077 A 
ATOM     22  H1  non d ame     -35.086  18.489  27.715  0.00  0.00     0.091 H 
ATOM     23  O1  non d ame     -32.507  17.891  25.848  0.00  0.00    -0.218 OA
ATOM     24  N1  non d ame     -33.372  17.048  25.333  0.00  0.00    -0.123 NA
BRANCH  21  25
ATOM     25  C3  non d ame     -32.320  19.632  27.663  0.00  0.00    -0.029 C 
ATOM     26  H2  non d ame     -31.394  19.225  28.067  0.00  0.00     0.036 H 
ATOM     27  H3  non d ame     -32.095  20.494  27.035  0.00  0.00     0.036 H 
ATOM     28  H4  non d ame     -32.969  19.940  28.483  0.00  0.00     0.036 H 
ENDBRANCH  21  25
ENDBRANCH  16  19
ENDBRANCH  13  15
BRANCH  13  29
ATOM     29  C8  non d ame     -37.104  14.105  23.154  0.00  0.00    -0.049 C 
ATOM     30  H7  non d ame     -36.753  13.103  22.904  0.00  0.00     0.030 H 
ATOM     31  H8  non d ame     -38.154  14.201  22.879  0.00  0.00     0.030 H 
ATOM     32  H9  non d ame     -36.516  14.843  22.608  0.00  0.00     0.030 H 
ENDBRANCH  13  29
ENDBRANCH  10  13
ENDBRANCH   7   9
BRANCH   7  33
ATOM     33  C11 non d ame     -36.919   9.483  24.597  0.00  0.00    -0.033 C 
ATOM     34  H12 non d ame     -36.589   9.549  23.560  0.00  0.00     0.042 H 
BRANCH  33  35
ATOM     35  C12 non d ame     -36.601   8.040  25.098  0.00  0.00    -0.071 C 
ATOM     36  H13 non d ame     -35.699   7.674  24.606  0.00  0.00     0.028 H 
ATOM     37  H14 non d ame     -36.445   8.056  26.177  0.00  0.00     0.028 H 
ATOM     38  H15 non d ame     -37.436   7.381  24.861  0.00  0.00     0.028 H 
ENDBRANCH  33  35
BRANCH  33  39
ATOM     39  C13 non d ame     -38.454   9.770  24.635  0.00  0.00    -0.071 C 
ATOM     40  H16 non d ame     -38.976   8.904  25.042  0.00  0.00     0.028 H 
ATOM     41  H17 non d ame     -38.645  10.640  25.265  0.00  0.00     0.028 H 
ATOM     42  H18 non d ame     -38.812   9.969  23.625  0.00  0.00     0.028 H 
ENDBRANCH  33  39
ENDBRANCH   7  33
ENDBRANCH   4   7
ENDBRANCH   1   3
BRANCH   1  43
ATOM     43  C15 non d ame     -31.604  10.989  25.161  0.00  0.00     0.240 C 
ATOM     44  O5  non d ame     -30.639  10.710  25.795  0.00  0.00    -0.271 OA
ATOM     45  N6  non d ame     -32.057  12.408  25.084  0.00  0.00    -0.355 N 
ATOM     46  H46 non d ame     -32.872  12.658  24.545  0.00  0.00     0.162 HD
BRANCH  45  47
ATOM     47  C20 non d ame     -31.304  13.457  25.806  0.00  0.00     0.013 C 
ATOM     48  H30 non d ame     -30.387  13.008  26.188  0.00  0.00     0.072 H 
BRANCH  47  49
ATOM     49  C21 non d ame     -32.143  13.975  26.951  0.00  0.00    -0.038 C 
ATOM     50  H31 non d ame     -31.474  14.596  27.549  0.00  0.00     0.036 H 
ATOM     51  H32 non d ame     -33.029  14.414  26.492  0.00  0.00     0.036 H 
BRANCH  49  52
ATOM     52  C22 non d ame     -32.645  12.851  27.883  0.00  0.00     0.018 C 
ATOM     53  H33 non d ame     -33.412  13.307  28.508  0.00  0.00     0.048 H 
ATOM     54  H34 non d ame     -32.899  12.017  27.229  0.00  0.00     0.048 H 
BRANCH  52  55
ATOM     55  C23 non d ame     -31.561  12.315  28.859  0.00  0.00     0.259 C 
ATOM     56  O7  non d ame     -30.421  12.619  28.719  0.00  0.00    -0.265 OA
BRANCH  55  57
ATOM     57  O8  non d ame     -31.944  11.445  29.917  0.00  0.00    -0.317 OA
BRANCH  57  58
ATOM     58  C29 non d ame     -32.954  11.983  30.776  0.00  0.00     0.052 C 
ATOM     59  H47 non d ame     -32.427  12.354  31.654  0.00  0.00     0.082 H 
ATOM     60  H48 non d ame     -33.533  12.668  30.158  0.00  0.00     0.082 H 
BRANCH  58  61
ATOM     61  C35 non d ame     -33.880  10.817  31.215  0.00  0.00    -0.034 A 
ATOM     62  C30 non d ame     -34.687  10.954  32.340  0.00  0.00    -0.075 A 
ATOM     63  C31 non d ame     -35.518   9.907  32.735  0.00  0.00    -0.082 A 
ATOM     64  H49 non d ame     -34.668  11.881  32.912  0.00  0.00     0.084 H 
ATOM     65  C32 non d ame     -35.538   8.717  32.001  0.00  0.00    -0.083 A 
ATOM     66  H50 non d ame     -36.150  10.018  33.616  0.00  0.00     0.083 H 
ATOM     67  C33 non d ame     -34.729   8.584  30.881  0.00  0.00    -0.082 A 
ATOM     68  H51 non d ame     -36.186   7.894  32.302  0.00  0.00     0.083 H 
ATOM     69  C34 non d ame     -33.898   9.629  30.482  0.00  0.00    -0.075 A 
ATOM     70  H52 non d ame     -34.745   7.654  30.312  0.00  0.00     0.083 H 
ATOM     71  H53 non d ame     -33.266   9.517  29.600  0.00  0.00     0.084 H 
ENDBRANCH  58  61
ENDBRANCH  57  58
ENDBRANCH  55  57
ENDBRANCH  52  55
ENDBRANCH  49  52
ENDBRANCH  47  49
BRANCH  47  72
ATOM     72  C24 non d ame     -30.976  14.605  24.853  0.00  0.00    -0.039 C 
ATOM     73  H35 non d ame     -31.710  15.381  25.070  0.00  0.00     0.036 H 
ATOM     74  H36 non d ame     -29.914  14.805  24.995  0.00  0.00     0.036 H 
BRANCH  72  75
ATOM     75  C25 non d ame     -31.176  14.180  23.322  0.00  0.00    -0.001 C 
ATOM     76  C26 non d ame     -29.818  13.439  22.763  0.00  0.00    -0.035 C 
ATOM     77  C27 non d ame     -29.442  14.033  21.605  0.00  0.00     0.085 C 
ATOM     78  H38 non d ame     -28.982  13.637  23.434  0.00  0.00     0.036 H 
ATOM     79  H39 non d ame     -30.046  12.417  22.463  0.00  0.00     0.036 H 
ATOM     80  N5  non d ame     -30.227  15.318  21.493  0.00  0.00    -0.049 N 
ATOM     81  H40 non d ame     -28.386  14.271  21.730  0.00  0.00     0.075 H 
ATOM     82  H41 non d ame     -29.758  13.354  20.814  0.00  0.00     0.075 H 
ATOM     83  C28 non d ame     -31.417  15.208  22.579  0.00  0.00     0.193 C 
ATOM     84  H42 non d ame     -29.602  16.060  21.775  0.00  0.00     0.280 HD
ATOM     85  H43 non d ame     -30.634  15.324  20.569  0.00  0.00     0.280 HD
ATOM     86  H44 non d ame     -32.437  14.990  22.262  0.00  0.00     0.129 H 
ATOM     87  H37 non d ame     -32.124  13.667  23.156  0.00  0.00     0.046 H 
BRANCH  83  88
ATOM     88  O6  non d ame     -31.503  16.414  23.339  0.00  0.00    -0.369 OA
ATOM     89  H45 non d ame     -31.392  17.169  22.756  0.00  0.00     0.212 HD
ENDBRANCH  83  88
ENDBRANCH  72  75
ENDBRANCH  47  72
ENDBRANCH  45  47
ENDBRANCH   1  43
BRANCH   1  90
ATOM     90  C16 non d ame     -31.822   9.718  23.003  0.00  0.00    -0.035 C 
ATOM     91  H21 non d ame     -32.670   9.868  22.334  0.00  0.00     0.037 H 
ATOM     92  H22 non d ame     -30.966  10.391  22.957  0.00  0.00     0.037 H 
BRANCH  90  93
ATOM     93  C17 non d ame     -31.274   8.286  22.703  0.00  0.00    -0.059 C 
ATOM     94  H23 non d ame     -31.737   7.942  21.778  0.00  0.00     0.038 H 
BRANCH  93  95
ATOM     95  C18 non d ame     -29.726   8.280  22.492  0.00  0.00    -0.073 C 
ATOM     96  H24 non d ame     -29.408   7.292  22.161  0.00  0.00     0.028 H 
ATOM     97  H25 non d ame     -29.459   9.018  21.736  0.00  0.00     0.028 H 
ATOM     98  H26 non d ame     -29.231   8.526  23.430  0.00  0.00     0.028 H 
ENDBRANCH  93  95
BRANCH  93  99
ATOM     99  C19 non d ame     -31.677   7.304  23.806  0.00  0.00    -0.073 C 
ATOM    100  H27 non d ame     -30.782   6.850  24.233  0.00  0.00     0.028 H 
ATOM    101  H28 non d ame     -32.221   7.837  24.586  0.00  0.00     0.028 H 
ATOM    102  H29 non d ame     -32.314   6.527  23.386  0.00  0.00     0.028 H 
ENDBRANCH  93  99
ENDBRANCH  90  93
ENDBRANCH   1  90
TORSDOF 26
ENDMDL
MODEL 5
REMARK VINA RESULT:      -6.3      2.439      8.701
REMARK  26 active torsions:
REMARK  status: ('A' for Active; 'I' for Inactive)
REMARK    1  A    between atoms: C2_2  and  C3_3 
REMARK    2  A    between atoms: C4_6  and  C5_7 
REMARK       I    between atoms: C5_7  and  N2_9 
REMARK    3  A    between atoms: N2_9  and  C6_10 
REMARK    4  A    between atoms: C6_10  and  C7_11 
REMARK    5  A    between atoms: C6_10  and  C8_13 
REMARK       I    between atoms: C7_11  and  N3_14 
REMARK    6  A    between atoms: N3_14  and  C9_15 
REMARK    7  A    between atoms: C9_15  and  C10_16 
REMARK    8  A    between atoms: C9_15  and  C11_18 
REMARK       I    between atoms: C10_16  and  N4_21 
REMARK    9  A    between atoms: C11_18  and  C12_19 
REMARK   10  A    between atoms: C11_18  and  C13_20 
REMARK   11  A    between atoms: N4_21  and  C14_22 
REMARK   12  A    between atoms: C14_22  and  C15_23 
REMARK   13  A    between atoms: C14_22  and  C16_25 
REMARK       I    between atoms: C15_23  and  N6_40 
REMARK   14  A    between atoms: C16_25  and  C17_26 
REMARK   15  A    between atoms: C17_26  and  C18_27 
REMARK   16  A    between atoms: C17_26  and  C19_28 
REMARK   17  A    between atoms: C20_29  and  C21_30 
REMARK   18  A    between atoms: C20_29  and  C24_33 
REMARK   19  A    between atoms: C20_29  and  N6_40 
REMARK   20  A    between atoms: C21_30  and  C22_31 
REMARK   21  A    between atoms: C22_31  and  C23_32 
REMARK   22  A    between atoms: C23_32  and  O8_43 
REMARK   23  A    between atoms: C24_33  and  C25_34 
REMARK   24  A    between atoms: C28_38  and  O6_39 
REMARK   25  A    between atoms: C29_42  and  O8_43 
REMARK   26  A    between atoms: C29_42  and  C35_49 
ROOT
ATOM      1  C14 non d ame     -32.627   9.639  25.002  0.00  0.00     0.089 C 
ATOM      2  H20 non d ame     -31.950   8.795  25.133  0.00  0.00     0.087 H 
ENDROOT
BRANCH   1   3
ATOM      3  N4  non d ame     -33.867   9.317  25.692  0.00  0.00    -0.346 N 
ATOM      4  C10 non d ame     -34.291   7.880  25.867  0.00  0.00     0.241 C 
ATOM      5  O4  non d ame     -33.618   7.000  25.441  0.00  0.00    -0.271 OA
ATOM      6  H19 non d ame     -34.427  10.080  26.045  0.00  0.00     0.163 HD
BRANCH   4   7
ATOM      7  C9  non d ame     -35.574   7.565  26.589  0.00  0.00     0.092 C 
ATOM      8  H11 non d ame     -35.440   6.659  27.180  0.00  0.00     0.088 H 
BRANCH   7   9
ATOM      9  N3  non d ame     -35.889   8.650  27.524  0.00  0.00    -0.346 N 
ATOM     10  C7  non d ame     -35.868   8.404  28.945  0.00  0.00     0.240 C 
ATOM     11  O3  non d ame     -35.602   7.340  29.354  0.00  0.00    -0.271 OA
ATOM     12  H10 non d ame     -36.122   9.572  27.186  0.00  0.00     0.163 HD
BRANCH  10  13
ATOM     13  C6  non d ame     -36.207   9.562  29.935  0.00  0.00     0.086 C 
ATOM     14  H6  non d ame     -36.252   9.230  30.972  0.00  0.00     0.086 H 
BRANCH  13  15
ATOM     15  N2  non d ame     -35.157  10.565  29.864  0.00  0.00    -0.343 N 
ATOM     16  C5  non d ame     -33.920  10.369  30.623  0.00  0.00     0.273 C 
ATOM     17  O2  non d ame     -33.780   9.403  31.289  0.00  0.00    -0.266 OA
ATOM     18  H5  non d ame     -35.286  11.389  29.294  0.00  0.00     0.163 HD
BRANCH  16  19
ATOM     19  C4  non d ame     -32.801  11.420  30.556  0.00  0.00     0.154 A 
ATOM     20  C1  non d ame     -32.727  12.549  29.680  0.00  0.00    -0.017 A 
ATOM     21  C2  non d ame     -31.514  13.192  30.017  0.00  0.00     0.077 A 
ATOM     22  H1  non d ame     -33.442  12.855  28.916  0.00  0.00     0.091 H 
ATOM     23  O1  non d ame     -30.966  12.505  30.977  0.00  0.00    -0.218 OA
ATOM     24  N1  non d ame     -31.698  11.467  31.308  0.00  0.00    -0.123 NA
BRANCH  21  25
ATOM     25  C3  non d ame     -30.955  14.455  29.377  0.00  0.00    -0.029 C 
ATOM     26  H2  non d ame     -31.265  15.324  29.956  0.00  0.00     0.036 H 
ATOM     27  H3  non d ame     -29.867  14.401  29.357  0.00  0.00     0.036 H 
ATOM     28  H4  non d ame     -31.332  14.544  28.358  0.00  0.00     0.036 H 
ENDBRANCH  21  25
ENDBRANCH  16  19
ENDBRANCH  13  15
BRANCH  13  29
ATOM     29  C8  non d ame     -37.533  10.175  29.561  0.00  0.00    -0.049 C 
ATOM     30  H7  non d ame     -38.092  10.411  30.467  0.00  0.00     0.030 H 
ATOM     31  H8  non d ame     -37.363  11.088  28.991  0.00  0.00     0.030 H 
ATOM     32  H9  non d ame     -38.102   9.469  28.956  0.00  0.00     0.030 H 
ENDBRANCH  13  29
ENDBRANCH  10  13
ENDBRANCH   7   9
BRANCH   7  33
ATOM     33  C11 non d ame     -36.730   7.424  25.555  0.00  0.00    -0.033 C 
ATOM     34  H12 non d ame     -36.279   7.376  24.564  0.00  0.00     0.042 H 
BRANCH  33  35
ATOM     35  C12 non d ame     -37.528   6.100  25.772  0.00  0.00    -0.071 C 
ATOM     36  H13 non d ame     -37.141   5.329  25.105  0.00  0.00     0.028 H 
ATOM     37  H14 non d ame     -37.418   5.775  26.806  0.00  0.00     0.028 H 
ATOM     38  H15 non d ame     -38.582   6.272  25.554  0.00  0.00     0.028 H 
ENDBRANCH  33  35
BRANCH  33  39
ATOM     39  C13 non d ame     -37.674   8.668  25.598  0.00  0.00    -0.071 C 
ATOM     40  H16 non d ame     -38.440   8.569  24.829  0.00  0.00     0.028 H 
ATOM     41  H17 non d ame     -38.147   8.731  26.578  0.00  0.00     0.028 H 
ATOM     42  H18 non d ame     -37.092   9.572  25.418  0.00  0.00     0.028 H 
ENDBRANCH  33  39
ENDBRANCH   7  33
ENDBRANCH   4   7
ENDBRANCH   1   3
BRANCH   1  43
ATOM     43  C15 non d ame     -32.052  10.953  25.604  0.00  0.00     0.240 C 
ATOM     44  O5  non d ame     -31.123  10.906  26.344  0.00  0.00    -0.271 OA
ATOM     45  N6  non d ame     -32.654  12.270  25.251  0.00  0.00    -0.355 N 
ATOM     46  H46 non d ame     -33.440  12.322  24.620  0.00  0.00     0.162 HD
BRANCH  45  47
ATOM     47  C20 non d ame     -32.094  13.510  25.831  0.00  0.00     0.013 C 
ATOM     48  H30 non d ame     -31.924  13.336  26.894  0.00  0.00     0.072 H 
BRANCH  47  49
ATOM     49  C21 non d ame     -33.083  14.639  25.645  0.00  0.00    -0.038 C 
ATOM     50  H31 non d ame     -32.781  15.146  24.728  0.00  0.00     0.036 H 
ATOM     51  H32 non d ame     -34.069  14.181  25.716  0.00  0.00     0.036 H 
BRANCH  49  52
ATOM     52  C22 non d ame     -33.008  15.693  26.771  0.00  0.00     0.018 C 
ATOM     53  H33 non d ame     -33.993  15.697  27.237  0.00  0.00     0.048 H 
ATOM     54  H34 non d ame     -32.127  15.435  27.359  0.00  0.00     0.048 H 
BRANCH  52  55
ATOM     55  C23 non d ame     -32.771  17.141  26.258  0.00  0.00     0.259 C 
ATOM     56  O7  non d ame     -32.175  17.334  25.249  0.00  0.00    -0.265 OA
BRANCH  55  57
ATOM     57  O8  non d ame     -33.265  18.238  27.017  0.00  0.00    -0.317 OA
BRANCH  57  58
ATOM     58  C29 non d ame     -34.593  18.050  27.516  0.00  0.00     0.052 C 
ATOM     59  H47 non d ame     -34.864  17.027  27.255  0.00  0.00     0.082 H 
ATOM     60  H48 non d ame     -34.561  18.355  28.562  0.00  0.00     0.082 H 
BRANCH  58  61
ATOM     61  C35 non d ame     -35.534  19.019  26.751  0.00  0.00    -0.034 A 
ATOM     62  C30 non d ame     -35.970  20.191  27.360  0.00  0.00    -0.075 A 
ATOM     63  C31 non d ame     -36.815  21.061  26.673  0.00  0.00    -0.082 A 
ATOM     64  H49 non d ame     -35.651  20.428  28.375  0.00  0.00     0.084 H 
ATOM     65  C32 non d ame     -37.226  20.754  25.373  0.00  0.00    -0.083 A 
ATOM     66  H50 non d ame     -37.155  21.980  27.152  0.00  0.00     0.083 H 
ATOM     67  C33 non d ame     -36.791  19.581  24.771  0.00  0.00    -0.082 A 
ATOM     68  H51 non d ame     -37.887  21.429  24.829  0.00  0.00     0.083 H 
ATOM     69  C34 non d ame     -35.944  18.710  25.453  0.00  0.00    -0.075 A 
ATOM     70  H52 non d ame     -37.115  19.343  23.758  0.00  0.00     0.083 H 
ATOM     71  H53 non d ame     -35.605  17.791  24.973  0.00  0.00     0.084 H 
ENDBRANCH  58  61
ENDBRANCH  57  58
ENDBRANCH  55  57
ENDBRANCH  52  55
ENDBRANCH  49  52
ENDBRANCH  47  49
BRANCH  47  72
ATOM     72  C24 non d ame     -30.782  13.860  25.133  0.00  0.00    -0.039 C 
ATOM     73  H35 non d ame     -30.525  14.860  25.484  0.00  0.00     0.036 H 
ATOM     74  H36 non d ame     -30.113  13.024  25.336  0.00  0.00     0.036 H 
BRANCH  72  75
ATOM     75  C25 non d ame     -30.961  13.948  23.544  0.00  0.00    -0.001 C 
ATOM     76  C26 non d ame     -30.163  12.706  22.821  0.00  0.00    -0.035 C 
ATOM     77  C27 non d ame     -29.364  13.207  21.849  0.00  0.00     0.085 C 
ATOM     78  H38 non d ame     -29.461  12.255  23.521  0.00  0.00     0.036 H 
ATOM     79  H39 non d ame     -30.866  12.078  22.273  0.00  0.00     0.036 H 
ATOM     80  N5  non d ame     -29.295  14.700  22.060  0.00  0.00    -0.049 N 
ATOM     81  H40 non d ame     -28.379  12.777  22.031  0.00  0.00     0.075 H 
ATOM     82  H41 non d ame     -29.882  13.004  20.912  0.00  0.00     0.075 H 
ATOM     83  C28 non d ame     -30.493  15.059  23.081  0.00  0.00     0.193 C 
ATOM     84  H42 non d ame     -28.415  14.885  22.519  0.00  0.00     0.280 HD
ATOM     85  H43 non d ame     -29.497  15.124  21.166  0.00  0.00     0.280 HD
ATOM     86  H44 non d ame     -31.410  15.525  22.718  0.00  0.00     0.129 H 
ATOM     87  H37 non d ame     -32.000  14.106  23.253  0.00  0.00     0.046 H 
BRANCH  83  88
ATOM     88  O6  non d ame     -30.015  15.917  24.119  0.00  0.00    -0.369 OA
ATOM     89  H45 non d ame     -30.175  16.832  23.877  0.00  0.00     0.212 HD
ENDBRANCH  83  88
ENDBRANCH  72  75
ENDBRANCH  47  72
ENDBRANCH  45  47
ENDBRANCH   1  43
BRANCH   1  90
ATOM     90  C16 non d ame     -32.920   9.840  23.523  0.00  0.00    -0.035 C 
ATOM     91  H21 non d ame     -33.964   9.557  23.395  0.00  0.00     0.037 H 
ATOM     92  H22 non d ame     -32.600  10.858  23.301  0.00  0.00     0.037 H 
BRANCH  90  93
ATOM     93  C17 non d ame     -32.092   8.902  22.588  0.00  0.00    -0.059 C 
ATOM     94  H23 non d ame     -31.569   9.532  21.868  0.00  0.00     0.038 H 
BRANCH  93  95
ATOM     95  C18 non d ame     -31.019   8.084  23.374  0.00  0.00    -0.073 C 
ATOM     96  H24 non d ame     -30.052   8.579  23.292  0.00  0.00     0.028 H 
ATOM     97  H25 non d ame     -31.306   8.021  24.423  0.00  0.00     0.028 H 
ATOM     98  H26 non d ame     -30.949   7.080  22.956  0.00  0.00     0.028 H 
ENDBRANCH  93  95
BRANCH  93  99
ATOM     99  C19 non d ame     -33.012   7.972  21.793  0.00  0.00    -0.073 C 
ATOM    100  H27 non d ame     -32.424   7.161  21.362  0.00  0.00     0.028 H 
ATOM    101  H28 non d ame     -33.771   7.557  22.456  0.00  0.00     0.028 H 
ATOM    102  H29 non d ame     -33.496   8.534  20.995  0.00  0.00     0.028 H 
ENDBRANCH  93  99
ENDBRANCH  90  93
ENDBRANCH   1  90
TORSDOF 26
ENDMDL
MODEL 6
REMARK VINA RESULT:      -6.2      2.699      7.244
REMARK  26 active torsions:
REMARK  status: ('A' for Active; 'I' for Inactive)
REMARK    1  A    between atoms: C2_2  and  C3_3 
REMARK    2  A    between atoms: C4_6  and  C5_7 
REMARK       I    between atoms: C5_7  and  N2_9 
REMARK    3  A    between atoms: N2_9  and  C6_10 
REMARK    4  A    between atoms: C6_10  and  C7_11 
REMARK    5  A    between atoms: C6_10  and  C8_13 
REMARK       I    between atoms: C7_11  and  N3_14 
REMARK    6  A    between atoms: N3_14  and  C9_15 
REMARK    7  A    between atoms: C9_15  and  C10_16 
REMARK    8  A    between atoms: C9_15  and  C11_18 
REMARK       I    between atoms: C10_16  and  N4_21 
REMARK    9  A    between atoms: C11_18  and  C12_19 
REMARK   10  A    between atoms: C11_18  and  C13_20 
REMARK   11  A    between atoms: N4_21  and  C14_22 
REMARK   12  A    between atoms: C14_22  and  C15_23 
REMARK   13  A    between atoms: C14_22  and  C16_25 
REMARK       I    between atoms: C15_23  and  N6_40 
REMARK   14  A    between atoms: C16_25  and  C17_26 
REMARK   15  A    between atoms: C17_26  and  C18_27 
REMARK   16  A    between atoms: C17_26  and  C19_28 
REMARK   17  A    between atoms: C20_29  and  C21_30 
REMARK   18  A    between atoms: C20_29  and  C24_33 
REMARK   19  A    between atoms: C20_29  and  N6_40 
REMARK   20  A    between atoms: C21_30  and  C22_31 
REMARK   21  A    between atoms: C22_31  and  C23_32 
REMARK   22  A    between atoms: C23_32  and  O8_43 
REMARK   23  A    between atoms: C24_33  and  C25_34 
REMARK   24  A    between atoms: C28_38  and  O6_39 
REMARK   25  A    between atoms: C29_42  and  O8_43 
REMARK   26  A    between atoms: C29_42  and  C35_49 
ROOT
ATOM      1  C14 non d ame     -33.939   6.626  26.724  0.00  0.00     0.089 C 
ATOM      2  H20 non d ame     -33.386   6.243  27.582  0.00  0.00     0.087 H 
ENDROOT
BRANCH   1   3
ATOM      3  N4  non d ame     -34.518   7.904  27.111  0.00  0.00    -0.346 N 
ATOM      4  C10 non d ame     -33.675   8.943  27.806  0.00  0.00     0.241 C 
ATOM      5  O4  non d ame     -32.533   8.726  28.046  0.00  0.00    -0.271 OA
ATOM      6  H19 non d ame     -35.492   8.068  26.899  0.00  0.00     0.163 HD
BRANCH   4   7
ATOM      7  C9  non d ame     -34.288  10.262  28.194  0.00  0.00     0.092 C 
ATOM      8  H11 non d ame     -34.724  10.176  29.189  0.00  0.00     0.088 H 
BRANCH   7   9
ATOM      9  N3  non d ame     -33.242  11.286  28.266  0.00  0.00    -0.346 N 
ATOM     10  C7  non d ame     -32.870  11.847  29.541  0.00  0.00     0.240 C 
ATOM     11  O3  non d ame     -33.403  11.488  30.519  0.00  0.00    -0.271 OA
ATOM     12  H10 non d ame     -32.774  11.608  27.430  0.00  0.00     0.163 HD
BRANCH  10  13
ATOM     13  C6  non d ame     -31.757  12.939  29.611  0.00  0.00     0.086 C 
ATOM     14  H6  non d ame     -31.057  12.882  28.778  0.00  0.00     0.086 H 
BRANCH  13  15
ATOM     15  N2  non d ame     -32.379  14.251  29.542  0.00  0.00    -0.343 N 
ATOM     16  C5  non d ame     -32.608  14.873  28.236  0.00  0.00     0.273 C 
ATOM     17  O2  non d ame     -32.285  14.312  27.247  0.00  0.00    -0.266 OA
ATOM     18  H5  non d ame     -32.649  14.725  30.392  0.00  0.00     0.163 HD
BRANCH  16  19
ATOM     19  C4  non d ame     -33.266  16.259  28.148  0.00  0.00     0.154 A 
ATOM     20  C1  non d ame     -32.655  17.481  27.723  0.00  0.00    -0.017 A 
ATOM     21  C2  non d ame     -33.676  18.453  27.824  0.00  0.00     0.077 A 
ATOM     22  H1  non d ame     -31.628  17.639  27.391  0.00  0.00     0.091 H 
ATOM     23  O1  non d ame     -34.744  17.849  28.257  0.00  0.00    -0.218 OA
ATOM     24  N1  non d ame     -34.529  16.568  28.454  0.00  0.00    -0.123 NA
BRANCH  21  25
ATOM     25  C3  non d ame     -33.548  19.932  27.488  0.00  0.00    -0.029 C 
ATOM     26  H2  non d ame     -34.541  20.359  27.343  0.00  0.00     0.036 H 
ATOM     27  H3  non d ame     -33.048  20.449  28.306  0.00  0.00     0.036 H 
ATOM     28  H4  non d ame     -32.966  20.049  26.574  0.00  0.00     0.036 H 
ENDBRANCH  21  25
ENDBRANCH  16  19
ENDBRANCH  13  15
BRANCH  13  29
ATOM     29  C8  non d ame     -30.991  12.798  30.902  0.00  0.00    -0.049 C 
ATOM     30  H7  non d ame     -31.128  11.792  31.297  0.00  0.00     0.030 H 
ATOM     31  H8  non d ame     -29.931  12.974  30.716  0.00  0.00     0.030 H 
ATOM     32  H9  non d ame     -31.359  13.526  31.625  0.00  0.00     0.030 H 
ENDBRANCH  13  29
ENDBRANCH  10  13
ENDBRANCH   7   9
BRANCH   7  33
ATOM     33  C11 non d ame     -35.344  10.677  27.127  0.00  0.00    -0.033 C 
ATOM     34  H12 non d ame     -35.416   9.865  26.403  0.00  0.00     0.042 H 
BRANCH  33  35
ATOM     35  C12 non d ame     -36.755  10.862  27.766  0.00  0.00    -0.071 C 
ATOM     36  H13 non d ame     -37.505  10.386  27.134  0.00  0.00     0.028 H 
ATOM     37  H14 non d ame     -36.769  10.405  28.755  0.00  0.00     0.028 H 
ATOM     38  H15 non d ame     -36.978  11.926  27.854  0.00  0.00     0.028 H 
ENDBRANCH  33  35
BRANCH  33  39
ATOM     39  C13 non d ame     -34.893  11.965  26.366  0.00  0.00    -0.071 C 
ATOM     40  H16 non d ame     -34.159  11.699  25.605  0.00  0.00     0.028 H 
ATOM     41  H17 non d ame     -35.759  12.428  25.891  0.00  0.00     0.028 H 
ATOM     42  H18 non d ame     -34.448  12.667  27.071  0.00  0.00     0.028 H 
ENDBRANCH  33  39
ENDBRANCH   7  33
ENDBRANCH   4   7
ENDBRANCH   1   3
BRANCH   1  43
ATOM     43  C15 non d ame     -33.023   6.851  25.487  0.00  0.00     0.240 C 
ATOM     44  O5  non d ame     -31.956   6.329  25.439  0.00  0.00    -0.271 OA
ATOM     45  N6  non d ame     -33.478   7.711  24.358  0.00  0.00    -0.355 N 
ATOM     46  H46 non d ame     -34.384   8.156  24.385  0.00  0.00     0.162 HD
BRANCH  45  47
ATOM     47  C20 non d ame     -32.596   7.914  23.189  0.00  0.00     0.013 C 
ATOM     48  H30 non d ame     -31.816   7.153  23.222  0.00  0.00     0.072 H 
BRANCH  47  49
ATOM     49  C21 non d ame     -31.977   9.292  23.263  0.00  0.00    -0.038 C 
ATOM     50  H31 non d ame     -30.905   9.128  23.371  0.00  0.00     0.036 H 
ATOM     51  H32 non d ame     -32.362   9.834  22.400  0.00  0.00     0.036 H 
BRANCH  49  52
ATOM     52  C22 non d ame     -32.425  10.083  24.511  0.00  0.00     0.018 C 
ATOM     53  H33 non d ame     -33.342  10.596  24.223  0.00  0.00     0.048 H 
ATOM     54  H34 non d ame     -32.437   9.363  25.329  0.00  0.00     0.048 H 
BRANCH  52  55
ATOM     55  C23 non d ame     -31.429  11.197  24.937  0.00  0.00     0.259 C 
ATOM     56  O7  non d ame     -31.111  11.320  26.076  0.00  0.00    -0.265 OA
BRANCH  55  57
ATOM     57  O8  non d ame     -30.908  12.080  23.951  0.00  0.00    -0.317 OA
BRANCH  57  58
ATOM     58  C29 non d ame     -30.662  13.406  24.428  0.00  0.00     0.052 C 
ATOM     59  H47 non d ame     -31.529  13.666  25.035  0.00  0.00     0.082 H 
ATOM     60  H48 non d ame     -29.670  13.379  24.879  0.00  0.00     0.082 H 
BRANCH  58  61
ATOM     61  C35 non d ame     -30.618  14.356  23.202  0.00  0.00    -0.034 A 
ATOM     62  C30 non d ame     -29.856  14.021  22.088  0.00  0.00    -0.075 A 
ATOM     63  C31 non d ame     -29.816  14.874  20.986  0.00  0.00    -0.082 A 
ATOM     64  H49 non d ame     -29.289  13.090  22.078  0.00  0.00     0.084 H 
ATOM     65  C32 non d ame     -30.541  16.069  21.002  0.00  0.00    -0.083 A 
ATOM     66  H50 non d ame     -29.218  14.607  20.114  0.00  0.00     0.083 H 
ATOM     67  C33 non d ame     -31.298  16.401  22.117  0.00  0.00    -0.082 A 
ATOM     68  H51 non d ame     -30.516  16.741  20.145  0.00  0.00     0.083 H 
ATOM     69  C34 non d ame     -31.342  15.550  23.220  0.00  0.00    -0.075 A 
ATOM     70  H52 non d ame     -31.861  17.335  22.128  0.00  0.00     0.083 H 
ATOM     71  H53 non d ame     -31.940  15.817  24.092  0.00  0.00     0.084 H 
ENDBRANCH  58  61
ENDBRANCH  57  58
ENDBRANCH  55  57
ENDBRANCH  52  55
ENDBRANCH  49  52
ENDBRANCH  47  49
BRANCH  47  72
ATOM     72  C24 non d ame     -33.407   7.788  21.901  0.00  0.00    -0.039 C 
ATOM     73  H35 non d ame     -34.377   8.232  22.125  0.00  0.00     0.036 H 
ATOM     74  H36 non d ame     -32.779   8.217  21.120  0.00  0.00     0.036 H 
BRANCH  72  75
ATOM     75  C25 non d ame     -33.666   6.256  21.512  0.00  0.00    -0.001 C 
ATOM     76  C26 non d ame     -32.344   5.352  21.885  0.00  0.00    -0.035 C 
ATOM     77  C27 non d ame     -31.991   4.625  20.798  0.00  0.00     0.085 C 
ATOM     78  H38 non d ame     -31.483   5.999  22.049  0.00  0.00     0.036 H 
ATOM     79  H39 non d ame     -32.606   4.594  22.624  0.00  0.00     0.036 H 
ATOM     80  N5  non d ame     -32.749   5.194  19.622  0.00  0.00    -0.049 N 
ATOM     81  H40 non d ame     -30.926   4.810  20.657  0.00  0.00     0.075 H 
ATOM     82  H41 non d ame     -32.348   3.615  20.995  0.00  0.00     0.075 H 
ATOM     83  C28 non d ame     -33.906   6.129  20.249  0.00  0.00     0.193 C 
ATOM     84  H42 non d ame     -32.099   5.780  19.119  0.00  0.00     0.280 HD
ATOM     85  H43 non d ame     -33.185   4.410  19.158  0.00  0.00     0.280 HD
ATOM     86  H44 non d ame     -34.940   5.786  20.278  0.00  0.00     0.129 H 
ATOM     87  H37 non d ame     -34.631   5.896  21.871  0.00  0.00     0.046 H 
BRANCH  83  88
ATOM     88  O6  non d ame     -33.940   7.389  19.577  0.00  0.00    -0.369 OA
ATOM     89  H45 non d ame     -33.211   7.439  18.954  0.00  0.00     0.212 HD
ENDBRANCH  83  88
ENDBRANCH  72  75
ENDBRANCH  47  72
ENDBRANCH  45  47
ENDBRANCH   1  43
BRANCH   1  90
ATOM     90  C16 non d ame     -35.059   5.664  26.361  0.00  0.00    -0.035 C 
ATOM     91  H21 non d ame     -35.982   6.221  26.521  0.00  0.00     0.037 H 
ATOM     92  H22 non d ame     -34.811   5.294  25.366  0.00  0.00     0.037 H 
BRANCH  90  93
ATOM     93  C17 non d ame     -35.134   4.411  27.291  0.00  0.00    -0.059 C 
ATOM     94  H23 non d ame     -35.248   4.766  28.316  0.00  0.00     0.038 H 
BRANCH  93  95
ATOM     95  C18 non d ame     -36.364   3.505  26.962  0.00  0.00    -0.073 C 
ATOM     96  H24 non d ame     -37.237   4.131  26.778  0.00  0.00     0.028 H 
ATOM     97  H25 non d ame     -36.151   2.911  26.074  0.00  0.00     0.028 H 
ATOM     98  H26 non d ame     -36.563   2.842  27.803  0.00  0.00     0.028 H 
ENDBRANCH  93  95
BRANCH  93  99
ATOM     99  C19 non d ame     -33.834   3.606  27.230  0.00  0.00    -0.073 C 
ATOM    100  H27 non d ame     -33.818   2.878  28.042  0.00  0.00     0.028 H 
ATOM    101  H28 non d ame     -33.772   3.085  26.275  0.00  0.00     0.028 H 
ATOM    102  H29 non d ame     -32.984   4.281  27.331  0.00  0.00     0.028 H 
ENDBRANCH  93  99
ENDBRANCH  90  93
ENDBRANCH   1  90
TORSDOF 26
ENDMDL
MODEL 7
REMARK VINA RESULT:      -6.2      3.138      7.348
REMARK  26 active torsions:
REMARK  status: ('A' for Active; 'I' for Inactive)
REMARK    1  A    between atoms: C2_2  and  C3_3 
REMARK    2  A    between atoms: C4_6  and  C5_7 
REMARK       I    between atoms: C5_7  and  N2_9 
REMARK    3  A    between atoms: N2_9  and  C6_10 
REMARK    4  A    between atoms: C6_10  and  C7_11 
REMARK    5  A    between atoms: C6_10  and  C8_13 
REMARK       I    between atoms: C7_11  and  N3_14 
REMARK    6  A    between atoms: N3_14  and  C9_15 
REMARK    7  A    between atoms: C9_15  and  C10_16 
REMARK    8  A    between atoms: C9_15  and  C11_18 
REMARK       I    between atoms: C10_16  and  N4_21 
REMARK    9  A    between atoms: C11_18  and  C12_19 
REMARK   10  A    between atoms: C11_18  and  C13_20 
REMARK   11  A    between atoms: N4_21  and  C14_22 
REMARK   12  A    between atoms: C14_22  and  C15_23 
REMARK   13  A    between atoms: C14_22  and  C16_25 
REMARK       I    between atoms: C15_23  and  N6_40 
REMARK   14  A    between atoms: C16_25  and  C17_26 
REMARK   15  A    between atoms: C17_26  and  C18_27 
REMARK   16  A    between atoms: C17_26  and  C19_28 
REMARK   17  A    between atoms: C20_29  and  C21_30 
REMARK   18  A    between atoms: C20_29  and  C24_33 
REMARK   19  A    between atoms: C20_29  and  N6_40 
REMARK   20  A    between atoms: C21_30  and  C22_31 
REMARK   21  A    between atoms: C22_31  and  C23_32 
REMARK   22  A    between atoms: C23_32  and  O8_43 
REMARK   23  A    between atoms: C24_33  and  C25_34 
REMARK   24  A    between atoms: C28_38  and  O6_39 
REMARK   25  A    between atoms: C29_42  and  O8_43 
REMARK   26  A    between atoms: C29_42  and  C35_49 
ROOT
ATOM      1  C14 non d ame     -34.073   6.760  27.279  0.00  0.00     0.089 C 
ATOM      2  H20 non d ame     -33.916   5.985  28.029  0.00  0.00     0.087 H 
ENDROOT
BRANCH   1   3
ATOM      3  N4  non d ame     -34.264   8.019  27.982  0.00  0.00    -0.346 N 
ATOM      4  C10 non d ame     -34.796   8.031  29.393  0.00  0.00     0.241 C 
ATOM      5  O4  non d ame     -35.068   7.013  29.940  0.00  0.00    -0.271 OA
ATOM      6  H19 non d ame     -34.029   8.874  27.498  0.00  0.00     0.163 HD
BRANCH   4   7
ATOM      7  C9  non d ame     -34.982   9.343  30.108  0.00  0.00     0.092 C 
ATOM      8  H11 non d ame     -34.760   9.209  31.167  0.00  0.00     0.088 H 
BRANCH   7   9
ATOM      9  N3  non d ame     -34.025  10.324  29.587  0.00  0.00    -0.346 N 
ATOM     10  C7  non d ame     -33.253  11.132  30.498  0.00  0.00     0.240 C 
ATOM     11  O3  non d ame     -33.390  11.008  31.654  0.00  0.00    -0.271 OA
ATOM     12  H10 non d ame     -33.898  10.444  28.592  0.00  0.00     0.163 HD
BRANCH  10  13
ATOM     13  C6  non d ame     -32.239  12.177  29.937  0.00  0.00     0.086 C 
ATOM     14  H6  non d ame     -31.849  11.902  28.957  0.00  0.00     0.086 H 
BRANCH  13  15
ATOM     15  N2  non d ame     -32.918  13.451  29.771  0.00  0.00    -0.343 N 
ATOM     16  C5  non d ame     -32.577  14.308  28.633  0.00  0.00     0.273 C 
ATOM     17  O2  non d ame     -31.754  13.964  27.858  0.00  0.00    -0.266 OA
ATOM     18  H5  non d ame     -33.618  13.739  30.440  0.00  0.00     0.163 HD
BRANCH  16  19
ATOM     19  C4  non d ame     -33.288  15.657  28.445  0.00  0.00     0.154 A 
ATOM     20  C1  non d ame     -34.593  15.879  27.902  0.00  0.00    -0.017 A 
ATOM     21  C2  non d ame     -34.773  17.279  27.948  0.00  0.00     0.077 A 
ATOM     22  H1  non d ame     -35.302  15.137  27.532  0.00  0.00     0.091 H 
ATOM     23  O1  non d ame     -33.693  17.792  28.460  0.00  0.00    -0.218 OA
ATOM     24  N1  non d ame     -32.811  16.866  28.758  0.00  0.00    -0.123 NA
BRANCH  21  25
ATOM     25  C3  non d ame     -36.005  18.045  27.484  0.00  0.00    -0.029 C 
ATOM     26  H2  non d ame     -36.521  17.473  26.715  0.00  0.00     0.036 H 
ATOM     27  H3  non d ame     -36.674  18.202  28.330  0.00  0.00     0.036 H 
ATOM     28  H4  non d ame     -35.702  19.010  27.078  0.00  0.00     0.036 H 
ENDBRANCH  21  25
ENDBRANCH  16  19
ENDBRANCH  13  15
BRANCH  13  29
ATOM     29  C8  non d ame     -31.085  12.327  30.895  0.00  0.00    -0.049 C 
ATOM     30  H7  non d ame     -31.205  13.248  31.466  0.00  0.00     0.030 H 
ATOM     31  H8  non d ame     -31.067  11.477  31.577  0.00  0.00     0.030 H 
ATOM     32  H9  non d ame     -30.150  12.365  30.336  0.00  0.00     0.030 H 
ENDBRANCH  13  29
ENDBRANCH  10  13
ENDBRANCH   7   9
BRANCH   7  33
ATOM     33  C11 non d ame     -36.431   9.861  29.874  0.00  0.00    -0.033 C 
ATOM     34  H12 non d ame     -36.590  10.707  30.543  0.00  0.00     0.042 H 
BRANCH  33  35
ATOM     35  C12 non d ame     -36.622  10.375  28.413  0.00  0.00    -0.071 C 
ATOM     36  H13 non d ame     -37.330   9.731  27.891  0.00  0.00     0.028 H 
ATOM     37  H14 non d ame     -37.006  11.394  28.434  0.00  0.00     0.028 H 
ATOM     38  H15 non d ame     -35.664  10.357  27.894  0.00  0.00     0.028 H 
ENDBRANCH  33  35
BRANCH  33  39
ATOM     39  C13 non d ame     -37.482   8.761  30.230  0.00  0.00    -0.071 C 
ATOM     40  H16 non d ame     -37.566   8.675  31.313  0.00  0.00     0.028 H 
ATOM     41  H17 non d ame     -38.451   9.035  29.811  0.00  0.00     0.028 H 
ATOM     42  H18 non d ame     -37.165   7.806  29.812  0.00  0.00     0.028 H 
ENDBRANCH  33  39
ENDBRANCH   7  33
ENDBRANCH   4   7
ENDBRANCH   1   3
BRANCH   1  43
ATOM     43  C15 non d ame     -32.855   6.906  26.322  0.00  0.00     0.240 C 
ATOM     44  O5  non d ame     -31.759   6.683  26.722  0.00  0.00    -0.271 OA
ATOM     45  N6  non d ame     -33.058   7.317  24.903  0.00  0.00    -0.355 N 
ATOM     46  H46 non d ame     -33.985   7.505  24.550  0.00  0.00     0.162 HD
BRANCH  45  47
ATOM     47  C20 non d ame     -31.890   7.450  24.005  0.00  0.00     0.013 C 
ATOM     48  H30 non d ame     -31.056   7.834  24.594  0.00  0.00     0.072 H 
BRANCH  47  49
ATOM     49  C21 non d ame     -32.223   8.417  22.891  0.00  0.00    -0.038 C 
ATOM     50  H31 non d ame     -33.107   8.008  22.402  0.00  0.00     0.036 H 
ATOM     51  H32 non d ame     -32.265   9.401  23.358  0.00  0.00     0.036 H 
BRANCH  49  52
ATOM     52  C22 non d ame     -31.121   8.491  21.812  0.00  0.00     0.018 C 
ATOM     53  H33 non d ame     -30.826   7.460  21.621  0.00  0.00     0.048 H 
ATOM     54  H34 non d ame     -31.537   9.098  21.007  0.00  0.00     0.048 H 
BRANCH  52  55
ATOM     55  C23 non d ame     -29.835   9.226  22.281  0.00  0.00     0.259 C 
ATOM     56  O7  non d ame     -28.911   8.612  22.707  0.00  0.00    -0.265 OA
BRANCH  55  57
ATOM     57  O8  non d ame     -29.777  10.645  22.207  0.00  0.00    -0.317 OA
BRANCH  57  58
ATOM     58  C29 non d ame     -30.525  11.312  23.228  0.00  0.00     0.052 C 
ATOM     59  H47 non d ame     -31.573  11.100  23.011  0.00  0.00     0.082 H 
ATOM     60  H48 non d ame     -30.088  10.990  24.173  0.00  0.00     0.082 H 
BRANCH  58  61
ATOM     61  C35 non d ame     -30.291  12.838  23.074  0.00  0.00    -0.034 A 
ATOM     62  C30 non d ame     -29.530  13.323  22.014  0.00  0.00    -0.075 A 
ATOM     63  C31 non d ame     -29.319  14.694  21.876  0.00  0.00    -0.082 A 
ATOM     64  H49 non d ame     -29.099  12.628  21.293  0.00  0.00     0.084 H 
ATOM     65  C32 non d ame     -29.871  15.582  22.803  0.00  0.00    -0.083 A 
ATOM     66  H50 non d ame     -28.724  15.070  21.044  0.00  0.00     0.083 H 
ATOM     67  C33 non d ame     -30.626  15.094  23.860  0.00  0.00    -0.082 A 
ATOM     68  H51 non d ame     -29.711  16.655  22.702  0.00  0.00     0.083 H 
ATOM     69  C34 non d ame     -30.841  13.724  24.002  0.00  0.00    -0.075 A 
ATOM     70  H52 non d ame     -31.053  15.789  24.584  0.00  0.00     0.083 H 
ATOM     71  H53 non d ame     -31.437  13.349  24.834  0.00  0.00     0.084 H 
ENDBRANCH  58  61
ENDBRANCH  57  58
ENDBRANCH  55  57
ENDBRANCH  52  55
ENDBRANCH  49  52
ENDBRANCH  47  49
BRANCH  47  72
ATOM     72  C24 non d ame     -31.537   6.089  23.411  0.00  0.00    -0.039 C 
ATOM     73  H35 non d ame     -30.895   6.303  22.556  0.00  0.00     0.036 H 
ATOM     74  H36 non d ame     -31.156   5.498  24.244  0.00  0.00     0.036 H 
BRANCH  72  75
ATOM     75  C25 non d ame     -32.834   5.333  22.849  0.00  0.00    -0.001 C 
ATOM     76  C26 non d ame     -33.255   4.112  23.867  0.00  0.00    -0.035 C 
ATOM     77  C27 non d ame     -33.395   2.973  23.147  0.00  0.00     0.085 C 
ATOM     78  H38 non d ame     -32.430   3.887  24.542  0.00  0.00     0.036 H 
ATOM     79  H39 non d ame     -34.255   4.286  24.266  0.00  0.00     0.036 H 
ATOM     80  N5  non d ame     -32.790   3.233  21.788  0.00  0.00    -0.049 N 
ATOM     81  H40 non d ame     -32.795   2.226  23.666  0.00  0.00     0.075 H 
ATOM     82  H41 non d ame     -34.469   2.829  23.036  0.00  0.00     0.075 H 
ATOM     83  C28 non d ame     -32.614   4.834  21.679  0.00  0.00     0.193 C 
ATOM     84  H42 non d ame     -31.874   2.808  21.797  0.00  0.00     0.280 HD
ATOM     85  H43 non d ame     -33.478   2.938  21.109  0.00  0.00     0.280 HD
ATOM     86  H44 non d ame     -33.302   5.427  21.077  0.00  0.00     0.129 H 
ATOM     87  H37 non d ame     -33.621   6.028  22.555  0.00  0.00     0.046 H 
BRANCH  83  88
ATOM     88  O6  non d ame     -31.309   5.153  21.193  0.00  0.00    -0.369 OA
ATOM     89  H45 non d ame     -30.786   4.350  21.128  0.00  0.00     0.212 HD
ENDBRANCH  83  88
ENDBRANCH  72  75
ENDBRANCH  47  72
ENDBRANCH  45  47
ENDBRANCH   1  43
BRANCH   1  90
ATOM     90  C16 non d ame     -35.323   6.449  26.471  0.00  0.00    -0.035 C 
ATOM     91  H21 non d ame     -36.087   7.128  26.849  0.00  0.00     0.037 H 
ATOM     92  H22 non d ame     -35.014   6.502  25.427  0.00  0.00     0.037 H 
BRANCH  90  93
ATOM     93  C17 non d ame     -35.870   5.003  26.695  0.00  0.00    -0.059 C 
ATOM     94  H23 non d ame     -35.958   4.527  25.719  0.00  0.00     0.038 H 
BRANCH  93  95
ATOM     95  C18 non d ame     -34.903   4.135  27.563  0.00  0.00    -0.073 C 
ATOM     96  H24 non d ame     -34.959   4.457  28.602  0.00  0.00     0.028 H 
ATOM     97  H25 non d ame     -35.193   3.087  27.493  0.00  0.00     0.028 H 
ATOM     98  H26 non d ame     -33.883   4.255  27.200  0.00  0.00     0.028 H 
ENDBRANCH  93  95
BRANCH  93  99
ATOM     99  C19 non d ame     -37.271   5.038  27.311  0.00  0.00    -0.073 C 
ATOM    100  H27 non d ame     -37.851   5.837  26.850  0.00  0.00     0.028 H 
ATOM    101  H28 non d ame     -37.768   4.083  27.139  0.00  0.00     0.028 H 
ATOM    102  H29 non d ame     -37.193   5.217  28.383  0.00  0.00     0.028 H 
ENDBRANCH  93  99
ENDBRANCH  90  93
ENDBRANCH   1  90
TORSDOF 26
ENDMDL
MODEL 8
REMARK VINA RESULT:      -6.2      3.644      7.329
REMARK  26 active torsions:
REMARK  status: ('A' for Active; 'I' for Inactive)
REMARK    1  A    between atoms: C2_2  and  C3_3 
REMARK    2  A    between atoms: C4_6  and  C5_7 
REMARK       I    between atoms: C5_7  and  N2_9 
REMARK    3  A    between atoms: N2_9  and  C6_10 
REMARK    4  A    between atoms: C6_10  and  C7_11 
REMARK    5  A    between atoms: C6_10  and  C8_13 
REMARK       I    between atoms: C7_11  and  N3_14 
REMARK    6  A    between atoms: N3_14  and  C9_15 
REMARK    7  A    between atoms: C9_15  and  C10_16 
REMARK    8  A    between atoms: C9_15  and  C11_18 
REMARK       I    between atoms: C10_16  and  N4_21 
REMARK    9  A    between atoms: C11_18  and  C12_19 
REMARK   10  A    between atoms: C11_18  and  C13_20 
REMARK   11  A    between atoms: N4_21  and  C14_22 
REMARK   12  A    between atoms: C14_22  and  C15_23 
REMARK   13  A    between atoms: C14_22  and  C16_25 
REMARK       I    between atoms: C15_23  and  N6_40 
REMARK   14  A    between atoms: C16_25  and  C17_26 
REMARK   15  A    between atoms: C17_26  and  C18_27 
REMARK   16  A    between atoms: C17_26  and  C19_28 
REMARK   17  A    between atoms: C20_29  and  C21_30 
REMARK   18  A    between atoms: C20_29  and  C24_33 
REMARK   19  A    between atoms: C20_29  and  N6_40 
REMARK   20  A    between atoms: C21_30  and  C22_31 
REMARK   21  A    between atoms: C22_31  and  C23_32 
REMARK   22  A    between atoms: C23_32  and  O8_43 
REMARK   23  A    between atoms: C24_33  and  C25_34 
REMARK   24  A    between atoms: C28_38  and  O6_39 
REMARK   25  A    between atoms: C29_42  and  O8_43 
REMARK   26  A    between atoms: C29_42  and  C35_49 
ROOT
ATOM      1  C14 non d ame     -33.873   6.174  26.669  0.00  0.00     0.089 C 
ATOM      2  H20 non d ame     -34.424   5.411  26.119  0.00  0.00     0.087 H 
ENDROOT
BRANCH   1   3
ATOM      3  N4  non d ame     -33.075   6.918  25.707  0.00  0.00    -0.346 N 
ATOM      4  C10 non d ame     -33.503   6.999  24.263  0.00  0.00     0.241 C 
ATOM      5  O4  non d ame     -34.493   6.455  23.899  0.00  0.00    -0.271 OA
ATOM      6  H19 non d ame     -32.235   7.372  26.036  0.00  0.00     0.163 HD
BRANCH   4   7
ATOM      7  C9  non d ame     -32.668   7.779  23.281  0.00  0.00     0.092 C 
ATOM      8  H11 non d ame     -33.321   8.407  22.675  0.00  0.00     0.088 H 
BRANCH   7   9
ATOM      9  N3  non d ame     -31.763   8.672  24.011  0.00  0.00    -0.346 N 
ATOM     10  C7  non d ame     -32.246   9.934  24.513  0.00  0.00     0.240 C 
ATOM     11  O3  non d ame     -33.360  10.248  24.338  0.00  0.00    -0.271 OA
ATOM     12  H10 non d ame     -30.799   8.415  24.168  0.00  0.00     0.163 HD
BRANCH  10  13
ATOM     13  C6  non d ame     -31.276  10.882  25.285  0.00  0.00     0.086 C 
ATOM     14  H6  non d ame     -30.291  10.442  25.440  0.00  0.00     0.086 H 
BRANCH  13  15
ATOM     15  N2  non d ame     -31.073  12.089  24.502  0.00  0.00    -0.343 N 
ATOM     16  C5  non d ame     -30.317  12.018  23.250  0.00  0.00     0.273 C 
ATOM     17  O2  non d ame     -29.874  10.986  22.883  0.00  0.00    -0.266 OA
ATOM     18  H5  non d ame     -31.453  12.968  24.825  0.00  0.00     0.163 HD
BRANCH  16  19
ATOM     19  C4  non d ame     -30.096  13.287  22.411  0.00  0.00     0.154 A 
ATOM     20  C1  non d ame     -30.978  14.408  22.290  0.00  0.00    -0.017 A 
ATOM     21  C2  non d ame     -30.318  15.296  21.412  0.00  0.00     0.077 A 
ATOM     22  H1  non d ame     -31.947  14.554  22.766  0.00  0.00     0.091 H 
ATOM     23  O1  non d ame     -29.190  14.742  21.075  0.00  0.00    -0.218 OA
ATOM     24  N1  non d ame     -29.039  13.568  21.645  0.00  0.00    -0.123 NA
BRANCH  21  25
ATOM     25  C3  non d ame     -30.832  16.652  20.947  0.00  0.00    -0.029 C 
ATOM     26  H2  non d ame     -31.491  16.517  20.090  0.00  0.00     0.036 H 
ATOM     27  H3  non d ame     -31.383  17.129  21.757  0.00  0.00     0.036 H 
ATOM     28  H4  non d ame     -29.989  17.282  20.662  0.00  0.00     0.036 H 
ENDBRANCH  21  25
ENDBRANCH  16  19
ENDBRANCH  13  15
BRANCH  13  29
ATOM     29  C8  non d ame     -31.871  11.230  26.626  0.00  0.00    -0.049 C 
ATOM     30  H7  non d ame     -32.789  10.661  26.774  0.00  0.00     0.030 H 
ATOM     31  H8  non d ame     -31.160  10.982  27.414  0.00  0.00     0.030 H 
ATOM     32  H9  non d ame     -32.094  12.296  26.659  0.00  0.00     0.030 H 
ENDBRANCH  13  29
ENDBRANCH  10  13
ENDBRANCH   7   9
BRANCH   7  33
ATOM     33  C11 non d ame     -31.833   6.793  22.414  0.00  0.00    -0.033 C 
ATOM     34  H12 non d ame     -32.092   5.781  22.725  0.00  0.00     0.042 H 
BRANCH  33  35
ATOM     35  C12 non d ame     -32.191   6.924  20.900  0.00  0.00    -0.071 C 
ATOM     36  H13 non d ame     -33.189   6.522  20.727  0.00  0.00     0.028 H 
ATOM     37  H14 non d ame     -32.166   7.974  20.611  0.00  0.00     0.028 H 
ATOM     38  H15 non d ame     -31.467   6.366  20.306  0.00  0.00     0.028 H 
ENDBRANCH  33  35
BRANCH  33  39
ATOM     39  C13 non d ame     -30.302   6.995  22.654  0.00  0.00    -0.071 C 
ATOM     40  H16 non d ame     -30.035   6.613  23.639  0.00  0.00     0.028 H 
ATOM     41  H17 non d ame     -29.740   6.457  21.890  0.00  0.00     0.028 H 
ATOM     42  H18 non d ame     -30.063   8.057  22.598  0.00  0.00     0.028 H 
ENDBRANCH  33  39
ENDBRANCH   7  33
ENDBRANCH   4   7
ENDBRANCH   1   3
BRANCH   1  43
ATOM     43  C15 non d ame     -34.819   7.167  27.402  0.00  0.00     0.240 C 
ATOM     44  O5  non d ame     -35.859   7.467  26.909  0.00  0.00    -0.271 OA
ATOM     45  N6  non d ame     -34.433   7.740  28.724  0.00  0.00    -0.355 N 
ATOM     46  H46 non d ame     -33.555   7.489  29.155  0.00  0.00     0.162 HD
BRANCH  45  47
ATOM     47  C20 non d ame     -35.344   8.682  29.408  0.00  0.00     0.013 C 
ATOM     48  H30 non d ame     -36.263   8.745  28.825  0.00  0.00     0.072 H 
BRANCH  47  49
ATOM     49  C21 non d ame     -34.689  10.042  29.488  0.00  0.00    -0.038 C 
ATOM     50  H31 non d ame     -34.857  10.508  28.517  0.00  0.00     0.036 H 
ATOM     51  H32 non d ame     -35.083  10.506  30.392  0.00  0.00     0.036 H 
BRANCH  49  52
ATOM     52  C22 non d ame     -33.158   9.959  29.673  0.00  0.00     0.018 C 
ATOM     53  H33 non d ame     -32.969   8.997  30.147  0.00  0.00     0.048 H 
ATOM     54  H34 non d ame     -32.730  10.178  28.694  0.00  0.00     0.048 H 
BRANCH  52  55
ATOM     55  C23 non d ame     -32.585  11.032  30.640  0.00  0.00     0.259 C 
ATOM     56  O7  non d ame     -33.219  11.404  31.573  0.00  0.00    -0.265 OA
BRANCH  55  57
ATOM     57  O8  non d ame     -31.295  11.577  30.390  0.00  0.00    -0.317 OA
BRANCH  57  58
ATOM     58  C29 non d ame     -31.199  12.983  30.634  0.00  0.00     0.052 C 
ATOM     59  H47 non d ame     -31.936  13.199  31.408  0.00  0.00     0.082 H 
ATOM     60  H48 non d ame     -30.143  13.180  30.817  0.00  0.00     0.082 H 
BRANCH  58  61
ATOM     61  C35 non d ame     -31.619  13.725  29.337  0.00  0.00    -0.034 A 
ATOM     62  C30 non d ame     -30.684  13.958  28.334  0.00  0.00    -0.075 A 
ATOM     63  C31 non d ame     -31.061  14.624  27.169  0.00  0.00    -0.082 A 
ATOM     64  H49 non d ame     -29.656  13.619  28.461  0.00  0.00     0.084 H 
ATOM     65  C32 non d ame     -32.379  15.059  27.009  0.00  0.00    -0.083 A 
ATOM     66  H50 non d ame     -30.326  14.803  26.383  0.00  0.00     0.083 H 
ATOM     67  C33 non d ame     -33.308  14.827  28.015  0.00  0.00    -0.082 A 
ATOM     68  H51 non d ame     -32.683  15.580  26.101  0.00  0.00     0.083 H 
ATOM     69  C34 non d ame     -32.936  14.161  29.180  0.00  0.00    -0.075 A 
ATOM     70  H52 non d ame     -34.336  15.171  27.888  0.00  0.00     0.083 H 
ATOM     71  H53 non d ame     -33.672  13.981  29.964  0.00  0.00     0.084 H 
ENDBRANCH  58  61
ENDBRANCH  57  58
ENDBRANCH  55  57
ENDBRANCH  52  55
ENDBRANCH  49  52
ENDBRANCH  47  49
BRANCH  47  72
ATOM     72  C24 non d ame     -35.645   8.177  30.818  0.00  0.00    -0.039 C 
ATOM     73  H35 non d ame     -35.179   7.194  30.880  0.00  0.00     0.036 H 
ATOM     74  H36 non d ame     -35.323   8.976  31.487  0.00  0.00     0.036 H 
BRANCH  72  75
ATOM     75  C25 non d ame     -37.217   7.971  31.051  0.00  0.00    -0.001 C 
ATOM     76  C26 non d ame     -38.031   8.238  29.647  0.00  0.00    -0.035 C 
ATOM     77  C27 non d ame     -39.031   9.120  29.884  0.00  0.00     0.085 C 
ATOM     78  H38 non d ame     -37.391   8.763  28.938  0.00  0.00     0.036 H 
ATOM     79  H39 non d ame     -38.556   7.333  29.341  0.00  0.00     0.036 H 
ATOM     80  N5  non d ame     -38.772   9.728  31.241  0.00  0.00    -0.049 N 
ATOM     81  H40 non d ame     -38.924   9.893  29.122  0.00  0.00     0.075 H 
ATOM     82  H41 non d ame     -39.941   8.523  29.930  0.00  0.00     0.075 H 
ATOM     83  C28 non d ame     -37.668   8.785  31.947  0.00  0.00     0.193 C 
ATOM     84  H42 non d ame     -38.361  10.635  31.075  0.00  0.00     0.280 HD
ATOM     85  H43 non d ame     -39.637   9.652  31.758  0.00  0.00     0.280 HD
ATOM     86  H44 non d ame     -37.958   8.080  32.726  0.00  0.00     0.129 H 
ATOM     87  H37 non d ame     -37.438   7.046  31.583  0.00  0.00     0.046 H 
BRANCH  83  88
ATOM     88  O6  non d ame     -36.631   9.583  32.520  0.00  0.00    -0.369 OA
ATOM     89  H45 non d ame     -35.918   9.686  31.885  0.00  0.00     0.212 HD
ENDBRANCH  83  88
ENDBRANCH  72  75
ENDBRANCH  47  72
ENDBRANCH  45  47
ENDBRANCH   1  43
BRANCH   1  90
ATOM     90  C16 non d ame     -32.946   5.513  27.677  0.00  0.00    -0.035 C 
ATOM     91  H21 non d ame     -32.108   5.134  27.093  0.00  0.00     0.037 H 
ATOM     92  H22 non d ame     -32.777   6.263  28.449  0.00  0.00     0.037 H 
BRANCH  90  93
ATOM     93  C17 non d ame     -33.578   4.277  28.393  0.00  0.00    -0.059 C 
ATOM     94  H23 non d ame     -34.587   4.552  28.699  0.00  0.00     0.038 H 
BRANCH  93  95
ATOM     95  C18 non d ame     -33.688   3.040  27.446  0.00  0.00    -0.073 C 
ATOM     96  H24 non d ame     -32.690   2.703  27.170  0.00  0.00     0.028 H 
ATOM     97  H25 non d ame     -34.213   2.234  27.959  0.00  0.00     0.028 H 
ATOM     98  H26 non d ame     -34.239   3.318  26.548  0.00  0.00     0.028 H 
ENDBRANCH  93  95
BRANCH  93  99
ATOM     99  C19 non d ame     -32.798   3.923  29.662  0.00  0.00    -0.073 C 
ATOM    100  H27 non d ame     -33.432   3.334  30.326  0.00  0.00     0.028 H 
ATOM    101  H28 non d ame     -31.914   3.344  29.397  0.00  0.00     0.028 H 
ATOM    102  H29 non d ame     -32.493   4.839  30.168  0.00  0.00     0.028 H 
ENDBRANCH  93  99
ENDBRANCH  90  93
ENDBRANCH   1  90
TORSDOF 26
ENDMDL
MODEL 9
REMARK VINA RESULT:      -6.2      3.181      9.391
REMARK  26 active torsions:
REMARK  status: ('A' for Active; 'I' for Inactive)
REMARK    1  A    between atoms: C2_2  and  C3_3 
REMARK    2  A    between atoms: C4_6  and  C5_7 
REMARK       I    between atoms: C5_7  and  N2_9 
REMARK    3  A    between atoms: N2_9  and  C6_10 
REMARK    4  A    between atoms: C6_10  and  C7_11 
REMARK    5  A    between atoms: C6_10  and  C8_13 
REMARK       I    between atoms: C7_11  and  N3_14 
REMARK    6  A    between atoms: N3_14  and  C9_15 
REMARK    7  A    between atoms: C9_15  and  C10_16 
REMARK    8  A    between atoms: C9_15  and  C11_18 
REMARK       I    between atoms: C10_16  and  N4_21 
REMARK    9  A    between atoms: C11_18  and  C12_19 
REMARK   10  A    between atoms: C11_18  and  C13_20 
REMARK   11  A    between atoms: N4_21  and  C14_22 
REMARK   12  A    between atoms: C14_22  and  C15_23 
REMARK   13  A    between atoms: C14_22  and  C16_25 
REMARK       I    between atoms: C15_23  and  N6_40 
REMARK   14  A    between atoms: C16_25  and  C17_26 
REMARK   15  A    between atoms: C17_26  and  C18_27 
REMARK   16  A    between atoms: C17_26  and  C19_28 
REMARK   17  A    between atoms: C20_29  and  C21_30 
REMARK   18  A    between atoms: C20_29  and  C24_33 
REMARK   19  A    between atoms: C20_29  and  N6_40 
REMARK   20  A    between atoms: C21_30  and  C22_31 
REMARK   21  A    between atoms: C22_31  and  C23_32 
REMARK   22  A    between atoms: C23_32  and  O8_43 
REMARK   23  A    between atoms: C24_33  and  C25_34 
REMARK   24  A    between atoms: C28_38  and  O6_39 
REMARK   25  A    between atoms: C29_42  and  O8_43 
REMARK   26  A    between atoms: C29_42  and  C35_49 
ROOT
ATOM      1  C14 non d ame     -32.982  10.232  25.846  0.00  0.00     0.089 C 
ATOM      2  H20 non d ame     -32.597   9.227  26.021  0.00  0.00     0.087 H 
ENDROOT
BRANCH   1   3
ATOM      3  N4  non d ame     -33.773  10.606  27.009  0.00  0.00    -0.346 N 
ATOM      4  C10 non d ame     -33.707   9.786  28.272  0.00  0.00     0.241 C 
ATOM      5  O4  non d ame     -33.011   8.826  28.328  0.00  0.00    -0.271 OA
ATOM      6  H19 non d ame     -34.361  11.425  26.940  0.00  0.00     0.163 HD
BRANCH   4   7
ATOM      7  C9  non d ame     -34.529  10.191  29.467  0.00  0.00     0.092 C 
ATOM      8  H11 non d ame     -35.099  11.087  29.223  0.00  0.00     0.088 H 
BRANCH   7   9
ATOM      9  N3  non d ame     -35.494   9.133  29.779  0.00  0.00    -0.346 N 
ATOM     10  C7  non d ame     -36.906   9.372  29.602  0.00  0.00     0.240 C 
ATOM     11  O3  non d ame     -37.282  10.409  29.212  0.00  0.00    -0.271 OA
ATOM     12  H10 non d ame     -35.185   8.233  30.118  0.00  0.00     0.163 HD
BRANCH  10  13
ATOM     13  C6  non d ame     -37.929   8.243  29.938  0.00  0.00     0.086 C 
ATOM     14  H6  non d ame     -38.895   8.392  29.456  0.00  0.00     0.086 H 
BRANCH  13  15
ATOM     15  N2  non d ame     -37.412   6.976  29.447  0.00  0.00    -0.343 N 
ATOM     16  C5  non d ame     -37.831   6.487  28.132  0.00  0.00     0.273 C 
ATOM     17  O2  non d ame     -38.586   7.118  27.478  0.00  0.00    -0.266 OA
ATOM     18  H5  non d ame     -36.769   6.442  30.014  0.00  0.00     0.163 HD
BRANCH  16  19
ATOM     19  C4  non d ame     -37.290   5.150  27.600  0.00  0.00     0.154 A 
ATOM     20  C1  non d ame     -37.888   3.858  27.742  0.00  0.00    -0.017 A 
ATOM     21  C2  non d ame     -37.005   2.974  27.082  0.00  0.00     0.077 A 
ATOM     22  H1  non d ame     -38.820   3.601  28.247  0.00  0.00     0.091 H 
ATOM     23  O1  non d ame     -36.021   3.686  26.618  0.00  0.00    -0.218 OA
ATOM     24  N1  non d ame     -36.164   4.959  26.907  0.00  0.00    -0.123 NA
BRANCH  21  25
ATOM     25  C3  non d ame     -37.177   1.468  26.940  0.00  0.00    -0.029 C 
ATOM     26  H2  non d ame     -37.971   1.128  27.604  0.00  0.00     0.036 H 
ATOM     27  H3  non d ame     -37.438   1.228  25.909  0.00  0.00     0.036 H 
ATOM     28  H4  non d ame     -36.244   0.969  27.204  0.00  0.00     0.036 H 
ENDBRANCH  21  25
ENDBRANCH  16  19
ENDBRANCH  13  15
BRANCH  13  29
ATOM     29  C8  non d ame     -38.134   8.174  31.430  0.00  0.00    -0.049 C 
ATOM     30  H7  non d ame     -38.373   7.150  31.717  0.00  0.00     0.030 H 
ATOM     31  H8  non d ame     -37.223   8.490  31.936  0.00  0.00     0.030 H 
ATOM     32  H9  non d ame     -38.956   8.831  31.715  0.00  0.00     0.030 H 
ENDBRANCH  13  29
ENDBRANCH  10  13
ENDBRANCH   7   9
BRANCH   7  33
ATOM     33  C11 non d ame     -33.591  10.410  30.691  0.00  0.00    -0.033 C 
ATOM     34  H12 non d ame     -33.145   9.447  30.940  0.00  0.00     0.042 H 
BRANCH  33  35
ATOM     35  C12 non d ame     -32.427  11.391  30.347  0.00  0.00    -0.071 C 
ATOM     36  H13 non d ame     -32.506  12.282  30.970  0.00  0.00     0.028 H 
ATOM     37  H14 non d ame     -31.472  10.900  30.533  0.00  0.00     0.028 H 
ATOM     38  H15 non d ame     -32.490  11.675  29.297  0.00  0.00     0.028 H 
ENDBRANCH  33  35
BRANCH  33  39
ATOM     39  C13 non d ame     -34.399  10.904  31.934  0.00  0.00    -0.071 C 
ATOM     40  H16 non d ame     -33.836  10.689  32.842  0.00  0.00     0.028 H 
ATOM     41  H17 non d ame     -34.566  11.979  31.855  0.00  0.00     0.028 H 
ATOM     42  H18 non d ame     -35.360  10.391  31.970  0.00  0.00     0.028 H 
ENDBRANCH  33  39
ENDBRANCH   7  33
ENDBRANCH   4   7
ENDBRANCH   1   3
BRANCH   1  43
ATOM     43  C15 non d ame     -31.841  11.274  25.667  0.00  0.00     0.240 C 
ATOM     44  O5  non d ame     -30.763  11.054  26.117  0.00  0.00    -0.271 OA
ATOM     45  N6  non d ame     -32.089  12.544  24.927  0.00  0.00    -0.355 N 
ATOM     46  H46 non d ame     -32.999  12.740  24.536  0.00  0.00     0.162 HD
BRANCH  45  47
ATOM     47  C20 non d ame     -30.994  13.523  24.764  0.00  0.00     0.013 C 
ATOM     48  H30 non d ame     -30.120  13.140  25.291  0.00  0.00     0.072 H 
BRANCH  47  49
ATOM     49  C21 non d ame     -31.416  14.848  25.358  0.00  0.00    -0.038 C 
ATOM     50  H31 non d ame     -30.851  14.949  26.285  0.00  0.00     0.036 H 
ATOM     51  H32 non d ame     -31.291  15.581  24.561  0.00  0.00     0.036 H 
BRANCH  49  52
ATOM     52  C22 non d ame     -32.909  14.880  25.751  0.00  0.00     0.018 C 
ATOM     53  H33 non d ame     -33.235  15.907  25.588  0.00  0.00     0.048 H 
ATOM     54  H34 non d ame     -33.377  14.066  25.198  0.00  0.00     0.048 H 
BRANCH  52  55
ATOM     55  C23 non d ame     -33.168  14.583  27.254  0.00  0.00     0.259 C 
ATOM     56  O7  non d ame     -33.317  13.466  27.630  0.00  0.00    -0.265 OA
BRANCH  55  57
ATOM     57  O8  non d ame     -33.237  15.663  28.176  0.00  0.00    -0.317 OA
BRANCH  57  58
ATOM     58  C29 non d ame     -34.437  16.435  28.079  0.00  0.00     0.052 C 
ATOM     59  H47 non d ame     -35.016  15.981  27.275  0.00  0.00     0.082 H 
ATOM     60  H48 non d ame     -34.845  16.474  29.089  0.00  0.00     0.082 H 
BRANCH  58  61
ATOM     61  C35 non d ame     -34.047  17.875  27.652  0.00  0.00    -0.034 A 
ATOM     62  C30 non d ame     -34.976  18.686  27.008  0.00  0.00    -0.075 A 
ATOM     63  C31 non d ame     -34.626  19.979  26.623  0.00  0.00    -0.082 A 
ATOM     64  H49 non d ame     -35.979  18.308  26.804  0.00  0.00     0.084 H 
ATOM     65  C32 non d ame     -33.340  20.461  26.882  0.00  0.00    -0.083 A 
ATOM     66  H50 non d ame     -35.357  20.613  26.120  0.00  0.00     0.083 H 
ATOM     67  C33 non d ame     -32.415  19.646  27.522  0.00  0.00    -0.082 A 
ATOM     68  H51 non d ame     -33.058  21.471  26.586  0.00  0.00     0.083 H 
ATOM     69  C34 non d ame     -32.762  18.354  27.910  0.00  0.00    -0.075 A 
ATOM     70  H52 non d ame     -31.412  20.024  27.721  0.00  0.00     0.083 H 
ATOM     71  H53 non d ame     -32.030  17.721  28.413  0.00  0.00     0.084 H 
ENDBRANCH  58  61
ENDBRANCH  57  58
ENDBRANCH  55  57
ENDBRANCH  52  55
ENDBRANCH  49  52
ENDBRANCH  47  49
BRANCH  47  72
ATOM     72  C24 non d ame     -30.681  13.706  23.280  0.00  0.00    -0.039 C 
ATOM     73  H35 non d ame     -29.832  13.052  23.080  0.00  0.00     0.036 H 
ATOM     74  H36 non d ame     -31.626  13.546  22.762  0.00  0.00     0.036 H 
BRANCH  72  75
ATOM     75  C25 non d ame     -30.211  15.203  22.954  0.00  0.00    -0.001 C 
ATOM     76  C26 non d ame     -31.324  15.942  21.995  0.00  0.00    -0.035 C 
ATOM     77  C27 non d ame     -30.690  16.475  20.923  0.00  0.00     0.085 C 
ATOM     78  H38 non d ame     -31.989  15.200  21.554  0.00  0.00     0.036 H 
ATOM     79  H39 non d ame     -31.738  16.812  22.504  0.00  0.00     0.036 H 
ATOM     80  N5  non d ame     -29.300  15.888  20.894  0.00  0.00    -0.049 N 
ATOM     81  H40 non d ame     -31.243  16.122  20.052  0.00  0.00     0.075 H 
ATOM     82  H41 non d ame     -30.620  17.543  21.127  0.00  0.00     0.075 H 
ATOM     83  C28 non d ame     -29.073  15.213  22.343  0.00  0.00     0.193 C 
ATOM     84  H42 non d ame     -29.312  15.157  20.197  0.00  0.00     0.280 HD
ATOM     85  H43 non d ame     -28.663  16.667  20.799  0.00  0.00     0.280 HD
ATOM     86  H44 non d ame     -28.451  15.704  23.092  0.00  0.00     0.129 H 
ATOM     87  H37 non d ame     -29.892  15.740  23.847  0.00  0.00     0.046 H 
BRANCH  83  88
ATOM     88  O6  non d ame     -28.529  13.900  22.196  0.00  0.00    -0.369 OA
ATOM     89  H45 non d ame     -29.128  13.363  21.672  0.00  0.00     0.212 HD
ENDBRANCH  83  88
ENDBRANCH  72  75
ENDBRANCH  47  72
ENDBRANCH  45  47
ENDBRANCH   1  43
BRANCH   1  90
ATOM     90  C16 non d ame     -33.875  10.235  24.616  0.00  0.00    -0.035 C 
ATOM     91  H21 non d ame     -34.894  10.204  24.999  0.00  0.00     0.037 H 
ATOM     92  H22 non d ame     -33.542  11.086  24.020  0.00  0.00     0.037 H 
BRANCH  90  93
ATOM     93  C17 non d ame     -33.704   8.971  23.715  0.00  0.00    -0.059 C 
ATOM     94  H23 non d ame     -34.588   8.895  23.082  0.00  0.00     0.038 H 
BRANCH  93  95
ATOM     95  C18 non d ame     -32.457   9.078  22.780  0.00  0.00    -0.073 C 
ATOM     96  H24 non d ame     -31.737   9.773  23.212  0.00  0.00     0.028 H 
ATOM     97  H25 non d ame     -31.996   8.096  22.676  0.00  0.00     0.028 H 
ATOM     98  H26 non d ame     -32.767   9.439  21.800  0.00  0.00     0.028 H 
ENDBRANCH  93  95
BRANCH  93  99
ATOM     99  C19 non d ame     -33.642   7.699  24.563  0.00  0.00    -0.073 C 
ATOM    100  H27 non d ame     -33.764   7.957  25.616  0.00  0.00     0.028 H 
ATOM    101  H28 non d ame     -34.439   7.020  24.261  0.00  0.00     0.028 H 
ATOM    102  H29 non d ame     -32.677   7.213  24.418  0.00  0.00     0.028 H 
ENDBRANCH  93  99
ENDBRANCH  90  93
ENDBRANCH   1  90
TORSDOF 26
ENDMDL
MODEL 10
REMARK VINA RESULT:      -6.2      2.964      7.419
REMARK  26 active torsions:
REMARK  status: ('A' for Active; 'I' for Inactive)
REMARK    1  A    between atoms: C2_2  and  C3_3 
REMARK    2  A    between atoms: C4_6  and  C5_7 
REMARK       I    between atoms: C5_7  and  N2_9 
REMARK    3  A    between atoms: N2_9  and  C6_10 
REMARK    4  A    between atoms: C6_10  and  C7_11 
REMARK    5  A    between atoms: C6_10  and  C8_13 
REMARK       I    between atoms: C7_11  and  N3_14 
REMARK    6  A    between atoms: N3_14  and  C9_15 
REMARK    7  A    between atoms: C9_15  and  C10_16 
REMARK    8  A    between atoms: C9_15  and  C11_18 
REMARK       I    between atoms: C10_16  and  N4_21 
REMARK    9  A    between atoms: C11_18  and  C12_19 
REMARK   10  A    between atoms: C11_18  and  C13_20 
REMARK   11  A    between atoms: N4_21  and  C14_22 
REMARK   12  A    between atoms: C14_22  and  C15_23 
REMARK   13  A    between atoms: C14_22  and  C16_25 
REMARK       I    between atoms: C15_23  and  N6_40 
REMARK   14  A    between atoms: C16_25  and  C17_26 
REMARK   15  A    between atoms: C17_26  and  C18_27 
REMARK   16  A    between atoms: C17_26  and  C19_28 
REMARK   17  A    between atoms: C20_29  and  C21_30 
REMARK   18  A    between atoms: C20_29  and  C24_33 
REMARK   19  A    between atoms: C20_29  and  N6_40 
REMARK   20  A    between atoms: C21_30  and  C22_31 
REMARK   21  A    between atoms: C22_31  and  C23_32 
REMARK   22  A    between atoms: C23_32  and  O8_43 
REMARK   23  A    between atoms: C24_33  and  C25_34 
REMARK   24  A    between atoms: C28_38  and  O6_39 
REMARK   25  A    between atoms: C29_42  and  O8_43 
REMARK   26  A    between atoms: C29_42  and  C35_49 
ROOT
ATOM      1  C14 non d ame     -36.061   9.729  30.980  0.00  0.00     0.089 C 
ATOM      2  H20 non d ame     -36.605  10.499  31.527  0.00  0.00     0.087 H 
ENDROOT
BRANCH   1   3
ATOM      3  N4  non d ame     -36.663   9.623  29.659  0.00  0.00    -0.346 N 
ATOM      4  C10 non d ame     -37.863  10.461  29.299  0.00  0.00     0.241 C 
ATOM      5  O4  non d ame     -38.329  11.213  30.091  0.00  0.00    -0.271 OA
ATOM      6  H19 non d ame     -36.252   8.975  29.001  0.00  0.00     0.163 HD
BRANCH   4   7
ATOM      7  C9  non d ame     -38.470  10.342  27.926  0.00  0.00     0.092 C 
ATOM      8  H11 non d ame     -39.511  10.662  27.965  0.00  0.00     0.088 H 
BRANCH   7   9
ATOM      9  N3  non d ame     -37.774  11.245  27.004  0.00  0.00    -0.346 N 
ATOM     10  C7  non d ame     -38.289  12.571  26.768  0.00  0.00     0.240 C 
ATOM     11  O3  non d ame     -39.263  12.928  27.311  0.00  0.00    -0.271 OA
ATOM     12  H10 non d ame     -36.933  10.951  26.527  0.00  0.00     0.163 HD
BRANCH  10  13
ATOM     13  C6  non d ame     -37.545  13.527  25.784  0.00  0.00     0.086 C 
ATOM     14  H6  non d ame     -38.202  13.934  25.015  0.00  0.00     0.086 H 
BRANCH  13  15
ATOM     15  N2  non d ame     -37.025  14.660  26.530  0.00  0.00    -0.343 N 
ATOM     16  C5  non d ame     -37.558  16.000  26.272  0.00  0.00     0.273 C 
ATOM     17  O2  non d ame     -38.404  16.155  25.460  0.00  0.00    -0.266 OA
ATOM     18  H5  non d ame     -36.300  14.519  27.219  0.00  0.00     0.163 HD
BRANCH  16  19
ATOM     19  C4  non d ame     -37.019  17.207  27.054  0.00  0.00     0.154 A 
ATOM     20  C1  non d ame     -37.177  18.591  26.725  0.00  0.00    -0.017 A 
ATOM     21  C2  non d ame     -36.501  19.288  27.752  0.00  0.00     0.077 A 
ATOM     22  H1  non d ame     -37.701  19.023  25.873  0.00  0.00     0.091 H 
ATOM     23  O1  non d ame     -36.017  18.399  28.570  0.00  0.00    -0.218 OA
ATOM     24  N1  non d ame     -36.306  17.178  28.183  0.00  0.00    -0.123 NA
BRANCH  21  25
ATOM     25  C3  non d ame     -36.366  20.799  27.878  0.00  0.00    -0.029 C 
ATOM     26  H2  non d ame     -37.316  21.271  27.627  0.00  0.00     0.036 H 
ATOM     27  H3  non d ame     -36.093  21.055  28.901  0.00  0.00     0.036 H 
ATOM     28  H4  non d ame     -35.593  21.153  27.196  0.00  0.00     0.036 H 
ENDBRANCH  21  25
ENDBRANCH  16  19
ENDBRANCH  13  15
BRANCH  13  29
ATOM     29  C8  non d ame     -36.415  12.785  25.117  0.00  0.00    -0.049 C 
ATOM     30  H7  non d ame     -36.674  11.729  25.032  0.00  0.00     0.030 H 
ATOM     31  H8  non d ame     -36.246  13.198  24.123  0.00  0.00     0.030 H 
ATOM     32  H9  non d ame     -35.509  12.890  25.713  0.00  0.00     0.030 H 
ENDBRANCH  13  29
ENDBRANCH  10  13
ENDBRANCH   7   9
BRANCH   7  33
ATOM     33  C11 non d ame     -38.325   8.877  27.420  0.00  0.00    -0.033 C 
ATOM     34  H12 non d ame     -37.416   8.466  27.858  0.00  0.00     0.042 H 
BRANCH  33  35
ATOM     35  C12 non d ame     -39.518   7.991  27.898  0.00  0.00    -0.071 C 
ATOM     36  H13 non d ame     -40.277   8.622  28.360  0.00  0.00     0.028 H 
ATOM     37  H14 non d ame     -39.949   7.470  27.043  0.00  0.00     0.028 H 
ATOM     38  H15 non d ame     -39.160   7.262  28.625  0.00  0.00     0.028 H 
ENDBRANCH  33  35
BRANCH  33  39
ATOM     39  C13 non d ame     -38.175   8.834  25.866  0.00  0.00    -0.071 C 
ATOM     40  H16 non d ame     -37.948   7.815  25.551  0.00  0.00     0.028 H 
ATOM     41  H17 non d ame     -39.107   9.159  25.401  0.00  0.00     0.028 H 
ATOM     42  H18 non d ame     -37.367   9.498  25.560  0.00  0.00     0.028 H 
ENDBRANCH  33  39
ENDBRANCH   7  33
ENDBRANCH   4   7
ENDBRANCH   1   3
BRANCH   1  43
ATOM     43  C15 non d ame     -34.555  10.081  30.811  0.00  0.00     0.240 C 
ATOM     44  O5  non d ame     -33.732   9.454  31.397  0.00  0.00    -0.271 OA
ATOM     45  N6  non d ame     -34.137  11.194  29.912  0.00  0.00    -0.355 N 
ATOM     46  H46 non d ame     -34.827  11.731  29.406  0.00  0.00     0.162 HD
BRANCH  45  47
ATOM     47  C20 non d ame     -32.702  11.515  29.762  0.00  0.00     0.013 C 
ATOM     48  H30 non d ame     -32.158  11.003  30.555  0.00  0.00     0.072 H 
BRANCH  47  49
ATOM     49  C21 non d ame     -32.508  13.010  29.885  0.00  0.00    -0.038 C 
ATOM     50  H31 non d ame     -33.309  13.460  29.297  0.00  0.00     0.036 H 
ATOM     51  H32 non d ame     -32.438  13.210  30.954  0.00  0.00     0.036 H 
BRANCH  49  52
ATOM     52  C22 non d ame     -31.182  13.496  29.261  0.00  0.00     0.018 C 
ATOM     53  H33 non d ame     -30.649  14.007  30.062  0.00  0.00     0.048 H 
ATOM     54  H34 non d ame     -30.741  12.620  28.785  0.00  0.00     0.048 H 
BRANCH  52  55
ATOM     55  C23 non d ame     -31.369  14.548  28.132  0.00  0.00     0.259 C 
ATOM     56  O7  non d ame     -30.736  14.475  27.129  0.00  0.00    -0.265 OA
BRANCH  55  57
ATOM     57  O8  non d ame     -32.299  15.609  28.316  0.00  0.00    -0.317 OA
BRANCH  57  58
ATOM     58  C29 non d ame     -33.043  15.941  27.141  0.00  0.00     0.052 C 
ATOM     59  H47 non d ame     -32.495  15.498  26.309  0.00  0.00     0.082 H 
ATOM     60  H48 non d ame     -34.068  15.631  27.344  0.00  0.00     0.082 H 
BRANCH  58  61
ATOM     61  C35 non d ame     -33.020  17.484  26.979  0.00  0.00    -0.034 A 
ATOM     62  C30 non d ame     -33.386  18.063  25.768  0.00  0.00    -0.075 A 
ATOM     63  C31 non d ame     -33.365  19.449  25.622  0.00  0.00    -0.082 A 
ATOM     64  H49 non d ame     -33.690  17.431  24.933  0.00  0.00     0.084 H 
ATOM     65  C32 non d ame     -32.973  20.258  26.693  0.00  0.00    -0.083 A 
ATOM     66  H50 non d ame     -33.654  19.900  24.673  0.00  0.00     0.083 H 
ATOM     67  C33 non d ame     -32.604  19.675  27.898  0.00  0.00    -0.082 A 
ATOM     68  H51 non d ame     -32.954  21.342  26.587  0.00  0.00     0.083 H 
ATOM     69  C34 non d ame     -32.626  18.290  28.049  0.00  0.00    -0.075 A 
ATOM     70  H52 non d ame     -32.296  20.309  28.730  0.00  0.00     0.083 H 
ATOM     71  H53 non d ame     -32.337  17.840  28.999  0.00  0.00     0.084 H 
ENDBRANCH  58  61
ENDBRANCH  57  58
ENDBRANCH  55  57
ENDBRANCH  52  55
ENDBRANCH  49  52
ENDBRANCH  47  49
BRANCH  47  72
ATOM     72  C24 non d ame     -32.209  11.048  28.394  0.00  0.00    -0.039 C 
ATOM     73  H35 non d ame     -31.295  11.613  28.206  0.00  0.00     0.036 H 
ATOM     74  H36 non d ame     -32.174   9.961  28.453  0.00  0.00     0.036 H 
BRANCH  72  75
ATOM     75  C25 non d ame     -33.244  11.426  27.230  0.00  0.00    -0.001 C 
ATOM     76  C26 non d ame     -34.256  10.160  26.949  0.00  0.00    -0.035 C 
ATOM     77  C27 non d ame     -34.259   9.890  25.622  0.00  0.00     0.085 C 
ATOM     78  H38 non d ame     -33.850   9.251  27.393  0.00  0.00     0.036 H 
ATOM     79  H39 non d ame     -35.286  10.453  27.152  0.00  0.00     0.036 H 
ATOM     80  N5  non d ame     -33.096  10.639  25.017  0.00  0.00    -0.049 N 
ATOM     81  H40 non d ame     -34.072   8.819  25.542  0.00  0.00     0.075 H 
ATOM     82  H41 non d ame     -35.189  10.311  25.241  0.00  0.00     0.075 H 
ATOM     83  C28 non d ame     -32.629  11.709  26.131  0.00  0.00     0.193 C 
ATOM     84  H42 non d ame     -32.356   9.964  24.889  0.00  0.00     0.280 HD
ATOM     85  H43 non d ame     -33.464  11.142  24.221  0.00  0.00     0.280 HD
ATOM     86  H44 non d ame     -32.884  12.764  26.028  0.00  0.00     0.129 H 
ATOM     87  H37 non d ame     -33.702  12.402  27.386  0.00  0.00     0.046 H 
BRANCH  83  88
ATOM     88  O6  non d ame     -31.208  11.674  26.284  0.00  0.00    -0.369 OA
ATOM     89  H45 non d ame     -30.924  10.767  26.422  0.00  0.00     0.212 HD
ENDBRANCH  83  88
ENDBRANCH  72  75
ENDBRANCH  47  72
ENDBRANCH  45  47
ENDBRANCH   1  43
BRANCH   1  90
ATOM     90  C16 non d ame     -36.197   8.395  31.696  0.00  0.00    -0.035 C 
ATOM     91  H21 non d ame     -35.237   8.230  32.184  0.00  0.00     0.037 H 
ATOM     92  H22 non d ame     -37.105   8.479  32.293  0.00  0.00     0.037 H 
BRANCH  90  93
ATOM     93  C17 non d ame     -36.414   7.185  30.732  0.00  0.00    -0.059 C 
ATOM     94  H23 non d ame     -36.437   7.574  29.714  0.00  0.00     0.038 H 
BRANCH  93  95
ATOM     95  C18 non d ame     -35.251   6.146  30.819  0.00  0.00    -0.073 C 
ATOM     96  H24 non d ame     -34.531   6.338  30.025  0.00  0.00     0.028 H 
ATOM     97  H25 non d ame     -34.756   6.235  31.786  0.00  0.00     0.028 H 
ATOM     98  H26 non d ame     -35.654   5.140  30.709  0.00  0.00     0.028 H 
ENDBRANCH  93  95
BRANCH  93  99
ATOM     99  C19 non d ame     -37.765   6.514  30.992  0.00  0.00    -0.073 C 
ATOM    100  H27 non d ame     -37.615   5.447  31.157  0.00  0.00     0.028 H 
ATOM    101  H28 non d ame     -38.227   6.956  31.875  0.00  0.00     0.028 H 
ATOM    102  H29 non d ame     -38.416   6.661  30.131  0.00  0.00     0.028 H 
ENDBRANCH  93  99
ENDBRANCH  90  93
ENDBRANCH   1  90
TORSDOF 26
ENDMDL
MODEL 11
REMARK VINA RESULT:      -6.2      2.228      5.982
REMARK  26 active torsions:
REMARK  status: ('A' for Active; 'I' for Inactive)
REMARK    1  A    between atoms: C2_2  and  C3_3 
REMARK    2  A    between atoms: C4_6  and  C5_7 
REMARK       I    between atoms: C5_7  and  N2_9 
REMARK    3  A    between atoms: N2_9  and  C6_10 
REMARK    4  A    between atoms: C6_10  and  C7_11 
REMARK    5  A    between atoms: C6_10  and  C8_13 
REMARK       I    between atoms: C7_11  and  N3_14 
REMARK    6  A    between atoms: N3_14  and  C9_15 
REMARK    7  A    between atoms: C9_15  and  C10_16 
REMARK    8  A    between atoms: C9_15  and  C11_18 
REMARK       I    between atoms: C10_16  and  N4_21 
REMARK    9  A    between atoms: C11_18  and  C12_19 
REMARK   10  A    between atoms: C11_18  and  C13_20 
REMARK   11  A    between atoms: N4_21  and  C14_22 
REMARK   12  A    between atoms: C14_22  and  C15_23 
REMARK   13  A    between atoms: C14_22  and  C16_25 
REMARK       I    between atoms: C15_23  and  N6_40 
REMARK   14  A    between atoms: C16_25  and  C17_26 
REMARK   15  A    between atoms: C17_26  and  C18_27 
REMARK   16  A    between atoms: C17_26  and  C19_28 
REMARK   17  A    between atoms: C20_29  and  C21_30 
REMARK   18  A    between atoms: C20_29  and  C24_33 
REMARK   19  A    between atoms: C20_29  and  N6_40 
REMARK   20  A    between atoms: C21_30  and  C22_31 
REMARK   21  A    between atoms: C22_31  and  C23_32 
REMARK   22  A    between atoms: C23_32  and  O8_43 
REMARK   23  A    between atoms: C24_33  and  C25_34 
REMARK   24  A    between atoms: C28_38  and  O6_39 
REMARK   25  A    between atoms: C29_42  and  O8_43 
REMARK   26  A    between atoms: C29_42  and  C35_49 
ROOT
ATOM      1  C14 non d ame     -34.676  17.667  25.856  0.00  0.00     0.089 C 
ATOM      2  H20 non d ame     -34.291  18.518  25.293  0.00  0.00     0.087 H 
ENDROOT
BRANCH   1   3
ATOM      3  N4  non d ame     -36.017  17.388  25.364  0.00  0.00    -0.346 N 
ATOM      4  C10 non d ame     -36.827  18.473  24.702  0.00  0.00     0.241 C 
ATOM      5  O4  non d ame     -36.380  19.566  24.579  0.00  0.00    -0.271 OA
ATOM      6  H19 non d ame     -36.380  16.452  25.480  0.00  0.00     0.163 HD
BRANCH   4   7
ATOM      7  C9  non d ame     -38.211  18.165  24.194  0.00  0.00     0.092 C 
ATOM      8  H11 non d ame     -38.218  18.239  23.106  0.00  0.00     0.088 H 
BRANCH   7   9
ATOM      9  N3  non d ame     -38.561  16.783  24.536  0.00  0.00    -0.346 N 
ATOM     10  C7  non d ame     -38.512  15.756  23.524  0.00  0.00     0.240 C 
ATOM     11  O3  non d ame     -38.195  16.024  22.430  0.00  0.00    -0.271 OA
ATOM     12  H10 non d ame     -38.838  16.537  25.475  0.00  0.00     0.163 HD
BRANCH  10  13
ATOM     13  C6  non d ame     -38.889  14.287  23.894  0.00  0.00     0.086 C 
ATOM     14  H6  non d ame     -38.786  13.602  23.053  0.00  0.00     0.086 H 
BRANCH  13  15
ATOM     15  N2  non d ame     -37.984  13.815  24.928  0.00  0.00    -0.343 N 
ATOM     16  C5  non d ame     -37.055  12.722  24.630  0.00  0.00     0.273 C 
ATOM     17  O2  non d ame     -37.046  12.229  23.556  0.00  0.00    -0.266 OA
ATOM     18  H5  non d ame     -38.000  14.241  25.844  0.00  0.00     0.163 HD
BRANCH  16  19
ATOM     19  C4  non d ame     -36.091  12.214  25.714  0.00  0.00     0.154 A 
ATOM     20  C1  non d ame     -35.344  10.994  25.703  0.00  0.00    -0.017 A 
ATOM     21  C2  non d ame     -34.620  11.000  26.916  0.00  0.00     0.077 A 
ATOM     22  H1  non d ame     -35.329  10.222  24.933  0.00  0.00     0.091 H 
ATOM     23  O1  non d ame     -34.922  12.099  27.542  0.00  0.00    -0.218 OA
ATOM     24  N1  non d ame     -35.779  12.824  26.861  0.00  0.00    -0.123 NA
BRANCH  21  25
ATOM     25  C3  non d ame     -33.662   9.919  27.400  0.00  0.00    -0.029 C 
ATOM     26  H2  non d ame     -32.635  10.244  27.237  0.00  0.00     0.036 H 
ATOM     27  H3  non d ame     -33.822   9.742  28.463  0.00  0.00     0.036 H 
ATOM     28  H4  non d ame     -33.844   8.998  26.847  0.00  0.00     0.036 H 
ENDBRANCH  21  25
ENDBRANCH  16  19
ENDBRANCH  13  15
BRANCH  13  29
ATOM     29  C8  non d ame     -40.311  14.240  24.391  0.00  0.00    -0.049 C 
ATOM     30  H7  non d ame     -40.338  14.525  25.443  0.00  0.00     0.030 H 
ATOM     31  H8  non d ame     -40.921  14.932  23.812  0.00  0.00     0.030 H 
ATOM     32  H9  non d ame     -40.702  13.229  24.279  0.00  0.00     0.030 H 
ENDBRANCH  13  29
ENDBRANCH  10  13
ENDBRANCH   7   9
BRANCH   7  33
ATOM     33  C11 non d ame     -39.234  19.135  24.854  0.00  0.00    -0.033 C 
ATOM     34  H12 non d ame     -38.920  20.152  24.622  0.00  0.00     0.042 H 
BRANCH  33  35
ATOM     35  C12 non d ame     -40.665  18.940  24.262  0.00  0.00    -0.071 C 
ATOM     36  H13 non d ame     -41.093  18.013  24.644  0.00  0.00     0.028 H 
ATOM     37  H14 non d ame     -41.297  19.779  24.555  0.00  0.00     0.028 H 
ATOM     38  H15 non d ame     -40.606  18.891  23.175  0.00  0.00     0.028 H 
ENDBRANCH  33  35
BRANCH  33  39
ATOM     39  C13 non d ame     -39.237  18.972  26.408  0.00  0.00    -0.071 C 
ATOM     40  H16 non d ame     -39.177  19.955  26.876  0.00  0.00     0.028 H 
ATOM     41  H17 non d ame     -40.157  18.476  26.720  0.00  0.00     0.028 H 
ATOM     42  H18 non d ame     -38.380  18.371  26.712  0.00  0.00     0.028 H 
ENDBRANCH  33  39
ENDBRANCH   7  33
ENDBRANCH   4   7
ENDBRANCH   1   3
BRANCH   1  43
ATOM     43  C15 non d ame     -33.803  16.394  25.667  0.00  0.00     0.240 C 
ATOM     44  O5  non d ame     -34.290  15.404  25.225  0.00  0.00    -0.271 OA
ATOM     45  N6  non d ame     -32.357  16.411  26.029  0.00  0.00    -0.355 N 
ATOM     46  H46 non d ame     -31.931  17.247  26.401  0.00  0.00     0.162 HD
BRANCH  45  47
ATOM     47  C20 non d ame     -31.541  15.192  25.842  0.00  0.00     0.013 C 
ATOM     48  H30 non d ame     -30.537  15.400  26.213  0.00  0.00     0.072 H 
BRANCH  47  49
ATOM     49  C21 non d ame     -31.487  14.847  24.371  0.00  0.00    -0.038 C 
ATOM     50  H31 non d ame     -31.290  13.776  24.326  0.00  0.00     0.036 H 
ATOM     51  H32 non d ame     -32.404  15.251  23.941  0.00  0.00     0.036 H 
BRANCH  49  52
ATOM     52  C22 non d ame     -30.318  15.538  23.636  0.00  0.00     0.018 C 
ATOM     53  H33 non d ame     -30.778  16.271  22.973  0.00  0.00     0.048 H 
ATOM     54  H34 non d ame     -29.630  15.864  24.416  0.00  0.00     0.048 H 
BRANCH  52  55
ATOM     55  C23 non d ame     -29.504  14.584  22.719  0.00  0.00     0.259 C 
ATOM     56  O7  non d ame     -28.366  14.815  22.466  0.00  0.00    -0.265 OA
BRANCH  55  57
ATOM     57  O8  non d ame     -30.138  13.434  22.171  0.00  0.00    -0.317 OA
BRANCH  57  58
ATOM     58  C29 non d ame     -29.338  12.249  22.222  0.00  0.00     0.052 C 
ATOM     59  H47 non d ame     -29.081  12.023  21.187  0.00  0.00     0.082 H 
ATOM     60  H48 non d ame     -28.551  12.455  22.946  0.00  0.00     0.082 H 
BRANCH  58  61
ATOM     61  C35 non d ame     -30.222  11.098  22.772  0.00  0.00    -0.034 A 
ATOM     62  C30 non d ame     -31.056  11.320  23.863  0.00  0.00    -0.075 A 
ATOM     63  C31 non d ame     -31.850  10.286  24.357  0.00  0.00    -0.082 A 
ATOM     64  H49 non d ame     -31.088  12.304  24.331  0.00  0.00     0.084 H 
ATOM     65  C32 non d ame     -31.806   9.025  23.757  0.00  0.00    -0.083 A 
ATOM     66  H50 non d ame     -32.504  10.464  25.211  0.00  0.00     0.083 H 
ATOM     67  C33 non d ame     -30.969   8.807  22.671  0.00  0.00    -0.082 A 
ATOM     68  H51 non d ame     -32.424   8.211  24.137  0.00  0.00     0.083 H 
ATOM     69  C34 non d ame     -30.176   9.838  22.172  0.00  0.00    -0.075 A 
ATOM     70  H52 non d ame     -30.935   7.821  22.207  0.00  0.00     0.083 H 
ATOM     71  H53 non d ame     -29.522   9.659  21.318  0.00  0.00     0.084 H 
ENDBRANCH  58  61
ENDBRANCH  57  58
ENDBRANCH  55  57
ENDBRANCH  52  55
ENDBRANCH  49  52
ENDBRANCH  47  49
BRANCH  47  72
ATOM     72  C24 non d ame     -32.162  14.031  26.616  0.00  0.00    -0.039 C 
ATOM     73  H35 non d ame     -33.235  14.222  26.615  0.00  0.00     0.036 H 
ATOM     74  H36 non d ame     -31.769  13.128  26.148  0.00  0.00     0.036 H 
BRANCH  72  75
ATOM     75  C25 non d ame     -31.685  14.016  28.145  0.00  0.00    -0.001 C 
ATOM     76  C26 non d ame     -31.102  12.528  28.536  0.00  0.00    -0.035 C 
ATOM     77  C27 non d ame     -31.714  12.103  29.667  0.00  0.00     0.085 C 
ATOM     78  H38 non d ame     -31.411  11.798  27.789  0.00  0.00     0.036 H 
ATOM     79  H39 non d ame     -30.054  12.602  28.825  0.00  0.00     0.036 H 
ATOM     80  N5  non d ame     -32.893  13.016  29.901  0.00  0.00    -0.049 N 
ATOM     81  H40 non d ame     -32.079  11.101  29.441  0.00  0.00     0.075 H 
ATOM     82  H41 non d ame     -30.986  12.251  30.464  0.00  0.00     0.075 H 
ATOM     83  C28 non d ame     -32.663  14.294  28.942  0.00  0.00     0.193 C 
ATOM     84  H42 non d ame     -33.710  12.516  29.581  0.00  0.00     0.280 HD
ATOM     85  H43 non d ame     -32.832  13.320  30.863  0.00  0.00     0.280 HD
ATOM     86  H44 non d ame     -32.318  15.242  29.355  0.00  0.00     0.129 H 
ATOM     87  H37 non d ame     -31.060  14.874  28.392  0.00  0.00     0.046 H 
BRANCH  83  88
ATOM     88  O6  non d ame     -33.865  14.601  28.233  0.00  0.00    -0.369 OA
ATOM     89  H45 non d ame     -33.687  15.284  27.582  0.00  0.00     0.212 HD
ENDBRANCH  83  88
ENDBRANCH  72  75
ENDBRANCH  47  72
ENDBRANCH  45  47
ENDBRANCH   1  43
BRANCH   1  90
ATOM     90  C16 non d ame     -34.753  18.020  27.333  0.00  0.00    -0.035 C 
ATOM     91  H21 non d ame     -35.751  17.720  27.649  0.00  0.00     0.037 H 
ATOM     92  H22 non d ame     -33.876  17.558  27.786  0.00  0.00     0.037 H 
BRANCH  90  93
ATOM     93  C17 non d ame     -34.643  19.552  27.618  0.00  0.00    -0.059 C 
ATOM     94  H23 non d ame     -34.927  20.079  26.707  0.00  0.00     0.038 H 
BRANCH  93  95
ATOM     95  C18 non d ame     -35.610  20.011  28.756  0.00  0.00    -0.073 C 
ATOM     96  H24 non d ame     -35.542  19.316  29.593  0.00  0.00     0.028 H 
ATOM     97  H25 non d ame     -35.330  21.009  29.090  0.00  0.00     0.028 H 
ATOM     98  H26 non d ame     -36.632  20.026  28.379  0.00  0.00     0.028 H 
ENDBRANCH  93  95
BRANCH  93  99
ATOM     99  C19 non d ame     -33.198  19.945  27.939  0.00  0.00    -0.073 C 
ATOM    100  H27 non d ame     -32.697  20.264  27.025  0.00  0.00     0.028 H 
ATOM    101  H28 non d ame     -33.196  20.763  28.660  0.00  0.00     0.028 H 
ATOM    102  H29 non d ame     -32.674  19.088  28.362  0.00  0.00     0.028 H 
ENDBRANCH  93  99
ENDBRANCH  90  93
ENDBRANCH   1  90
TORSDOF 26
ENDMDL
MODEL 12
REMARK VINA RESULT:      -6.1      3.102      9.052
REMARK  26 active torsions:
REMARK  status: ('A' for Active; 'I' for Inactive)
REMARK    1  A    between atoms: C2_2  and  C3_3 
REMARK    2  A    between atoms: C4_6  and  C5_7 
REMARK       I    between atoms: C5_7  and  N2_9 
REMARK    3  A    between atoms: N2_9  and  C6_10 
REMARK    4  A    between atoms: C6_10  and  C7_11 
REMARK    5  A    between atoms: C6_10  and  C8_13 
REMARK       I    between atoms: C7_11  and  N3_14 
REMARK    6  A    between atoms: N3_14  and  C9_15 
REMARK    7  A    between atoms: C9_15  and  C10_16 
REMARK    8  A    between atoms: C9_15  and  C11_18 
REMARK       I    between atoms: C10_16  and  N4_21 
REMARK    9  A    between atoms: C11_18  and  C12_19 
REMARK   10  A    between atoms: C11_18  and  C13_20 
REMARK   11  A    between atoms: N4_21  and  C14_22 
REMARK   12  A    between atoms: C14_22  and  C15_23 
REMARK   13  A    between atoms: C14_22  and  C16_25 
REMARK       I    between atoms: C15_23  and  N6_40 
REMARK   14  A    between atoms: C16_25  and  C17_26 
REMARK   15  A    between atoms: C17_26  and  C18_27 
REMARK   16  A    between atoms: C17_26  and  C19_28 
REMARK   17  A    between atoms: C20_29  and  C21_30 
REMARK   18  A    between atoms: C20_29  and  C24_33 
REMARK   19  A    between atoms: C20_29  and  N6_40 
REMARK   20  A    between atoms: C21_30  and  C22_31 
REMARK   21  A    between atoms: C22_31  and  C23_32 
REMARK   22  A    between atoms: C23_32  and  O8_43 
REMARK   23  A    between atoms: C24_33  and  C25_34 
REMARK   24  A    between atoms: C28_38  and  O6_39 
REMARK   25  A    between atoms: C29_42  and  O8_43 
REMARK   26  A    between atoms: C29_42  and  C35_49 
ROOT
ATOM      1  C14 non d ame     -31.484   7.563  23.697  0.00  0.00     0.089 C 
ATOM      2  H20 non d ame     -30.600   7.405  24.315  0.00  0.00     0.087 H 
ENDROOT
BRANCH   1   3
ATOM      3  N4  non d ame     -32.443   6.520  24.027  0.00  0.00    -0.346 N 
ATOM      4  C10 non d ame     -32.530   5.983  25.433  0.00  0.00     0.241 C 
ATOM      5  O4  non d ame     -31.816   6.405  26.282  0.00  0.00    -0.271 OA
ATOM      6  H19 non d ame     -33.040   6.173  23.290  0.00  0.00     0.163 HD
BRANCH   4   7
ATOM      7  C9  non d ame     -33.532   4.907  25.759  0.00  0.00     0.092 C 
ATOM      8  H11 non d ame     -33.033   4.105  26.303  0.00  0.00     0.088 H 
BRANCH   7   9
ATOM      9  N3  non d ame     -34.566   5.453  26.644  0.00  0.00    -0.346 N 
ATOM     10  C7  non d ame     -34.589   5.083  28.038  0.00  0.00     0.240 C 
ATOM     11  O3  non d ame     -33.785   4.347  28.464  0.00  0.00    -0.271 OA
ATOM     12  H10 non d ame     -35.267   6.088  26.290  0.00  0.00     0.163 HD
BRANCH  10  13
ATOM     13  C6  non d ame     -35.694   5.665  28.974  0.00  0.00     0.086 C 
ATOM     14  H6  non d ame     -35.786   5.114  29.910  0.00  0.00     0.086 H 
BRANCH  13  15
ATOM     15  N2  non d ame     -35.341   7.030  29.328  0.00  0.00    -0.343 N 
ATOM     16  C5  non d ame     -34.847   7.321  30.676  0.00  0.00     0.273 C 
ATOM     17  O2  non d ame     -34.741   6.451  31.469  0.00  0.00    -0.266 OA
ATOM     18  H5  non d ame     -35.438   7.768  28.645  0.00  0.00     0.163 HD
BRANCH  16  19
ATOM     19  C4  non d ame     -34.469   8.759  31.063  0.00  0.00     0.154 A 
ATOM     20  C1  non d ame     -33.688   9.683  30.299  0.00  0.00    -0.017 A 
ATOM     21  C2  non d ame     -33.633  10.853  31.090  0.00  0.00     0.077 A 
ATOM     22  H1  non d ame     -33.231   9.529  29.322  0.00  0.00     0.091 H 
ATOM     23  O1  non d ame     -34.308  10.618  32.177  0.00  0.00    -0.218 OA
ATOM     24  N1  non d ame     -34.805   9.403  32.184  0.00  0.00    -0.123 NA
BRANCH  21  25
ATOM     25  C3  non d ame     -32.917  12.149  30.733  0.00  0.00    -0.029 C 
ATOM     26  H2  non d ame     -31.869  11.939  30.523  0.00  0.00     0.036 H 
ATOM     27  H3  non d ame     -33.382  12.590  29.852  0.00  0.00     0.036 H 
ATOM     28  H4  non d ame     -32.988  12.845  31.569  0.00  0.00     0.036 H 
ENDBRANCH  21  25
ENDBRANCH  16  19
ENDBRANCH  13  15
BRANCH  13  29
ATOM     29  C8  non d ame     -37.023   5.643  28.262  0.00  0.00    -0.049 C 
ATOM     30  H7  non d ame     -37.372   6.665  28.114  0.00  0.00     0.030 H 
ATOM     31  H8  non d ame     -36.908   5.155  27.295  0.00  0.00     0.030 H 
ATOM     32  H9  non d ame     -37.748   5.095  28.863  0.00  0.00     0.030 H 
ENDBRANCH  13  29
ENDBRANCH  10  13
ENDBRANCH   7   9
BRANCH   7  33
ATOM     33  C11 non d ame     -34.194   4.400  24.444  0.00  0.00    -0.033 C 
ATOM     34  H12 non d ame     -33.883   5.067  23.641  0.00  0.00     0.042 H 
BRANCH  33  35
ATOM     35  C12 non d ame     -33.704   2.964  24.078  0.00  0.00    -0.071 C 
ATOM     36  H13 non d ame     -34.257   2.601  23.212  0.00  0.00     0.028 H 
ATOM     37  H14 non d ame     -32.640   2.993  23.844  0.00  0.00     0.028 H 
ATOM     38  H15 non d ame     -33.872   2.296  24.922  0.00  0.00     0.028 H 
ENDBRANCH  33  35
BRANCH  33  39
ATOM     39  C13 non d ame     -35.752   4.458  24.544  0.00  0.00    -0.071 C 
ATOM     40  H16 non d ame     -36.039   4.899  25.499  0.00  0.00     0.028 H 
ATOM     41  H17 non d ame     -36.146   5.066  23.729  0.00  0.00     0.028 H 
ATOM     42  H18 non d ame     -36.159   3.449  24.472  0.00  0.00     0.028 H 
ENDBRANCH  33  39
ENDBRANCH   7  33
ENDBRANCH   4   7
ENDBRANCH   1   3
BRANCH   1  43
ATOM     43  C15 non d ame     -32.146   8.946  23.961  0.00  0.00     0.240 C 
ATOM     44  O5  non d ame     -32.756   9.485  23.095  0.00  0.00    -0.271 OA
ATOM     45  N6  non d ame     -32.026   9.595  25.297  0.00  0.00    -0.355 N 
ATOM     46  H46 non d ame     -31.514   9.146  26.042  0.00  0.00     0.162 HD
BRANCH  45  47
ATOM     47  C20 non d ame     -32.662  10.910  25.533  0.00  0.00     0.013 C 
ATOM     48  H30 non d ame     -33.266  11.152  24.659  0.00  0.00     0.072 H 
BRANCH  47  49
ATOM     49  C21 non d ame     -31.589  11.957  25.726  0.00  0.00    -0.038 C 
ATOM     50  H31 non d ame     -30.663  11.404  25.886  0.00  0.00     0.036 H 
ATOM     51  H32 non d ame     -31.681  12.632  24.874  0.00  0.00     0.036 H 
BRANCH  49  52
ATOM     52  C22 non d ame     -31.809  12.816  26.990  0.00  0.00     0.018 C 
ATOM     53  H33 non d ame     -32.849  12.660  27.275  0.00  0.00     0.048 H 
ATOM     54  H34 non d ame     -31.009  12.541  27.677  0.00  0.00     0.048 H 
BRANCH  52  55
ATOM     55  C23 non d ame     -31.657  14.343  26.744  0.00  0.00     0.259 C 
ATOM     56  O7  non d ame     -32.344  15.119  27.325  0.00  0.00    -0.265 OA
BRANCH  55  57
ATOM     57  O8  non d ame     -30.693  14.804  25.806  0.00  0.00    -0.317 OA
BRANCH  57  58
ATOM     58  C29 non d ame     -31.173  15.834  24.937  0.00  0.00     0.052 C 
ATOM     59  H47 non d ame     -32.260  15.783  24.991  0.00  0.00     0.082 H 
ATOM     60  H48 non d ame     -30.654  16.743  25.241  0.00  0.00     0.082 H 
BRANCH  58  61
ATOM     61  C35 non d ame     -30.736  15.482  23.490  0.00  0.00    -0.034 A 
ATOM     62  C30 non d ame     -31.168  16.262  22.422  0.00  0.00    -0.075 A 
ATOM     63  C31 non d ame     -30.777  15.946  21.122  0.00  0.00    -0.082 A 
ATOM     64  H49 non d ame     -31.814  17.122  22.604  0.00  0.00     0.084 H 
ATOM     65  C32 non d ame     -29.952  14.842  20.891  0.00  0.00    -0.083 A 
ATOM     66  H50 non d ame     -31.116  16.561  20.288  0.00  0.00     0.083 H 
ATOM     67  C33 non d ame     -29.526  14.063  21.959  0.00  0.00    -0.082 A 
ATOM     68  H51 non d ame     -29.641  14.587  19.878  0.00  0.00     0.083 H 
ATOM     69  C34 non d ame     -29.913  14.377  23.260  0.00  0.00    -0.075 A 
ATOM     70  H52 non d ame     -28.885  13.201  21.775  0.00  0.00     0.083 H 
ATOM     71  H53 non d ame     -29.574  13.762  24.094  0.00  0.00     0.084 H 
ENDBRANCH  58  61
ENDBRANCH  57  58
ENDBRANCH  55  57
ENDBRANCH  52  55
ENDBRANCH  49  52
ENDBRANCH  47  49
BRANCH  47  72
ATOM     72  C24 non d ame     -33.539  10.842  26.782  0.00  0.00    -0.039 C 
ATOM     73  H35 non d ame     -33.073  10.094  27.424  0.00  0.00     0.036 H 
ATOM     74  H36 non d ame     -33.633  11.872  27.126  0.00  0.00     0.036 H 
BRANCH  72  75
ATOM     75  C25 non d ame     -35.015  10.321  26.443  0.00  0.00    -0.001 C 
ATOM     76  C26 non d ame     -35.363  10.614  24.862  0.00  0.00    -0.035 C 
ATOM     77  C27 non d ame     -36.553  11.257  24.790  0.00  0.00     0.085 C 
ATOM     78  H38 non d ame     -34.657  11.336  24.452  0.00  0.00     0.036 H 
ATOM     79  H39 non d ame     -35.548   9.675  24.340  0.00  0.00     0.036 H 
ATOM     80  N5  non d ame     -36.891  11.720  26.186  0.00  0.00    -0.049 N 
ATOM     81  H40 non d ame     -36.374  12.129  24.160  0.00  0.00     0.075 H 
ATOM     82  H41 non d ame     -37.274  10.501  24.482  0.00  0.00     0.075 H 
ATOM     83  C28 non d ame     -35.900  10.913  27.173  0.00  0.00     0.193 C 
ATOM     84  H42 non d ame     -36.656  12.701  26.227  0.00  0.00     0.280 HD
ATOM     85  H43 non d ame     -37.838  11.419  26.365  0.00  0.00     0.280 HD
ATOM     86  H44 non d ame     -36.267  10.071  27.760  0.00  0.00     0.129 H 
ATOM     87  H37 non d ame     -35.190   9.309  26.810  0.00  0.00     0.046 H 
BRANCH  83  88
ATOM     88  O6  non d ame     -35.308  11.808  28.117  0.00  0.00    -0.369 OA
ATOM     89  H45 non d ame     -34.373  11.906  27.922  0.00  0.00     0.212 HD
ENDBRANCH  83  88
ENDBRANCH  72  75
ENDBRANCH  47  72
ENDBRANCH  45  47
ENDBRANCH   1  43
BRANCH   1  90
ATOM     90  C16 non d ame     -31.111   7.448  22.227  0.00  0.00    -0.035 C 
ATOM     91  H21 non d ame     -31.106   6.379  22.014  0.00  0.00     0.037 H 
ATOM     92  H22 non d ame     -31.804   8.105  21.701  0.00  0.00     0.037 H 
BRANCH  90  93
ATOM     93  C17 non d ame     -29.675   7.969  21.902  0.00  0.00    -0.059 C 
ATOM     94  H23 non d ame     -29.453   7.704  20.868  0.00  0.00     0.038 H 
BRANCH  93  95
ATOM     95  C18 non d ame     -29.569   9.522  22.029  0.00  0.00    -0.073 C 
ATOM     96  H24 non d ame     -29.725   9.813  23.067  0.00  0.00     0.028 H 
ATOM     97  H25 non d ame     -28.580   9.847  21.706  0.00  0.00     0.028 H 
ATOM     98  H26 non d ame     -30.328   9.990  21.403  0.00  0.00     0.028 H 
ENDBRANCH  93  95
BRANCH  93  99
ATOM     99  C19 non d ame     -28.631   7.278  22.782  0.00  0.00    -0.073 C 
ATOM    100  H27 non d ame     -27.991   8.029  23.246  0.00  0.00     0.028 H 
ATOM    101  H28 non d ame     -29.133   6.700  23.558  0.00  0.00     0.028 H 
ATOM    102  H29 non d ame     -28.023   6.611  22.170  0.00  0.00     0.028 H 
ENDBRANCH  93  99
ENDBRANCH  90  93
ENDBRANCH   1  90
TORSDOF 26
ENDMDL
MODEL 13
REMARK VINA RESULT:      -6.1      2.047      3.245
REMARK  26 active torsions:
REMARK  status: ('A' for Active; 'I' for Inactive)
REMARK    1  A    between atoms: C2_2  and  C3_3 
REMARK    2  A    between atoms: C4_6  and  C5_7 
REMARK       I    between atoms: C5_7  and  N2_9 
REMARK    3  A    between atoms: N2_9  and  C6_10 
REMARK    4  A    between atoms: C6_10  and  C7_11 
REMARK    5  A    between atoms: C6_10  and  C8_13 
REMARK       I    between atoms: C7_11  and  N3_14 
REMARK    6  A    between atoms: N3_14  and  C9_15 
REMARK    7  A    between atoms: C9_15  and  C10_16 
REMARK    8  A    between atoms: C9_15  and  C11_18 
REMARK       I    between atoms: C10_16  and  N4_21 
REMARK    9  A    between atoms: C11_18  and  C12_19 
REMARK   10  A    between atoms: C11_18  and  C13_20 
REMARK   11  A    between atoms: N4_21  and  C14_22 
REMARK   12  A    between atoms: C14_22  and  C15_23 
REMARK   13  A    between atoms: C14_22  and  C16_25 
REMARK       I    between atoms: C15_23  and  N6_40 
REMARK   14  A    between atoms: C16_25  and  C17_26 
REMARK   15  A    between atoms: C17_26  and  C18_27 
REMARK   16  A    between atoms: C17_26  and  C19_28 
REMARK   17  A    between atoms: C20_29  and  C21_30 
REMARK   18  A    between atoms: C20_29  and  C24_33 
REMARK   19  A    between atoms: C20_29  and  N6_40 
REMARK   20  A    between atoms: C21_30  and  C22_31 
REMARK   21  A    between atoms: C22_31  and  C23_32 
REMARK   22  A    between atoms: C23_32  and  O8_43 
REMARK   23  A    between atoms: C24_33  and  C25_34 
REMARK   24  A    between atoms: C28_38  and  O6_39 
REMARK   25  A    between atoms: C29_42  and  O8_43 
REMARK   26  A    between atoms: C29_42  and  C35_49 
ROOT
ATOM      1  C14 non d ame     -35.698  11.084  25.394  0.00  0.00     0.089 C 
ATOM      2  H20 non d ame     -36.335  10.705  26.194  0.00  0.00     0.087 H 
ENDROOT
BRANCH   1   3
ATOM      3  N4  non d ame     -36.106  12.454  25.122  0.00  0.00    -0.346 N 
ATOM      4  C10 non d ame     -36.912  13.225  26.137  0.00  0.00     0.241 C 
ATOM      5  O4  non d ame     -37.223  12.720  27.165  0.00  0.00    -0.271 OA
ATOM      6  H19 non d ame     -35.833  12.865  24.241  0.00  0.00     0.163 HD
BRANCH   4   7
ATOM      7  C9  non d ame     -37.320  14.644  25.842  0.00  0.00     0.092 C 
ATOM      8  H11 non d ame     -37.774  15.080  26.732  0.00  0.00     0.088 H 
BRANCH   7   9
ATOM      9  N3  non d ame     -36.130  15.441  25.528  0.00  0.00    -0.346 N 
ATOM     10  C7  non d ame     -35.517  16.253  26.551  0.00  0.00     0.240 C 
ATOM     11  O3  non d ame     -35.969  16.279  27.630  0.00  0.00    -0.271 OA
ATOM     12  H10 non d ame     -35.729  15.430  24.601  0.00  0.00     0.163 HD
BRANCH  10  13
ATOM     13  C6  non d ame     -34.252  17.101  26.210  0.00  0.00     0.086 C 
ATOM     14  H6  non d ame     -33.535  17.136  27.030  0.00  0.00     0.086 H 
BRANCH  13  15
ATOM     15  N2  non d ame     -33.565  16.492  25.083  0.00  0.00    -0.343 N 
ATOM     16  C5  non d ame     -32.102  16.508  25.036  0.00  0.00     0.273 C 
ATOM     17  O2  non d ame     -31.486  17.015  25.908  0.00  0.00    -0.266 OA
ATOM     18  H5  non d ame     -34.100  16.062  24.341  0.00  0.00     0.163 HD
BRANCH  16  19
ATOM     19  C4  non d ame     -31.363  15.866  23.852  0.00  0.00     0.154 A 
ATOM     20  C1  non d ame     -30.538  14.697  23.878  0.00  0.00    -0.017 A 
ATOM     21  C2  non d ame     -30.102  14.530  22.544  0.00  0.00     0.077 A 
ATOM     22  H1  non d ame     -30.294  14.066  24.733  0.00  0.00     0.091 H 
ATOM     23  O1  non d ame     -30.621  15.495  21.843  0.00  0.00    -0.218 OA
ATOM     24  N1  non d ame     -31.361  16.287  22.584  0.00  0.00    -0.123 NA
BRANCH  21  25
ATOM     25  C3  non d ame     -29.192  13.425  22.025  0.00  0.00    -0.029 C 
ATOM     26  H2  non d ame     -29.543  13.094  21.048  0.00  0.00     0.036 H 
ATOM     27  H3  non d ame     -28.174  13.804  21.936  0.00  0.00     0.036 H 
ATOM     28  H4  non d ame     -29.207  12.585  22.720  0.00  0.00     0.036 H 
ENDBRANCH  21  25
ENDBRANCH  16  19
ENDBRANCH  13  15
BRANCH  13  29
ATOM     29  C8  non d ame     -34.665  18.509  25.864  0.00  0.00    -0.049 C 
ATOM     30  H7  non d ame     -34.017  19.215  26.382  0.00  0.00     0.030 H 
ATOM     31  H8  non d ame     -34.579  18.658  24.788  0.00  0.00     0.030 H 
ATOM     32  H9  non d ame     -35.699  18.670  26.172  0.00  0.00     0.030 H 
ENDBRANCH  13  29
ENDBRANCH  10  13
ENDBRANCH   7   9
BRANCH   7  33
ATOM     33  C11 non d ame     -38.288  14.662  24.623  0.00  0.00    -0.033 C 
ATOM     34  H12 non d ame     -37.722  14.342  23.748  0.00  0.00     0.042 H 
BRANCH  33  35
ATOM     35  C12 non d ame     -39.463  13.653  24.815  0.00  0.00    -0.071 C 
ATOM     36  H13 non d ame     -39.836  13.340  23.840  0.00  0.00     0.028 H 
ATOM     37  H14 non d ame     -39.108  12.783  25.366  0.00  0.00     0.028 H 
ATOM     38  H15 non d ame     -40.267  14.134  25.373  0.00  0.00     0.028 H 
ENDBRANCH  33  35
BRANCH  33  39
ATOM     39  C13 non d ame     -38.820  16.106  24.351  0.00  0.00    -0.071 C 
ATOM     40  H16 non d ame     -39.896  16.071  24.182  0.00  0.00     0.028 H 
ATOM     41  H17 non d ame     -38.608  16.739  25.213  0.00  0.00     0.028 H 
ATOM     42  H18 non d ame     -38.326  16.516  23.470  0.00  0.00     0.028 H 
ENDBRANCH  33  39
ENDBRANCH   7  33
ENDBRANCH   4   7
ENDBRANCH   1   3
BRANCH   1  43
ATOM     43  C15 non d ame     -34.194  11.084  25.791  0.00  0.00     0.240 C 
ATOM     44  O5  non d ame     -33.808  10.355  26.647  0.00  0.00    -0.271 OA
ATOM     45  N6  non d ame     -33.232  11.987  25.097  0.00  0.00    -0.355 N 
ATOM     46  H46 non d ame     -33.547  12.607  24.365  0.00  0.00     0.162 HD
BRANCH  45  47
ATOM     47  C20 non d ame     -31.805  11.974  25.485  0.00  0.00     0.013 C 
ATOM     48  H30 non d ame     -31.309  12.796  24.968  0.00  0.00     0.072 H 
BRANCH  47  49
ATOM     49  C21 non d ame     -31.187  10.657  25.073  0.00  0.00    -0.038 C 
ATOM     50  H31 non d ame     -30.112  10.784  25.199  0.00  0.00     0.036 H 
ATOM     51  H32 non d ame     -31.717   9.893  25.642  0.00  0.00     0.036 H 
BRANCH  49  52
ATOM     52  C22 non d ame     -31.417  10.328  23.582  0.00  0.00     0.018 C 
ATOM     53  H33 non d ame     -32.278   9.661  23.556  0.00  0.00     0.048 H 
ATOM     54  H34 non d ame     -31.456  11.290  23.070  0.00  0.00     0.048 H 
BRANCH  52  55
ATOM     55  C23 non d ame     -30.247   9.541  22.927  0.00  0.00     0.259 C 
ATOM     56  O7  non d ame     -29.454  10.100  22.241  0.00  0.00    -0.265 OA
BRANCH  55  57
ATOM     57  O8  non d ame     -30.141   8.140  23.147  0.00  0.00    -0.317 OA
BRANCH  57  58
ATOM     58  C29 non d ame     -31.026   7.356  22.342  0.00  0.00     0.052 C 
ATOM     59  H47 non d ame     -31.710   8.066  21.877  0.00  0.00     0.082 H 
ATOM     60  H48 non d ame     -30.385   6.731  21.721  0.00  0.00     0.082 H 
BRANCH  58  61
ATOM     61  C35 non d ame     -31.843   6.434  23.287  0.00  0.00    -0.034 A 
ATOM     62  C30 non d ame     -32.728   5.501  22.756  0.00  0.00    -0.075 A 
ATOM     63  C31 non d ame     -33.462   4.674  23.605  0.00  0.00    -0.082 A 
ATOM     64  H49 non d ame     -32.846   5.418  21.676  0.00  0.00     0.084 H 
ATOM     65  C32 non d ame     -33.310   4.784  24.990  0.00  0.00    -0.083 A 
ATOM     66  H50 non d ame     -34.153   3.942  23.186  0.00  0.00     0.083 H 
ATOM     67  C33 non d ame     -32.429   5.719  25.515  0.00  0.00    -0.082 A 
ATOM     68  H51 non d ame     -33.880   4.140  25.660  0.00  0.00     0.083 H 
ATOM     69  C34 non d ame     -31.692   6.547  24.670  0.00  0.00    -0.075 A 
ATOM     70  H52 non d ame     -32.314   5.804  26.596  0.00  0.00     0.083 H 
ATOM     71  H53 non d ame     -31.000   7.278  25.090  0.00  0.00     0.084 H 
ENDBRANCH  58  61
ENDBRANCH  57  58
ENDBRANCH  55  57
ENDBRANCH  52  55
ENDBRANCH  49  52
ENDBRANCH  47  49
BRANCH  47  72
ATOM     72  C24 non d ame     -31.679  12.146  26.997  0.00  0.00    -0.039 C 
ATOM     73  H35 non d ame     -32.582  11.702  27.416  0.00  0.00     0.036 H 
ATOM     74  H36 non d ame     -30.702  11.738  27.255  0.00  0.00     0.036 H 
BRANCH  72  75
ATOM     75  C25 non d ame     -31.672  13.691  27.419  0.00  0.00    -0.001 C 
ATOM     76  C26 non d ame     -30.386  13.999  28.397  0.00  0.00    -0.035 C 
ATOM     77  C27 non d ame     -30.825  14.632  29.511  0.00  0.00     0.085 C 
ATOM     78  H38 non d ame     -29.975  13.065  28.779  0.00  0.00     0.036 H 
ATOM     79  H39 non d ame     -29.728  14.733  27.930  0.00  0.00     0.036 H 
ATOM     80  N5  non d ame     -32.328  14.492  29.534  0.00  0.00    -0.049 N 
ATOM     81  H40 non d ame     -30.403  14.075  30.347  0.00  0.00     0.075 H 
ATOM     82  H41 non d ame     -30.569  15.681  29.370  0.00  0.00     0.075 H 
ATOM     83  C28 non d ame     -32.752  14.007  28.053  0.00  0.00     0.193 C 
ATOM     84  H42 non d ame     -32.537  13.750  30.187  0.00  0.00     0.280 HD
ATOM     85  H43 non d ame     -32.699  15.419  29.687  0.00  0.00     0.280 HD
ATOM     86  H44 non d ame     -33.198  14.709  27.347  0.00  0.00     0.129 H 
ATOM     87  H37 non d ame     -31.816  14.353  26.566  0.00  0.00     0.046 H 
BRANCH  83  88
ATOM     88  O6  non d ame     -33.668  12.914  28.135  0.00  0.00    -0.369 OA
ATOM     89  H45 non d ame     -33.348  12.187  27.596  0.00  0.00     0.212 HD
ENDBRANCH  83  88
ENDBRANCH  72  75
ENDBRANCH  47  72
ENDBRANCH  45  47
ENDBRANCH   1  43
BRANCH   1  90
ATOM     90  C16 non d ame     -35.896  10.249  24.139  0.00  0.00    -0.035 C 
ATOM     91  H21 non d ame     -36.903   9.841  24.220  0.00  0.00     0.037 H 
ATOM     92  H22 non d ame     -35.640  10.909  23.310  0.00  0.00     0.037 H 
BRANCH  90  93
ATOM     93  C17 non d ame     -34.931   9.025  24.043  0.00  0.00    -0.059 C 
ATOM     94  H23 non d ame     -34.004   9.294  24.549  0.00  0.00     0.038 H 
BRANCH  93  95
ATOM     95  C18 non d ame     -35.512   7.760  24.752  0.00  0.00    -0.073 C 
ATOM     96  H24 non d ame     -36.594   7.852  24.831  0.00  0.00     0.028 H 
ATOM     97  H25 non d ame     -35.265   6.872  24.171  0.00  0.00     0.028 H 
ATOM     98  H26 non d ame     -35.080   7.672  25.749  0.00  0.00     0.028 H 
ENDBRANCH  93  95
BRANCH  93  99
ATOM     99  C19 non d ame     -34.581   8.719  22.584  0.00  0.00    -0.073 C 
ATOM    100  H27 non d ame     -34.407   9.652  22.048  0.00  0.00     0.028 H 
ATOM    101  H28 non d ame     -33.680   8.106  22.547  0.00  0.00     0.028 H 
ATOM    102  H29 non d ame     -35.405   8.180  22.118  0.00  0.00     0.028 H 
ENDBRANCH  93  99
ENDBRANCH  90  93
ENDBRANCH   1  90
TORSDOF 26
ENDMDL
MODEL 14
REMARK VINA RESULT:      -6.1      2.956      6.479
REMARK  26 active torsions:
REMARK  status: ('A' for Active; 'I' for Inactive)
REMARK    1  A    between atoms: C2_2  and  C3_3 
REMARK    2  A    between atoms: C4_6  and  C5_7 
REMARK       I    between atoms: C5_7  and  N2_9 
REMARK    3  A    between atoms: N2_9  and  C6_10 
REMARK    4  A    between atoms: C6_10  and  C7_11 
REMARK    5  A    between atoms: C6_10  and  C8_13 
REMARK       I    between atoms: C7_11  and  N3_14 
REMARK    6  A    between atoms: N3_14  and  C9_15 
REMARK    7  A    between atoms: C9_15  and  C10_16 
REMARK    8  A    between atoms: C9_15  and  C11_18 
REMARK       I    between atoms: C10_16  and  N4_21 
REMARK    9  A    between atoms: C11_18  and  C12_19 
REMARK   10  A    between atoms: C11_18  and  C13_20 
REMARK   11  A    between atoms: N4_21  and  C14_22 
REMARK   12  A    between atoms: C14_22  and  C15_23 
REMARK   13  A    between atoms: C14_22  and  C16_25 
REMARK       I    between atoms: C15_23  and  N6_40 
REMARK   14  A    between atoms: C16_25  and  C17_26 
REMARK   15  A    between atoms: C17_26  and  C18_27 
REMARK   16  A    between atoms: C17_26  and  C19_28 
REMARK   17  A    between atoms: C20_29  and  C21_30 
REMARK   18  A    between atoms: C20_29  and  C24_33 
REMARK   19  A    between atoms: C20_29  and  N6_40 
REMARK   20  A    between atoms: C21_30  and  C22_31 
REMARK   21  A    between atoms: C22_31  and  C23_32 
REMARK   22  A    between atoms: C23_32  and  O8_43 
REMARK   23  A    between atoms: C24_33  and  C25_34 
REMARK   24  A    between atoms: C28_38  and  O6_39 
REMARK   25  A    between atoms: C29_42  and  O8_43 
REMARK   26  A    between atoms: C29_42  and  C35_49 
ROOT
ATOM      1  C14 non d ame     -35.218   9.544  27.692  0.00  0.00     0.089 C 
ATOM      2  H20 non d ame     -35.003   8.822  28.480  0.00  0.00     0.087 H 
ENDROOT
BRANCH   1   3
ATOM      3  N4  non d ame     -34.425  10.735  27.960  0.00  0.00    -0.346 N 
ATOM      4  C10 non d ame     -33.049  10.613  28.566  0.00  0.00     0.241 C 
ATOM      5  O4  non d ame     -32.603   9.546  28.832  0.00  0.00    -0.271 OA
ATOM      6  H19 non d ame     -34.824  11.633  27.729  0.00  0.00     0.163 HD
BRANCH   4   7
ATOM      7  C9  non d ame     -32.241  11.856  28.832  0.00  0.00     0.092 C 
ATOM      8  H11 non d ame     -31.230  11.714  28.450  0.00  0.00     0.088 H 
BRANCH   7   9
ATOM      9  N3  non d ame     -32.826  12.985  28.103  0.00  0.00    -0.346 N 
ATOM     10  C7  non d ame     -32.349  13.314  26.782  0.00  0.00     0.240 C 
ATOM     11  O3  non d ame     -31.495  12.682  26.291  0.00  0.00    -0.271 OA
ATOM     12  H10 non d ame     -33.562  13.541  28.514  0.00  0.00     0.163 HD
BRANCH  10  13
ATOM     13  C6  non d ame     -32.973  14.519  26.012  0.00  0.00     0.086 C 
ATOM     14  H6  non d ame     -32.754  15.478  26.481  0.00  0.00     0.086 H 
BRANCH  13  15
ATOM     15  N2  non d ame     -32.405  14.570  24.675  0.00  0.00    -0.343 N 
ATOM     16  C5  non d ame     -31.348  15.539  24.377  0.00  0.00     0.273 C 
ATOM     17  O2  non d ame     -30.964  16.274  25.218  0.00  0.00    -0.266 OA
ATOM     18  H5  non d ame     -32.742  13.939  23.961  0.00  0.00     0.163 HD
BRANCH  16  19
ATOM     19  C4  non d ame     -30.738  15.602  22.968  0.00  0.00     0.154 A 
ATOM     20  C1  non d ame     -31.436  15.760  21.729  0.00  0.00    -0.017 A 
ATOM     21  C2  non d ame     -30.427  15.757  20.740  0.00  0.00     0.077 A 
ATOM     22  H1  non d ame     -32.510  15.861  21.572  0.00  0.00     0.091 H 
ATOM     23  O1  non d ame     -29.287  15.615  21.350  0.00  0.00    -0.218 OA
ATOM     24  N1  non d ame     -29.442  15.522  22.651  0.00  0.00    -0.123 NA
BRANCH  21  25
ATOM     25  C3  non d ame     -30.637  15.896  19.238  0.00  0.00    -0.029 C 
ATOM     26  H2  non d ame     -31.548  16.462  19.049  0.00  0.00     0.036 H 
ATOM     27  H3  non d ame     -29.787  16.419  18.800  0.00  0.00     0.036 H 
ATOM     28  H4  non d ame     -30.724  14.906  18.790  0.00  0.00     0.036 H 
ENDBRANCH  21  25
ENDBRANCH  16  19
ENDBRANCH  13  15
BRANCH  13  29
ATOM     29  C8  non d ame     -34.469  14.348  25.932  0.00  0.00    -0.049 C 
ATOM     30  H7  non d ame     -34.713  13.285  25.935  0.00  0.00     0.030 H 
ATOM     31  H8  non d ame     -34.936  14.831  26.789  0.00  0.00     0.030 H 
ATOM     32  H9  non d ame     -34.838  14.802  25.012  0.00  0.00     0.030 H 
ENDBRANCH  13  29
ENDBRANCH  10  13
ENDBRANCH   7   9
BRANCH   7  33
ATOM     33  C11 non d ame     -32.252  12.165  30.358  0.00  0.00    -0.033 C 
ATOM     34  H12 non d ame     -32.448  13.231  30.476  0.00  0.00     0.042 H 
BRANCH  33  35
ATOM     35  C12 non d ame     -33.397  11.394  31.086  0.00  0.00    -0.071 C 
ATOM     36  H13 non d ame     -34.341  11.917  30.934  0.00  0.00     0.028 H 
ATOM     37  H14 non d ame     -33.471  10.386  30.680  0.00  0.00     0.028 H 
ATOM     38  H15 non d ame     -33.179  11.343  32.152  0.00  0.00     0.028 H 
ENDBRANCH  33  35
BRANCH  33  39
ATOM     39  C13 non d ame     -30.862  11.856  31.001  0.00  0.00    -0.071 C 
ATOM     40  H16 non d ame     -31.009  11.417  31.989  0.00  0.00     0.028 H 
ATOM     41  H17 non d ame     -30.317  11.154  30.369  0.00  0.00     0.028 H 
ATOM     42  H18 non d ame     -30.291  12.779  31.094  0.00  0.00     0.028 H 
ENDBRANCH  33  39
ENDBRANCH   7  33
ENDBRANCH   4   7
ENDBRANCH   1   3
BRANCH   1  43
ATOM     43  C15 non d ame     -34.840   9.005  26.283  0.00  0.00     0.240 C 
ATOM     44  O5  non d ame     -35.586   9.161  25.371  0.00  0.00    -0.271 OA
ATOM     45  N6  non d ame     -33.544   8.301  26.068  0.00  0.00    -0.355 N 
ATOM     46  H46 non d ame     -32.900   8.166  26.833  0.00  0.00     0.162 HD
BRANCH  45  47
ATOM     47  C20 non d ame     -33.199   7.796  24.721  0.00  0.00     0.013 C 
ATOM     48  H30 non d ame     -34.021   8.042  24.050  0.00  0.00     0.072 H 
BRANCH  47  49
ATOM     49  C21 non d ame     -33.013   6.296  24.783  0.00  0.00    -0.038 C 
ATOM     50  H31 non d ame     -32.933   5.967  23.747  0.00  0.00     0.036 H 
ATOM     51  H32 non d ame     -32.187   6.130  25.474  0.00  0.00     0.036 H 
BRANCH  49  52
ATOM     52  C22 non d ame     -34.236   5.565  25.379  0.00  0.00     0.018 C 
ATOM     53  H33 non d ame     -34.553   6.166  26.231  0.00  0.00     0.048 H 
ATOM     54  H34 non d ame     -34.917   5.400  24.545  0.00  0.00     0.048 H 
BRANCH  52  55
ATOM     55  C23 non d ame     -33.906   4.157  25.949  0.00  0.00     0.259 C 
ATOM     56  O7  non d ame     -33.321   3.361  25.289  0.00  0.00    -0.265 OA
BRANCH  55  57
ATOM     57  O8  non d ame     -34.325   3.823  27.267  0.00  0.00    -0.317 OA
BRANCH  57  58
ATOM     58  C29 non d ame     -33.800   4.685  28.280  0.00  0.00     0.052 C 
ATOM     59  H47 non d ame     -33.096   4.078  28.849  0.00  0.00     0.082 H 
ATOM     60  H48 non d ame     -33.453   5.577  27.759  0.00  0.00     0.082 H 
BRANCH  58  61
ATOM     61  C35 non d ame     -34.969   5.090  29.218  0.00  0.00    -0.034 A 
ATOM     62  C30 non d ame     -34.717   5.407  30.548  0.00  0.00    -0.075 A 
ATOM     63  C31 non d ame     -35.767   5.770  31.390  0.00  0.00    -0.082 A 
ATOM     64  H49 non d ame     -33.697   5.372  30.932  0.00  0.00     0.084 H 
ATOM     65  C32 non d ame     -37.074   5.812  30.898  0.00  0.00    -0.083 A 
ATOM     66  H50 non d ame     -35.566   6.020  32.433  0.00  0.00     0.083 H 
ATOM     67  C33 non d ame     -37.321   5.491  29.570  0.00  0.00    -0.082 A 
ATOM     68  H51 non d ame     -37.901   6.095  31.549  0.00  0.00     0.083 H 
ATOM     69  C34 non d ame     -36.275   5.130  28.724  0.00  0.00    -0.075 A 
ATOM     70  H52 non d ame     -38.343   5.522  29.189  0.00  0.00     0.083 H 
ATOM     71  H53 non d ame     -36.477   4.880  27.682  0.00  0.00     0.084 H 
ENDBRANCH  58  61
ENDBRANCH  57  58
ENDBRANCH  55  57
ENDBRANCH  52  55
ENDBRANCH  49  52
ENDBRANCH  47  49
BRANCH  47  72
ATOM     72  C24 non d ame     -31.906   8.450  24.239  0.00  0.00    -0.039 C 
ATOM     73  H35 non d ame     -31.830   9.385  24.795  0.00  0.00     0.036 H 
ATOM     74  H36 non d ame     -31.136   7.687  24.350  0.00  0.00     0.036 H 
BRANCH  72  75
ATOM     75  C25 non d ame     -31.977   8.829  22.684  0.00  0.00    -0.001 C 
ATOM     76  C26 non d ame     -33.439   8.396  22.069  0.00  0.00    -0.035 C 
ATOM     77  C27 non d ame     -33.241   7.658  20.951  0.00  0.00     0.085 C 
ATOM     78  H38 non d ame     -33.940   7.704  22.746  0.00  0.00     0.036 H 
ATOM     79  H39 non d ame     -33.967   9.277  21.702  0.00  0.00     0.036 H 
ATOM     80  N5  non d ame     -31.782   7.272  20.929  0.00  0.00    -0.049 N 
ATOM     81  H40 non d ame     -33.844   6.760  21.084  0.00  0.00     0.075 H 
ATOM     82  H41 non d ame     -33.443   8.331  20.118  0.00  0.00     0.075 H 
ATOM     83  C28 non d ame     -31.055   8.223  22.013  0.00  0.00     0.193 C 
ATOM     84  H42 non d ame     -31.733   6.318  21.255  0.00  0.00     0.280 HD
ATOM     85  H43 non d ame     -31.437   7.510  20.010  0.00  0.00     0.280 HD
ATOM     86  H44 non d ame     -30.455   9.074  21.689  0.00  0.00     0.129 H 
ATOM     87  H37 non d ame     -31.640   9.847  22.491  0.00  0.00     0.046 H 
BRANCH  83  88
ATOM     88  O6  non d ame     -30.198   7.448  22.853  0.00  0.00    -0.369 OA
ATOM     89  H45 non d ame     -30.334   7.700  23.769  0.00  0.00     0.212 HD
ENDBRANCH  83  88
ENDBRANCH  72  75
ENDBRANCH  47  72
ENDBRANCH  45  47
ENDBRANCH   1  43
BRANCH   1  90
ATOM     90  C16 non d ame     -36.692   9.913  27.720  0.00  0.00    -0.035 C 
ATOM     91  H21 non d ame     -36.719  11.001  27.663  0.00  0.00     0.037 H 
ATOM     92  H22 non d ame     -37.155   9.314  26.935  0.00  0.00     0.037 H 
BRANCH  90  93
ATOM     93  C17 non d ame     -37.410   9.525  29.052  0.00  0.00    -0.059 C 
ATOM     94  H23 non d ame     -37.980   8.614  28.868  0.00  0.00     0.038 H 
BRANCH  93  95
ATOM     95  C18 non d ame     -36.396   9.228  30.203  0.00  0.00    -0.073 C 
ATOM     96  H24 non d ame     -35.449   9.724  29.991  0.00  0.00     0.028 H 
ATOM     97  H25 non d ame     -36.796   9.600  31.146  0.00  0.00     0.028 H 
ATOM     98  H26 non d ame     -36.234   8.153  30.276  0.00  0.00     0.028 H 
ENDBRANCH  93  95
BRANCH  93  99
ATOM     99  C19 non d ame     -38.407  10.608  29.471  0.00  0.00    -0.073 C 
ATOM    100  H27 non d ame     -38.275  11.488  28.841  0.00  0.00     0.028 H 
ATOM    101  H28 non d ame     -39.424  10.230  29.358  0.00  0.00     0.028 H 
ATOM    102  H29 non d ame     -38.235  10.877  30.513  0.00  0.00     0.028 H 
ENDBRANCH  93  99
ENDBRANCH  90  93
ENDBRANCH   1  90
TORSDOF 26
ENDMDL
MODEL 15
REMARK VINA RESULT:      -6.1      2.935      8.938
REMARK  26 active torsions:
REMARK  status: ('A' for Active; 'I' for Inactive)
REMARK    1  A    between atoms: C2_2  and  C3_3 
REMARK    2  A    between atoms: C4_6  and  C5_7 
REMARK       I    between atoms: C5_7  and  N2_9 
REMARK    3  A    between atoms: N2_9  and  C6_10 
REMARK    4  A    between atoms: C6_10  and  C7_11 
REMARK    5  A    between atoms: C6_10  and  C8_13 
REMARK       I    between atoms: C7_11  and  N3_14 
REMARK    6  A    between atoms: N3_14  and  C9_15 
REMARK    7  A    between atoms: C9_15  and  C10_16 
REMARK    8  A    between atoms: C9_15  and  C11_18 
REMARK       I    between atoms: C10_16  and  N4_21 
REMARK    9  A    between atoms: C11_18  and  C12_19 
REMARK   10  A    between atoms: C11_18  and  C13_20 
REMARK   11  A    between atoms: N4_21  and  C14_22 
REMARK   12  A    between atoms: C14_22  and  C15_23 
REMARK   13  A    between atoms: C14_22  and  C16_25 
REMARK       I    between atoms: C15_23  and  N6_40 
REMARK   14  A    between atoms: C16_25  and  C17_26 
REMARK   15  A    between atoms: C17_26  and  C18_27 
REMARK   16  A    between atoms: C17_26  and  C19_28 
REMARK   17  A    between atoms: C20_29  and  C21_30 
REMARK   18  A    between atoms: C20_29  and  C24_33 
REMARK   19  A    between atoms: C20_29  and  N6_40 
REMARK   20  A    between atoms: C21_30  and  C22_31 
REMARK   21  A    between atoms: C22_31  and  C23_32 
REMARK   22  A    between atoms: C23_32  and  O8_43 
REMARK   23  A    between atoms: C24_33  and  C25_34 
REMARK   24  A    between atoms: C28_38  and  O6_39 
REMARK   25  A    between atoms: C29_42  and  O8_43 
REMARK   26  A    between atoms: C29_42  and  C35_49 
ROOT
ATOM      1  C14 non d ame     -35.120  10.174  24.629  0.00  0.00     0.089 C 
ATOM      2  H20 non d ame     -34.807  10.538  23.650  0.00  0.00     0.087 H 
ENDROOT
BRANCH   1   3
ATOM      3  N4  non d ame     -34.516   8.864  24.823  0.00  0.00    -0.346 N 
ATOM      4  C10 non d ame     -33.093   8.610  24.392  0.00  0.00     0.241 C 
ATOM      5  O4  non d ame     -32.455   9.475  23.888  0.00  0.00    -0.271 OA
ATOM      6  H19 non d ame     -35.076   8.141  25.252  0.00  0.00     0.163 HD
BRANCH   4   7
ATOM      7  C9  non d ame     -32.481   7.251  24.607  0.00  0.00     0.092 C 
ATOM      8  H11 non d ame     -31.479   7.370  25.019  0.00  0.00     0.088 H 
BRANCH   7   9
ATOM      9  N3  non d ame     -33.272   6.509  25.594  0.00  0.00    -0.346 N 
ATOM     10  C7  non d ame     -32.803   6.395  26.953  0.00  0.00     0.240 C 
ATOM     11  O3  non d ame     -31.791   6.892  27.269  0.00  0.00    -0.271 OA
ATOM     12  H10 non d ame     -34.145   6.074  25.336  0.00  0.00     0.163 HD
BRANCH  10  13
ATOM     13  C6  non d ame     -33.647   5.602  27.999  0.00  0.00     0.086 C 
ATOM     14  H6  non d ame     -33.076   4.815  28.492  0.00  0.00     0.086 H 
BRANCH  13  15
ATOM     15  N2  non d ame     -34.084   6.515  29.042  0.00  0.00    -0.343 N 
ATOM     16  C5  non d ame     -34.889   7.685  28.685  0.00  0.00     0.273 C 
ATOM     17  O2  non d ame     -35.177   7.884  27.556  0.00  0.00    -0.266 OA
ATOM     18  H5  non d ame     -33.831   6.338  30.004  0.00  0.00     0.163 HD
BRANCH  16  19
ATOM     19  C4  non d ame     -35.360   8.657  29.778  0.00  0.00     0.154 A 
ATOM     20  C1  non d ame     -34.620   9.098  30.920  0.00  0.00    -0.017 A 
ATOM     21  C2  non d ame     -35.492   9.976  31.602  0.00  0.00     0.077 A 
ATOM     22  H1  non d ame     -33.606   8.822  31.211  0.00  0.00     0.091 H 
ATOM     23  O1  non d ame     -36.599  10.028  30.921  0.00  0.00    -0.218 OA
ATOM     24  N1  non d ame     -36.547   9.266  29.852  0.00  0.00    -0.123 NA
BRANCH  21  25
ATOM     25  C3  non d ame     -35.190  10.724  32.894  0.00  0.00    -0.029 C 
ATOM     26  H2  non d ame     -34.141  11.019  32.906  0.00  0.00     0.036 H 
ATOM     27  H3  non d ame     -35.818  11.612  32.954  0.00  0.00     0.036 H 
ATOM     28  H4  non d ame     -35.395  10.076  33.745  0.00  0.00     0.036 H 
ENDBRANCH  21  25
ENDBRANCH  16  19
ENDBRANCH  13  15
BRANCH  13  29
ATOM     29  C8  non d ame     -34.842   4.983  27.319  0.00  0.00    -0.049 C 
ATOM     30  H7  non d ame     -35.732   5.155  27.923  0.00  0.00     0.030 H 
ATOM     31  H8  non d ame     -34.976   5.436  26.337  0.00  0.00     0.030 H 
ATOM     32  H9  non d ame     -34.681   3.911  27.206  0.00  0.00     0.030 H 
ENDBRANCH  13  29
ENDBRANCH  10  13
ENDBRANCH   7   9
BRANCH   7  33
ATOM     33  C11 non d ame     -32.472   6.469  23.261  0.00  0.00    -0.033 C 
ATOM     34  H12 non d ame     -33.180   6.957  22.592  0.00  0.00     0.042 H 
BRANCH  33  35
ATOM     35  C12 non d ame     -31.068   6.525  22.581  0.00  0.00    -0.071 C 
ATOM     36  H13 non d ame     -30.708   7.554  22.575  0.00  0.00     0.028 H 
ATOM     37  H14 non d ame     -30.370   5.898  23.136  0.00  0.00     0.028 H 
ATOM     38  H15 non d ame     -31.146   6.162  21.556  0.00  0.00     0.028 H 
ENDBRANCH  33  35
BRANCH  33  39
ATOM     39  C13 non d ame     -32.942   4.993  23.468  0.00  0.00    -0.071 C 
ATOM     40  H16 non d ame     -33.370   4.885  24.465  0.00  0.00     0.028 H 
ATOM     41  H17 non d ame     -33.694   4.743  22.719  0.00  0.00     0.028 H 
ATOM     42  H18 non d ame     -32.089   4.322  23.364  0.00  0.00     0.028 H 
ENDBRANCH  33  39
ENDBRANCH   7  33
ENDBRANCH   4   7
ENDBRANCH   1   3
BRANCH   1  43
ATOM     43  C15 non d ame     -34.655  11.110  25.780  0.00  0.00     0.240 C 
ATOM     44  O5  non d ame     -35.217  11.084  26.827  0.00  0.00    -0.271 OA
ATOM     45  N6  non d ame     -33.502  12.035  25.580  0.00  0.00    -0.355 N 
ATOM     46  H46 non d ame     -33.014  12.062  24.697  0.00  0.00     0.162 HD
BRANCH  45  47
ATOM     47  C20 non d ame     -33.071  12.918  26.685  0.00  0.00     0.013 C 
ATOM     48  H30 non d ame     -33.599  12.609  27.587  0.00  0.00     0.072 H 
BRANCH  47  49
ATOM     49  C21 non d ame     -33.421  14.349  26.346  0.00  0.00    -0.038 C 
ATOM     50  H31 non d ame     -32.487  14.814  26.031  0.00  0.00     0.036 H 
ATOM     51  H32 non d ame     -34.262  14.291  25.655  0.00  0.00     0.036 H 
BRANCH  49  52
ATOM     52  C22 non d ame     -33.916  15.151  27.569  0.00  0.00     0.018 C 
ATOM     53  H33 non d ame     -34.804  15.686  27.232  0.00  0.00     0.048 H 
ATOM     54  H34 non d ame     -33.991  14.430  28.384  0.00  0.00     0.048 H 
BRANCH  52  55
ATOM     55  C23 non d ame     -32.918  16.240  28.051  0.00  0.00     0.259 C 
ATOM     56  O7  non d ame     -32.565  16.276  29.185  0.00  0.00    -0.265 OA
BRANCH  55  57
ATOM     57  O8  non d ame     -32.437  17.204  27.122  0.00  0.00    -0.317 OA
BRANCH  57  58
ATOM     58  C29 non d ame     -32.591  18.558  27.556  0.00  0.00     0.052 C 
ATOM     59  H47 non d ame     -32.577  18.522  28.645  0.00  0.00     0.082 H 
ATOM     60  H48 non d ame     -31.832  19.128  27.021  0.00  0.00     0.082 H 
BRANCH  58  61
ATOM     61  C35 non d ame     -33.989  19.052  27.098  0.00  0.00    -0.034 A 
ATOM     62  C30 non d ame     -34.386  18.891  25.775  0.00  0.00    -0.075 A 
ATOM     63  C31 non d ame     -35.642  19.334  25.363  0.00  0.00    -0.082 A 
ATOM     64  H49 non d ame     -33.713  18.418  25.059  0.00  0.00     0.084 H 
ATOM     65  C32 non d ame     -36.502  19.943  26.281  0.00  0.00    -0.083 A 
ATOM     66  H50 non d ame     -35.950  19.205  24.325  0.00  0.00     0.083 H 
ATOM     67  C33 non d ame     -36.101  20.104  27.600  0.00  0.00    -0.082 A 
ATOM     68  H51 non d ame     -37.486  20.292  25.968  0.00  0.00     0.083 H 
ATOM     69  C34 non d ame     -34.847  19.661  28.016  0.00  0.00    -0.075 A 
ATOM     70  H52 non d ame     -36.773  20.582  28.313  0.00  0.00     0.083 H 
ATOM     71  H53 non d ame     -34.540  19.790  29.054  0.00  0.00     0.084 H 
ENDBRANCH  58  61
ENDBRANCH  57  58
ENDBRANCH  55  57
ENDBRANCH  52  55
ENDBRANCH  49  52
ENDBRANCH  47  49
BRANCH  47  72
ATOM     72  C24 non d ame     -31.562  12.796  26.885  0.00  0.00    -0.039 C 
ATOM     73  H35 non d ame     -31.238  12.025  26.185  0.00  0.00     0.036 H 
ATOM     74  H36 non d ame     -31.174  13.810  26.796  0.00  0.00     0.036 H 
BRANCH  72  75
ATOM     75  C25 non d ame     -31.200  12.279  28.358  0.00  0.00    -0.001 C 
ATOM     76  C26 non d ame     -32.577  11.898  29.172  0.00  0.00    -0.035 C 
ATOM     77  C27 non d ame     -32.563  12.528  30.371  0.00  0.00     0.085 C 
ATOM     78  H38 non d ame     -33.441  12.329  28.668  0.00  0.00     0.036 H 
ATOM     79  H39 non d ame     -32.573  10.841  29.440  0.00  0.00     0.036 H 
ATOM     80  N5  non d ame     -31.463  13.560  30.315  0.00  0.00    -0.049 N 
ATOM     81  H40 non d ame     -33.524  13.036  30.444  0.00  0.00     0.075 H 
ATOM     82  H41 non d ame     -32.295  11.763  31.099  0.00  0.00     0.075 H 
ATOM     83  C28 non d ame     -30.565  13.183  29.027  0.00  0.00     0.193 C 
ATOM     84  H42 non d ame     -31.912  14.448  30.146  0.00  0.00     0.280 HD
ATOM     85  H43 non d ame     -30.904  13.427  31.147  0.00  0.00     0.280 HD
ATOM     86  H44 non d ame     -29.598  12.696  29.150  0.00  0.00     0.129 H 
ATOM     87  H37 non d ame     -30.405  11.532  28.350  0.00  0.00     0.046 H 
BRANCH  83  88
ATOM     88  O6  non d ame     -30.309  14.351  28.246  0.00  0.00    -0.369 OA
ATOM     89  H45 non d ame     -29.382  14.590  28.322  0.00  0.00     0.212 HD
ENDBRANCH  83  88
ENDBRANCH  72  75
ENDBRANCH  47  72
ENDBRANCH  45  47
ENDBRANCH   1  43
BRANCH   1  90
ATOM     90  C16 non d ame     -36.633  10.032  24.665  0.00  0.00    -0.035 C 
ATOM     91  H21 non d ame     -36.833   9.252  25.399  0.00  0.00     0.037 H 
ATOM     92  H22 non d ame     -37.014  11.041  24.825  0.00  0.00     0.037 H 
BRANCH  90  93
ATOM     93  C17 non d ame     -37.249   9.536  23.318  0.00  0.00    -0.059 C 
ATOM     94  H23 non d ame     -36.433   9.418  22.605  0.00  0.00     0.038 H 
BRANCH  93  95
ATOM     95  C18 non d ame     -37.956   8.151  23.467  0.00  0.00    -0.073 C 
ATOM     96  H24 non d ame     -38.434   8.091  24.444  0.00  0.00     0.028 H 
ATOM     97  H25 non d ame     -38.710   8.042  22.687  0.00  0.00     0.028 H 
ATOM     98  H26 non d ame     -37.218   7.355  23.373  0.00  0.00     0.028 H 
ENDBRANCH  93  95
BRANCH  93  99
ATOM     99  C19 non d ame     -38.209  10.579  22.739  0.00  0.00    -0.073 C 
ATOM    100  H27 non d ame     -37.722  11.554  22.725  0.00  0.00     0.028 H 
ATOM    101  H28 non d ame     -38.484  10.296  21.723  0.00  0.00     0.028 H 
ATOM    102  H29 non d ame     -39.106  10.629  23.357  0.00  0.00     0.028 H 
ENDBRANCH  93  99
ENDBRANCH  90  93
ENDBRANCH   1  90
TORSDOF 26
ENDMDL
MODEL 16
REMARK VINA RESULT:      -6.1      2.629      4.218
REMARK  26 active torsions:
REMARK  status: ('A' for Active; 'I' for Inactive)
REMARK    1  A    between atoms: C2_2  and  C3_3 
REMARK    2  A    between atoms: C4_6  and  C5_7 
REMARK       I    between atoms: C5_7  and  N2_9 
REMARK    3  A    between atoms: N2_9  and  C6_10 
REMARK    4  A    between atoms: C6_10  and  C7_11 
REMARK    5  A    between atoms: C6_10  and  C8_13 
REMARK       I    between atoms: C7_11  and  N3_14 
REMARK    6  A    between atoms: N3_14  and  C9_15 
REMARK    7  A    between atoms: C9_15  and  C10_16 
REMARK    8  A    between atoms: C9_15  and  C11_18 
REMARK       I    between atoms: C10_16  and  N4_21 
REMARK    9  A    between atoms: C11_18  and  C12_19 
REMARK   10  A    between atoms: C11_18  and  C13_20 
REMARK   11  A    between atoms: N4_21  and  C14_22 
REMARK   12  A    between atoms: C14_22  and  C15_23 
REMARK   13  A    between atoms: C14_22  and  C16_25 
REMARK       I    between atoms: C15_23  and  N6_40 
REMARK   14  A    between atoms: C16_25  and  C17_26 
REMARK   15  A    between atoms: C17_26  and  C18_27 
REMARK   16  A    between atoms: C17_26  and  C19_28 
REMARK   17  A    between atoms: C20_29  and  C21_30 
REMARK   18  A    between atoms: C20_29  and  C24_33 
REMARK   19  A    between atoms: C20_29  and  N6_40 
REMARK   20  A    between atoms: C21_30  and  C22_31 
REMARK   21  A    between atoms: C22_31  and  C23_32 
REMARK   22  A    between atoms: C23_32  and  O8_43 
REMARK   23  A    between atoms: C24_33  and  C25_34 
REMARK   24  A    between atoms: C28_38  and  O6_39 
REMARK   25  A    between atoms: C29_42  and  O8_43 
REMARK   26  A    between atoms: C29_42  and  C35_49 
ROOT
ATOM      1  C14 non d ame     -33.478  10.173  25.238  0.00  0.00     0.089 C 
ATOM      2  H20 non d ame     -33.953   9.718  24.369  0.00  0.00     0.087 H 
ENDROOT
BRANCH   1   3
ATOM      3  N4  non d ame     -34.135  11.450  25.477  0.00  0.00    -0.346 N 
ATOM      4  C10 non d ame     -35.617  11.599  25.247  0.00  0.00     0.241 C 
ATOM      5  O4  non d ame     -36.261  10.677  24.867  0.00  0.00    -0.271 OA
ATOM      6  H19 non d ame     -33.568  12.222  25.799  0.00  0.00     0.163 HD
BRANCH   4   7
ATOM      7  C9  non d ame     -36.281  12.926  25.505  0.00  0.00     0.092 C 
ATOM      8  H11 non d ame     -36.597  12.972  26.548  0.00  0.00     0.088 H 
BRANCH   7   9
ATOM      9  N3  non d ame     -35.312  14.006  25.297  0.00  0.00    -0.346 N 
ATOM     10  C7  non d ame     -35.165  15.043  26.288  0.00  0.00     0.240 C 
ATOM     11  O3  non d ame     -35.820  15.024  27.259  0.00  0.00    -0.271 OA
ATOM     12  H10 non d ame     -34.742  14.036  24.464  0.00  0.00     0.163 HD
BRANCH  10  13
ATOM     13  C6  non d ame     -34.135  16.192  26.060  0.00  0.00     0.086 C 
ATOM     14  H6  non d ame     -33.422  16.288  26.879  0.00  0.00     0.086 H 
BRANCH  13  15
ATOM     15  N2  non d ame     -33.359  15.898  24.866  0.00  0.00    -0.343 N 
ATOM     16  C5  non d ame     -31.929  16.214  24.839  0.00  0.00     0.273 C 
ATOM     17  O2  non d ame     -31.413  16.707  25.782  0.00  0.00    -0.266 OA
ATOM     18  H5  non d ame     -33.809  15.480  24.064  0.00  0.00     0.163 HD
BRANCH  16  19
ATOM     19  C4  non d ame     -31.097  15.908  23.585  0.00  0.00     0.154 A 
ATOM     20  C1  non d ame     -31.529  15.977  22.222  0.00  0.00    -0.017 A 
ATOM     21  C2  non d ame     -30.397  15.603  21.463  0.00  0.00     0.077 A 
ATOM     22  H1  non d ame     -32.512  16.255  21.842  0.00  0.00     0.091 H 
ATOM     23  O1  non d ame     -29.434  15.354  22.300  0.00  0.00    -0.218 OA
ATOM     24  N1  non d ame     -29.818  15.524  23.544  0.00  0.00    -0.123 NA
BRANCH  21  25
ATOM     25  C3  non d ame     -30.320  15.512  19.944  0.00  0.00    -0.029 C 
ATOM     26  H2  non d ame     -29.300  15.272  19.646  0.00  0.00     0.036 H 
ATOM     27  H3  non d ame     -30.995  14.731  19.593  0.00  0.00     0.036 H 
ATOM     28  H4  non d ame     -30.612  16.467  19.508  0.00  0.00     0.036 H 
ENDBRANCH  21  25
ENDBRANCH  16  19
ENDBRANCH  13  15
BRANCH  13  29
ATOM     29  C8  non d ame     -34.865  17.500  25.892  0.00  0.00    -0.049 C 
ATOM     30  H7  non d ame     -34.360  18.275  26.469  0.00  0.00     0.030 H 
ATOM     31  H8  non d ame     -34.873  17.779  24.839  0.00  0.00     0.030 H 
ATOM     32  H9  non d ame     -35.890  17.392  26.248  0.00  0.00     0.030 H 
ENDBRANCH  13  29
ENDBRANCH  10  13
ENDBRANCH   7   9
BRANCH   7  33
ATOM     33  C11 non d ame     -37.476  13.107  24.523  0.00  0.00    -0.033 C 
ATOM     34  H12 non d ame     -37.738  12.122  24.138  0.00  0.00     0.042 H 
BRANCH  33  35
ATOM     35  C12 non d ame     -38.732  13.674  25.255  0.00  0.00    -0.071 C 
ATOM     36  H13 non d ame     -38.435  14.091  26.218  0.00  0.00     0.028 H 
ATOM     37  H14 non d ame     -39.187  14.454  24.646  0.00  0.00     0.028 H 
ATOM     38  H15 non d ame     -39.452  12.871  25.415  0.00  0.00     0.028 H 
ENDBRANCH  33  35
BRANCH  33  39
ATOM     39  C13 non d ame     -37.072  14.008  23.312  0.00  0.00    -0.071 C 
ATOM     40  H16 non d ame     -36.887  15.024  23.661  0.00  0.00     0.028 H 
ATOM     41  H17 non d ame     -36.167  13.612  22.850  0.00  0.00     0.028 H 
ATOM     42  H18 non d ame     -37.879  14.016  22.580  0.00  0.00     0.028 H 
ENDBRANCH  33  39
ENDBRANCH   7  33
ENDBRANCH   4   7
ENDBRANCH   1   3
BRANCH   1  43
ATOM     43  C15 non d ame     -33.624   9.295  26.514  0.00  0.00     0.240 C 
ATOM     44  O5  non d ame     -32.700   9.166  27.251  0.00  0.00    -0.271 OA
ATOM     45  N6  non d ame     -34.918   8.621  26.821  0.00  0.00    -0.355 N 
ATOM     46  H46 non d ame     -35.710   8.728  26.205  0.00  0.00     0.162 HD
BRANCH  45  47
ATOM     47  C20 non d ame     -35.040   7.791  28.039  0.00  0.00     0.013 C 
ATOM     48  H30 non d ame     -34.036   7.515  28.359  0.00  0.00     0.072 H 
BRANCH  47  49
ATOM     49  C21 non d ame     -35.840   6.548  27.718  0.00  0.00    -0.038 C 
ATOM     50  H31 non d ame     -36.862   6.890  27.555  0.00  0.00     0.036 H 
ATOM     51  H32 non d ame     -35.297   6.049  26.915  0.00  0.00     0.036 H 
BRANCH  49  52
ATOM     52  C22 non d ame     -35.895   5.550  28.895  0.00  0.00     0.018 C 
ATOM     53  H33 non d ame     -36.528   6.017  29.648  0.00  0.00     0.048 H 
ATOM     54  H34 non d ame     -36.182   4.594  28.457  0.00  0.00     0.048 H 
BRANCH  52  55
ATOM     55  C23 non d ame     -34.520   5.313  29.579  0.00  0.00     0.259 C 
ATOM     56  O7  non d ame     -34.432   5.287  30.764  0.00  0.00    -0.265 OA
BRANCH  55  57
ATOM     57  O8  non d ame     -33.361   5.138  28.772  0.00  0.00    -0.317 OA
BRANCH  57  58
ATOM     58  C29 non d ame     -33.449   4.043  27.856  0.00  0.00     0.052 C 
ATOM     59  H47 non d ame     -32.658   3.352  28.145  0.00  0.00     0.082 H 
ATOM     60  H48 non d ame     -34.490   3.721  27.880  0.00  0.00     0.082 H 
BRANCH  58  61
ATOM     61  C35 non d ame     -33.135   4.582  26.435  0.00  0.00    -0.034 A 
ATOM     62  C30 non d ame     -33.653   3.938  25.315  0.00  0.00    -0.075 A 
ATOM     63  C31 non d ame     -33.371   4.422  24.039  0.00  0.00    -0.082 A 
ATOM     64  H49 non d ame     -34.279   3.054  25.438  0.00  0.00     0.084 H 
ATOM     65  C32 non d ame     -32.566   5.554  23.883  0.00  0.00    -0.083 A 
ATOM     66  H50 non d ame     -33.780   3.916  23.163  0.00  0.00     0.083 H 
ATOM     67  C33 non d ame     -32.049   6.191  25.003  0.00  0.00    -0.082 A 
ATOM     68  H51 non d ame     -32.341   5.939  22.889  0.00  0.00     0.083 H 
ATOM     69  C34 non d ame     -32.330   5.712  26.281  0.00  0.00    -0.075 A 
ATOM     70  H52 non d ame     -31.419   7.072  24.878  0.00  0.00     0.083 H 
ATOM     71  H53 non d ame     -31.921   6.219  27.155  0.00  0.00     0.084 H 
ENDBRANCH  58  61
ENDBRANCH  57  58
ENDBRANCH  55  57
ENDBRANCH  52  55
ENDBRANCH  49  52
ENDBRANCH  47  49
BRANCH  47  72
ATOM     72  C24 non d ame     -35.748   8.584  29.136  0.00  0.00    -0.039 C 
ATOM     73  H35 non d ame     -36.092   9.500  28.655  0.00  0.00     0.036 H 
ATOM     74  H36 non d ame     -36.471   7.894  29.572  0.00  0.00     0.036 H 
BRANCH  72  75
ATOM     75  C25 non d ame     -34.739   9.012  30.303  0.00  0.00    -0.001 C 
ATOM     76  C26 non d ame     -35.366   8.599  31.766  0.00  0.00    -0.035 C 
ATOM     77  C27 non d ame     -35.333   9.684  32.577  0.00  0.00     0.085 C 
ATOM     78  H38 non d ame     -36.431   8.386  31.669  0.00  0.00     0.036 H 
ATOM     79  H39 non d ame     -34.711   7.886  32.266  0.00  0.00     0.036 H 
ATOM     80  N5  non d ame     -35.045  10.880  31.703  0.00  0.00    -0.049 N 
ATOM     81  H40 non d ame     -36.340   9.774  32.983  0.00  0.00     0.075 H 
ATOM     82  H41 non d ame     -34.489   9.521  33.246  0.00  0.00     0.075 H 
ATOM     83  C28 non d ame     -34.527  10.286  30.294  0.00  0.00     0.193 C 
ATOM     84  H42 non d ame     -35.929  11.343  31.551  0.00  0.00     0.280 HD
ATOM     85  H43 non d ame     -34.283  11.377  32.142  0.00  0.00     0.280 HD
ATOM     86  H44 non d ame     -33.467  10.309  30.039  0.00  0.00     0.129 H 
ATOM     87  H37 non d ame     -33.714   8.702  30.098  0.00  0.00     0.046 H 
BRANCH  83  88
ATOM     88  O6  non d ame     -35.194  10.935  29.210  0.00  0.00    -0.369 OA
ATOM     89  H45 non d ame     -34.742  11.757  29.002  0.00  0.00     0.212 HD
ENDBRANCH  83  88
ENDBRANCH  72  75
ENDBRANCH  47  72
ENDBRANCH  45  47
ENDBRANCH   1  43
BRANCH   1  90
ATOM     90  C16 non d ame     -32.005  10.418  24.952  0.00  0.00    -0.035 C 
ATOM     91  H21 non d ame     -31.940  11.464  24.652  0.00  0.00     0.037 H 
ATOM     92  H22 non d ame     -31.477  10.072  25.840  0.00  0.00     0.037 H 
BRANCH  90  93
ATOM     93  C17 non d ame     -31.452   9.582  23.755  0.00  0.00    -0.059 C 
ATOM     94  H23 non d ame     -30.996   8.680  24.164  0.00  0.00     0.038 H 
BRANCH  93  95
ATOM     95  C18 non d ame     -32.583   9.139  22.772  0.00  0.00    -0.073 C 
ATOM     96  H24 non d ame     -32.936  10.003  22.211  0.00  0.00     0.028 H 
ATOM     97  H25 non d ame     -32.193   8.393  22.081  0.00  0.00     0.028 H 
ATOM     98  H26 non d ame     -33.410   8.711  23.339  0.00  0.00     0.028 H 
ENDBRANCH  93  95
BRANCH  93  99
ATOM     99  C19 non d ame     -30.355  10.349  23.012  0.00  0.00    -0.073 C 
ATOM    100  H27 non d ame     -30.798  10.908  22.186  0.00  0.00     0.028 H 
ATOM    101  H28 non d ame     -29.867  11.042  23.698  0.00  0.00     0.028 H 
ATOM    102  H29 non d ame     -29.620   9.646  22.622  0.00  0.00     0.028 H 
ENDBRANCH  93  99
ENDBRANCH  90  93
ENDBRANCH   1  90
TORSDOF 26
ENDMDL
MODEL 17
REMARK VINA RESULT:      -6.1      3.217      6.444
REMARK  26 active torsions:
REMARK  status: ('A' for Active; 'I' for Inactive)
REMARK    1  A    between atoms: C2_2  and  C3_3 
REMARK    2  A    between atoms: C4_6  and  C5_7 
REMARK       I    between atoms: C5_7  and  N2_9 
REMARK    3  A    between atoms: N2_9  and  C6_10 
REMARK    4  A    between atoms: C6_10  and  C7_11 
REMARK    5  A    between atoms: C6_10  and  C8_13 
REMARK       I    between atoms: C7_11  and  N3_14 
REMARK    6  A    between atoms: N3_14  and  C9_15 
REMARK    7  A    between atoms: C9_15  and  C10_16 
REMARK    8  A    between atoms: C9_15  and  C11_18 
REMARK       I    between atoms: C10_16  and  N4_21 
REMARK    9  A    between atoms: C11_18  and  C12_19 
REMARK   10  A    between atoms: C11_18  and  C13_20 
REMARK   11  A    between atoms: N4_21  and  C14_22 
REMARK   12  A    between atoms: C14_22  and  C15_23 
REMARK   13  A    between atoms: C14_22  and  C16_25 
REMARK       I    between atoms: C15_23  and  N6_40 
REMARK   14  A    between atoms: C16_25  and  C17_26 
REMARK   15  A    between atoms: C17_26  and  C18_27 
REMARK   16  A    between atoms: C17_26  and  C19_28 
REMARK   17  A    between atoms: C20_29  and  C21_30 
REMARK   18  A    between atoms: C20_29  and  C24_33 
REMARK   19  A    between atoms: C20_29  and  N6_40 
REMARK   20  A    between atoms: C21_30  and  C22_31 
REMARK   21  A    between atoms: C22_31  and  C23_32 
REMARK   22  A    between atoms: C23_32  and  O8_43 
REMARK   23  A    between atoms: C24_33  and  C25_34 
REMARK   24  A    between atoms: C28_38  and  O6_39 
REMARK   25  A    between atoms: C29_42  and  O8_43 
REMARK   26  A    between atoms: C29_42  and  C35_49 
ROOT
ATOM      1  C14 non d ame     -34.871   8.713  30.328  0.00  0.00     0.089 C 
ATOM      2  H20 non d ame     -34.952   9.043  31.364  0.00  0.00     0.087 H 
ENDROOT
BRANCH   1   3
ATOM      3  N4  non d ame     -33.704   9.362  29.752  0.00  0.00    -0.346 N 
ATOM      4  C10 non d ame     -33.355  10.779  30.132  0.00  0.00     0.241 C 
ATOM      5  O4  non d ame     -34.031  11.378  30.902  0.00  0.00    -0.271 OA
ATOM      6  H19 non d ame     -33.143   8.836  29.096  0.00  0.00     0.163 HD
BRANCH   4   7
ATOM      7  C9  non d ame     -32.139  11.434  29.529  0.00  0.00     0.092 C 
ATOM      8  H11 non d ame     -31.465  10.663  29.156  0.00  0.00     0.088 H 
BRANCH   7   9
ATOM      9  N3  non d ame     -32.543  12.250  28.381  0.00  0.00    -0.346 N 
ATOM     10  C7  non d ame     -31.904  12.059  27.101  0.00  0.00     0.240 C 
ATOM     11  O3  non d ame     -31.064  11.253  26.979  0.00  0.00    -0.271 OA
ATOM     12  H10 non d ame     -33.265  12.950  28.471  0.00  0.00     0.163 HD
BRANCH  10  13
ATOM     13  C6  non d ame     -32.336  12.933  25.883  0.00  0.00     0.086 C 
ATOM     14  H6  non d ame     -33.383  12.794  25.614  0.00  0.00     0.086 H 
BRANCH  13  15
ATOM     15  N2  non d ame     -32.179  14.336  26.230  0.00  0.00    -0.343 N 
ATOM     16  C5  non d ame     -33.290  15.052  26.858  0.00  0.00     0.273 C 
ATOM     17  O2  non d ame     -34.308  14.493  27.078  0.00  0.00    -0.266 OA
ATOM     18  H5  non d ame     -31.306  14.807  26.037  0.00  0.00     0.163 HD
BRANCH  16  19
ATOM     19  C4  non d ame     -33.138  16.535  27.232  0.00  0.00     0.154 A 
ATOM     20  C1  non d ame     -33.170  17.658  26.346  0.00  0.00    -0.017 A 
ATOM     21  C2  non d ame     -32.985  18.784  27.179  0.00  0.00     0.077 A 
ATOM     22  H1  non d ame     -33.306  17.656  25.264  0.00  0.00     0.091 H 
ATOM     23  O1  non d ame     -32.863  18.348  28.398  0.00  0.00    -0.218 OA
ATOM     24  N1  non d ame     -32.949  17.039  28.455  0.00  0.00    -0.123 NA
BRANCH  21  25
ATOM     25  C3  non d ame     -32.938  20.239  26.731  0.00  0.00    -0.029 C 
ATOM     26  H2  non d ame     -32.055  20.720  27.151  0.00  0.00     0.036 H 
ATOM     27  H3  non d ame     -32.892  20.282  25.643  0.00  0.00     0.036 H 
ATOM     28  H4  non d ame     -33.833  20.755  27.078  0.00  0.00     0.036 H 
ENDBRANCH  21  25
ENDBRANCH  16  19
ENDBRANCH  13  15
BRANCH  13  29
ATOM     29  C8  non d ame     -31.477  12.597  24.690  0.00  0.00    -0.049 C 
ATOM     30  H7  non d ame     -30.529  13.129  24.764  0.00  0.00     0.030 H 
ATOM     31  H8  non d ame     -31.290  11.524  24.669  0.00  0.00     0.030 H 
ATOM     32  H9  non d ame     -31.991  12.895  23.776  0.00  0.00     0.030 H 
ENDBRANCH  13  29
ENDBRANCH  10  13
ENDBRANCH   7   9
BRANCH   7  33
ATOM     33  C11 non d ame     -31.458  12.342  30.594  0.00  0.00    -0.033 C 
ATOM     34  H12 non d ame     -32.094  12.345  31.480  0.00  0.00     0.042 H 
BRANCH  33  35
ATOM     35  C12 non d ame     -30.067  11.776  31.018  0.00  0.00    -0.071 C 
ATOM     36  H13 non d ame     -30.171  11.210  31.943  0.00  0.00     0.028 H 
ATOM     37  H14 non d ame     -29.686  11.124  30.233  0.00  0.00     0.028 H 
ATOM     38  H15 non d ame     -29.372  12.601  31.175  0.00  0.00     0.028 H 
ENDBRANCH  33  35
BRANCH  33  39
ATOM     39  C13 non d ame     -31.339  13.813  30.081  0.00  0.00    -0.071 C 
ATOM     40  H16 non d ame     -32.125  14.008  29.351  0.00  0.00     0.028 H 
ATOM     41  H17 non d ame     -31.443  14.501  30.921  0.00  0.00     0.028 H 
ATOM     42  H18 non d ame     -30.365  13.957  29.614  0.00  0.00     0.028 H 
ENDBRANCH  33  39
ENDBRANCH   7  33
ENDBRANCH   4   7
ENDBRANCH   1   3
BRANCH   1  43
ATOM     43  C15 non d ame     -34.687   7.172  30.216  0.00  0.00     0.240 C 
ATOM     44  O5  non d ame     -34.824   6.488  31.178  0.00  0.00    -0.271 OA
ATOM     45  N6  non d ame     -34.348   6.548  28.905  0.00  0.00    -0.355 N 
ATOM     46  H46 non d ame     -34.234   7.117  28.080  0.00  0.00     0.162 HD
BRANCH  45  47
ATOM     47  C20 non d ame     -34.178   5.081  28.814  0.00  0.00     0.013 C 
ATOM     48  H30 non d ame     -34.173   4.681  29.828  0.00  0.00     0.072 H 
BRANCH  47  49
ATOM     49  C21 non d ame     -32.866   4.772  28.130  0.00  0.00    -0.038 C 
ATOM     50  H31 non d ame     -32.224   5.632  28.320  0.00  0.00     0.036 H 
ATOM     51  H32 non d ame     -32.574   3.784  28.486  0.00  0.00     0.036 H 
BRANCH  49  52
ATOM     52  C22 non d ame     -33.002   4.660  26.596  0.00  0.00     0.018 C 
ATOM     53  H33 non d ame     -32.343   3.845  26.299  0.00  0.00     0.048 H 
ATOM     54  H34 non d ame     -34.073   4.595  26.398  0.00  0.00     0.048 H 
BRANCH  52  55
ATOM     55  C23 non d ame     -32.501   5.915  25.829  0.00  0.00     0.259 C 
ATOM     56  O7  non d ame     -32.467   6.976  26.365  0.00  0.00    -0.265 OA
BRANCH  55  57
ATOM     57  O8  non d ame     -32.093   5.786  24.472  0.00  0.00    -0.317 OA
BRANCH  57  58
ATOM     58  C29 non d ame     -32.582   6.822  23.616  0.00  0.00     0.052 C 
ATOM     59  H47 non d ame     -33.019   6.313  22.757  0.00  0.00     0.082 H 
ATOM     60  H48 non d ame     -33.204   7.457  24.247  0.00  0.00     0.082 H 
BRANCH  58  61
ATOM     61  C35 non d ame     -31.367   7.655  23.128  0.00  0.00    -0.034 A 
ATOM     62  C30 non d ame     -31.481   9.033  22.981  0.00  0.00    -0.075 A 
ATOM     63  C31 non d ame     -30.389   9.781  22.542  0.00  0.00    -0.082 A 
ATOM     64  H49 non d ame     -32.426   9.528  23.208  0.00  0.00     0.084 H 
ATOM     65  C32 non d ame     -29.180   9.145  22.248  0.00  0.00    -0.083 A 
ATOM     66  H50 non d ame     -30.481  10.862  22.429  0.00  0.00     0.083 H 
ATOM     67  C33 non d ame     -29.072   7.769  22.394  0.00  0.00    -0.082 A 
ATOM     68  H51 non d ame     -28.321   9.722  21.906  0.00  0.00     0.083 H 
ATOM     69  C34 non d ame     -30.160   7.018  22.834  0.00  0.00    -0.075 A 
ATOM     70  H52 non d ame     -28.128   7.275  22.162  0.00  0.00     0.083 H 
ATOM     71  H53 non d ame     -30.067   5.937  22.948  0.00  0.00     0.084 H 
ENDBRANCH  58  61
ENDBRANCH  57  58
ENDBRANCH  55  57
ENDBRANCH  52  55
ENDBRANCH  49  52
ENDBRANCH  47  49
BRANCH  47  72
ATOM     72  C24 non d ame     -35.328   4.477  28.011  0.00  0.00    -0.039 C 
ATOM     73  H35 non d ame     -34.957   4.398  26.988  0.00  0.00     0.036 H 
ATOM     74  H36 non d ame     -35.621   3.578  28.554  0.00  0.00     0.036 H 
BRANCH  72  75
ATOM     75  C25 non d ame     -36.602   5.446  27.978  0.00  0.00    -0.001 C 
ATOM     76  C26 non d ame     -37.626   5.066  29.208  0.00  0.00    -0.035 C 
ATOM     77  C27 non d ame     -38.872   4.902  28.703  0.00  0.00     0.085 C 
ATOM     78  H38 non d ame     -37.382   4.083  29.608  0.00  0.00     0.036 H 
ATOM     79  H39 non d ame     -37.735   5.917  29.881  0.00  0.00     0.036 H 
ATOM     80  N5  non d ame     -38.732   4.812  27.202  0.00  0.00    -0.049 N 
ATOM     81  H40 non d ame     -39.217   3.942  29.086  0.00  0.00     0.075 H 
ATOM     82  H41 non d ame     -39.412   5.814  28.955  0.00  0.00     0.075 H 
ATOM     83  C28 non d ame     -37.244   5.338  26.863  0.00  0.00     0.193 C 
ATOM     84  H42 non d ame     -38.789   3.832  26.968  0.00  0.00     0.280 HD
ATOM     85  H43 non d ame     -39.400   5.464  26.814  0.00  0.00     0.280 HD
ATOM     86  H44 non d ame     -37.090   6.334  26.448  0.00  0.00     0.129 H 
ATOM     87  H37 non d ame     -36.322   6.494  27.873  0.00  0.00     0.046 H 
BRANCH  83  88
ATOM     88  O6  non d ame     -36.600   4.442  25.956  0.00  0.00    -0.369 OA
ATOM     89  H45 non d ame     -37.263   3.922  25.494  0.00  0.00     0.212 HD
ENDBRANCH  83  88
ENDBRANCH  72  75
ENDBRANCH  47  72
ENDBRANCH  45  47
ENDBRANCH   1  43
BRANCH   1  90
ATOM     90  C16 non d ame     -36.108   9.138  29.554  0.00  0.00    -0.035 C 
ATOM     91  H21 non d ame     -35.840  10.078  29.074  0.00  0.00     0.037 H 
ATOM     92  H22 non d ame     -36.380   8.274  28.947  0.00  0.00     0.037 H 
BRANCH  90  93
ATOM     93  C17 non d ame     -37.342   9.443  30.462  0.00  0.00    -0.059 C 
ATOM     94  H23 non d ame     -37.677  10.455  30.235  0.00  0.00     0.038 H 
BRANCH  93  95
ATOM     95  C18 non d ame     -38.534   8.473  30.184  0.00  0.00    -0.073 C 
ATOM     96  H24 non d ame     -38.864   8.024  31.121  0.00  0.00     0.028 H 
ATOM     97  H25 non d ame     -39.358   9.028  29.738  0.00  0.00     0.028 H 
ATOM     98  H26 non d ame     -38.211   7.688  29.499  0.00  0.00     0.028 H 
ENDBRANCH  93  95
BRANCH  93  99
ATOM     99  C19 non d ame     -36.951   9.416  31.942  0.00  0.00    -0.073 C 
ATOM    100  H27 non d ame     -36.882  10.436  32.319  0.00  0.00     0.028 H 
ATOM    101  H28 non d ame     -37.707   8.870  32.508  0.00  0.00     0.028 H 
ATOM    102  H29 non d ame     -35.987   8.920  32.054  0.00  0.00     0.028 H 
ENDBRANCH  93  99
ENDBRANCH  90  93
ENDBRANCH   1  90
TORSDOF 26
ENDMDL
MODEL 18
REMARK VINA RESULT:      -6.0      3.138      9.476
REMARK  26 active torsions:
REMARK  status: ('A' for Active; 'I' for Inactive)
REMARK    1  A    between atoms: C2_2  and  C3_3 
REMARK    2  A    between atoms: C4_6  and  C5_7 
REMARK       I    between atoms: C5_7  and  N2_9 
REMARK    3  A    between atoms: N2_9  and  C6_10 
REMARK    4  A    between atoms: C6_10  and  C7_11 
REMARK    5  A    between atoms: C6_10  and  C8_13 
REMARK       I    between atoms: C7_11  and  N3_14 
REMARK    6  A    between atoms: N3_14  and  C9_15 
REMARK    7  A    between atoms: C9_15  and  C10_16 
REMARK    8  A    between atoms: C9_15  and  C11_18 
REMARK       I    between atoms: C10_16  and  N4_21 
REMARK    9  A    between atoms: C11_18  and  C12_19 
REMARK   10  A    between atoms: C11_18  and  C13_20 
REMARK   11  A    between atoms: N4_21  and  C14_22 
REMARK   12  A    between atoms: C14_22  and  C15_23 
REMARK   13  A    between atoms: C14_22  and  C16_25 
REMARK       I    between atoms: C15_23  and  N6_40 
REMARK   14  A    between atoms: C16_25  and  C17_26 
REMARK   15  A    between atoms: C17_26  and  C18_27 
REMARK   16  A    between atoms: C17_26  and  C19_28 
REMARK   17  A    between atoms: C20_29  and  C21_30 
REMARK   18  A    between atoms: C20_29  and  C24_33 
REMARK   19  A    between atoms: C20_29  and  N6_40 
REMARK   20  A    between atoms: C21_30  and  C22_31 
REMARK   21  A    between atoms: C22_31  and  C23_32 
REMARK   22  A    between atoms: C23_32  and  O8_43 
REMARK   23  A    between atoms: C24_33  and  C25_34 
REMARK   24  A    between atoms: C28_38  and  O6_39 
REMARK   25  A    between atoms: C29_42  and  O8_43 
REMARK   26  A    between atoms: C29_42  and  C35_49 
ROOT
ATOM      1  C14 non d ame     -31.871   8.866  24.500  0.00  0.00     0.089 C 
ATOM      2  H20 non d ame     -30.955   8.350  24.790  0.00  0.00     0.087 H 
ENDROOT
BRANCH   1   3
ATOM      3  N4  non d ame     -32.921   7.865  24.384  0.00  0.00    -0.346 N 
ATOM      4  C10 non d ame     -32.592   6.398  24.511  0.00  0.00     0.241 C 
ATOM      5  O4  non d ame     -31.475   6.048  24.705  0.00  0.00    -0.271 OA
ATOM      6  H19 non d ame     -33.865   8.183  24.217  0.00  0.00     0.163 HD
BRANCH   4   7
ATOM      7  C9  non d ame     -33.692   5.376  24.394  0.00  0.00     0.092 C 
ATOM      8  H11 non d ame     -33.254   4.378  24.379  0.00  0.00     0.088 H 
BRANCH   7   9
ATOM      9  N3  non d ame     -34.558   5.452  25.574  0.00  0.00    -0.346 N 
ATOM     10  C7  non d ame     -34.289   4.618  26.720  0.00  0.00     0.240 C 
ATOM     11  O3  non d ame     -33.381   3.879  26.708  0.00  0.00    -0.271 OA
ATOM     12  H10 non d ame     -35.346   6.083  25.599  0.00  0.00     0.163 HD
BRANCH  10  13
ATOM     13  C6  non d ame     -35.216   4.700  27.972  0.00  0.00     0.086 C 
ATOM     14  H6  non d ame     -34.862   4.086  28.800  0.00  0.00     0.086 H 
BRANCH  13  15
ATOM     15  N2  non d ame     -35.239   6.072  28.452  0.00  0.00    -0.343 N 
ATOM     16  C5  non d ame     -35.010   6.343  29.873  0.00  0.00     0.273 C 
ATOM     17  O2  non d ame     -34.811   5.451  30.622  0.00  0.00    -0.266 OA
ATOM     18  H5  non d ame     -35.412   6.828  27.805  0.00  0.00     0.163 HD
BRANCH  16  19
ATOM     19  C4  non d ame     -35.030   7.789  30.394  0.00  0.00     0.154 A 
ATOM     20  C1  non d ame     -35.132   8.216  31.756  0.00  0.00    -0.017 A 
ATOM     21  C2  non d ame     -35.106   9.627  31.697  0.00  0.00     0.077 A 
ATOM     22  H1  non d ame     -35.213   7.597  32.649  0.00  0.00     0.091 H 
ATOM     23  O1  non d ame     -34.999   9.961  30.444  0.00  0.00    -0.218 OA
ATOM     24  N1  non d ame     -34.953   8.906  29.664  0.00  0.00    -0.123 NA
BRANCH  21  25
ATOM     25  C3  non d ame     -35.186  10.581  32.882  0.00  0.00    -0.029 C 
ATOM     26  H2  non d ame     -34.668  11.508  32.638  0.00  0.00     0.036 H 
ATOM     27  H3  non d ame     -36.231  10.796  33.104  0.00  0.00     0.036 H 
ATOM     28  H4  non d ame     -34.718  10.120  33.751  0.00  0.00     0.036 H 
ENDBRANCH  21  25
ENDBRANCH  16  19
ENDBRANCH  13  15
BRANCH  13  29
ATOM     29  C8  non d ame     -36.609   4.260  27.600  0.00  0.00    -0.049 C 
ATOM     30  H7  non d ame     -37.289   5.109  27.668  0.00  0.00     0.030 H 
ATOM     31  H8  non d ame     -36.608   3.877  26.580  0.00  0.00     0.030 H 
ATOM     32  H9  non d ame     -36.937   3.476  28.283  0.00  0.00     0.030 H 
ENDBRANCH  13  29
ENDBRANCH  10  13
ENDBRANCH   7   9
BRANCH   7  33
ATOM     33  C11 non d ame     -34.534   5.665  23.117  0.00  0.00    -0.033 C 
ATOM     34  H12 non d ame     -34.865   6.702  23.169  0.00  0.00     0.042 H 
BRANCH  33  35
ATOM     35  C12 non d ame     -33.676   5.511  21.823  0.00  0.00    -0.071 C 
ATOM     36  H13 non d ame     -32.947   6.320  21.772  0.00  0.00     0.028 H 
ATOM     37  H14 non d ame     -33.155   4.554  21.844  0.00  0.00     0.028 H 
ATOM     38  H15 non d ame     -34.325   5.553  20.949  0.00  0.00     0.028 H 
ENDBRANCH  33  35
BRANCH  33  39
ATOM     39  C13 non d ame     -35.803   4.754  23.066  0.00  0.00    -0.071 C 
ATOM     40  H16 non d ame     -35.499   3.708  23.053  0.00  0.00     0.028 H 
ATOM     41  H17 non d ame     -36.421   4.943  23.945  0.00  0.00     0.028 H 
ATOM     42  H18 non d ame     -36.375   4.979  22.166  0.00  0.00     0.028 H 
ENDBRANCH  33  39
ENDBRANCH   7  33
ENDBRANCH   4   7
ENDBRANCH   1   3
BRANCH   1  43
ATOM     43  C15 non d ame     -32.309   9.923  25.554  0.00  0.00     0.240 C 
ATOM     44  O5  non d ame     -32.872   9.575  26.541  0.00  0.00    -0.271 OA
ATOM     45  N6  non d ame     -32.018  11.369  25.337  0.00  0.00    -0.355 N 
ATOM     46  H46 non d ame     -31.537  11.676  24.505  0.00  0.00     0.162 HD
BRANCH  45  47
ATOM     47  C20 non d ame     -32.440  12.361  26.349  0.00  0.00     0.013 C 
ATOM     48  H30 non d ame     -33.449  12.103  26.672  0.00  0.00     0.072 H 
BRANCH  47  49
ATOM     49  C21 non d ame     -32.433  13.740  25.731  0.00  0.00    -0.038 C 
ATOM     50  H31 non d ame     -33.134  13.693  24.898  0.00  0.00     0.036 H 
ATOM     51  H32 non d ame     -32.609  14.433  26.554  0.00  0.00     0.036 H 
BRANCH  49  52
ATOM     52  C22 non d ame     -31.063  14.119  25.127  0.00  0.00     0.018 C 
ATOM     53  H33 non d ame     -30.343  14.013  25.938  0.00  0.00     0.048 H 
ATOM     54  H34 non d ame     -30.961  13.515  24.225  0.00  0.00     0.048 H 
BRANCH  52  55
ATOM     55  C23 non d ame     -30.970  15.599  24.664  0.00  0.00     0.259 C 
ATOM     56  O7  non d ame     -30.411  15.882  23.654  0.00  0.00    -0.265 OA
BRANCH  55  57
ATOM     57  O8  non d ame     -31.552  16.619  25.468  0.00  0.00    -0.317 OA
BRANCH  57  58
ATOM     58  C29 non d ame     -32.797  17.114  24.968  0.00  0.00     0.052 C 
ATOM     59  H47 non d ame     -32.545  17.732  24.106  0.00  0.00     0.082 H 
ATOM     60  H48 non d ame     -33.435  16.239  24.843  0.00  0.00     0.082 H 
BRANCH  58  61
ATOM     61  C35 non d ame     -33.422  18.025  26.058  0.00  0.00    -0.034 A 
ATOM     62  C30 non d ame     -32.957  19.325  26.232  0.00  0.00    -0.075 A 
ATOM     63  C31 non d ame     -33.517  20.143  27.211  0.00  0.00    -0.082 A 
ATOM     64  H49 non d ame     -32.152  19.702  25.600  0.00  0.00     0.084 H 
ATOM     65  C32 non d ame     -34.547  19.656  28.021  0.00  0.00    -0.083 A 
ATOM     66  H50 non d ame     -33.151  21.161  27.343  0.00  0.00     0.083 H 
ATOM     67  C33 non d ame     -35.006  18.357  27.847  0.00  0.00    -0.082 A 
ATOM     68  H51 non d ame     -34.991  20.289  28.789  0.00  0.00     0.083 H 
ATOM     69  C34 non d ame     -34.450  17.537  26.868  0.00  0.00    -0.075 A 
ATOM     70  H52 non d ame     -35.807  17.980  28.483  0.00  0.00     0.083 H 
ATOM     71  H53 non d ame     -34.816  16.519  26.737  0.00  0.00     0.084 H 
ENDBRANCH  58  61
ENDBRANCH  57  58
ENDBRANCH  55  57
ENDBRANCH  52  55
ENDBRANCH  49  52
ENDBRANCH  47  49
BRANCH  47  72
ATOM     72  C24 non d ame     -31.479  12.329  27.536  0.00  0.00    -0.039 C 
ATOM     73  H35 non d ame     -31.284  11.272  27.723  0.00  0.00     0.036 H 
ATOM     74  H36 non d ame     -30.659  12.993  27.263  0.00  0.00     0.036 H 
BRANCH  72  75
ATOM     75  C25 non d ame     -32.152  12.928  28.860  0.00  0.00    -0.001 C 
ATOM     76  C26 non d ame     -31.025  13.738  29.743  0.00  0.00    -0.035 C 
ATOM     77  C27 non d ame     -31.064  13.285  31.020  0.00  0.00     0.085 C 
ATOM     78  H38 non d ame     -30.024  13.470  29.408  0.00  0.00     0.036 H 
ATOM     79  H39 non d ame     -31.307  14.787  29.836  0.00  0.00     0.036 H 
ATOM     80  N5  non d ame     -31.882  12.017  31.014  0.00  0.00    -0.049 N 
ATOM     81  H40 non d ame     -30.032  13.042  31.273  0.00  0.00     0.075 H 
ATOM     82  H41 non d ame     -31.598  14.049  31.583  0.00  0.00     0.075 H 
ATOM     83  C28 non d ame     -32.651  11.991  29.595  0.00  0.00     0.193 C 
ATOM     84  H42 non d ame     -31.223  11.251  31.037  0.00  0.00     0.280 HD
ATOM     85  H43 non d ame     -32.566  12.115  31.750  0.00  0.00     0.280 HD
ATOM     86  H44 non d ame     -33.712  12.237  29.536  0.00  0.00     0.129 H 
ATOM     87  H37 non d ame     -33.086  13.449  28.650  0.00  0.00     0.046 H 
BRANCH  83  88
ATOM     88  O6  non d ame     -32.524  10.704  28.988  0.00  0.00    -0.369 OA
ATOM     89  H45 non d ame     -31.970  10.772  28.207  0.00  0.00     0.212 HD
ENDBRANCH  83  88
ENDBRANCH  72  75
ENDBRANCH  47  72
ENDBRANCH  45  47
ENDBRANCH   1  43
BRANCH   1  90
ATOM     90  C16 non d ame     -31.677   9.540  23.151  0.00  0.00    -0.035 C 
ATOM     91  H21 non d ame     -32.062   8.833  22.417  0.00  0.00     0.037 H 
ATOM     92  H22 non d ame     -32.134  10.524  23.252  0.00  0.00     0.037 H 
BRANCH  90  93
ATOM     93  C17 non d ame     -30.178   9.784  22.783  0.00  0.00    -0.059 C 
ATOM     94  H23 non d ame     -29.582   9.584  23.673  0.00  0.00     0.038 H 
BRANCH  93  95
ATOM     95  C18 non d ame     -29.685   8.824  21.653  0.00  0.00    -0.073 C 
ATOM     96  H24 non d ame     -29.024   8.070  22.079  0.00  0.00     0.028 H 
ATOM     97  H25 non d ame     -30.543   8.335  21.192  0.00  0.00     0.028 H 
ATOM     98  H26 non d ame     -29.145   9.397  20.899  0.00  0.00     0.028 H 
ENDBRANCH  93  95
BRANCH  93  99
ATOM     99  C19 non d ame     -29.942  11.246  22.396  0.00  0.00    -0.073 C 
ATOM    100  H27 non d ame     -30.121  11.885  23.262  0.00  0.00     0.028 H 
ATOM    101  H28 non d ame     -28.913  11.372  22.060  0.00  0.00     0.028 H 
ATOM    102  H29 non d ame     -30.623  11.524  21.592  0.00  0.00     0.028 H 
ENDBRANCH  93  99
ENDBRANCH  90  93
ENDBRANCH   1  90
TORSDOF 26
ENDMDL
MODEL 19
REMARK VINA RESULT:      -6.0      2.882      7.981
REMARK  26 active torsions:
REMARK  status: ('A' for Active; 'I' for Inactive)
REMARK    1  A    between atoms: C2_2  and  C3_3 
REMARK    2  A    between atoms: C4_6  and  C5_7 
REMARK       I    between atoms: C5_7  and  N2_9 
REMARK    3  A    between atoms: N2_9  and  C6_10 
REMARK    4  A    between atoms: C6_10  and  C7_11 
REMARK    5  A    between atoms: C6_10  and  C8_13 
REMARK       I    between atoms: C7_11  and  N3_14 
REMARK    6  A    between atoms: N3_14  and  C9_15 
REMARK    7  A    between atoms: C9_15  and  C10_16 
REMARK    8  A    between atoms: C9_15  and  C11_18 
REMARK       I    between atoms: C10_16  and  N4_21 
REMARK    9  A    between atoms: C11_18  and  C12_19 
REMARK   10  A    between atoms: C11_18  and  C13_20 
REMARK   11  A    between atoms: N4_21  and  C14_22 
REMARK   12  A    between atoms: C14_22  and  C15_23 
REMARK   13  A    between atoms: C14_22  and  C16_25 
REMARK       I    between atoms: C15_23  and  N6_40 
REMARK   14  A    between atoms: C16_25  and  C17_26 
REMARK   15  A    between atoms: C17_26  and  C18_27 
REMARK   16  A    between atoms: C17_26  and  C19_28 
REMARK   17  A    between atoms: C20_29  and  C21_30 
REMARK   18  A    between atoms: C20_29  and  C24_33 
REMARK   19  A    between atoms: C20_29  and  N6_40 
REMARK   20  A    between atoms: C21_30  and  C22_31 
REMARK   21  A    between atoms: C22_31  and  C23_32 
REMARK   22  A    between atoms: C23_32  and  O8_43 
REMARK   23  A    between atoms: C24_33  and  C25_34 
REMARK   24  A    between atoms: C28_38  and  O6_39 
REMARK   25  A    between atoms: C29_42  and  O8_43 
REMARK   26  A    between atoms: C29_42  and  C35_49 
ROOT
ATOM      1  C14 non d ame     -35.579   8.199  29.313  0.00  0.00     0.089 C 
ATOM      2  H20 non d ame     -36.648   8.094  29.503  0.00  0.00     0.087 H 
ENDROOT
BRANCH   1   3
ATOM      3  N4  non d ame     -35.253   7.361  28.168  0.00  0.00    -0.346 N 
ATOM      4  C10 non d ame     -36.346   6.847  27.265  0.00  0.00     0.241 C 
ATOM      5  O4  non d ame     -37.481   7.120  27.480  0.00  0.00    -0.271 OA
ATOM      6  H19 non d ame     -34.282   7.139  28.003  0.00  0.00     0.163 HD
BRANCH   4   7
ATOM      7  C9  non d ame     -35.990   5.986  26.081  0.00  0.00     0.092 C 
ATOM      8  H11 non d ame     -36.538   6.334  25.206  0.00  0.00     0.088 H 
BRANCH   7   9
ATOM      9  N3  non d ame     -34.562   6.130  25.784  0.00  0.00    -0.346 N 
ATOM     10  C7  non d ame     -34.142   6.716  24.535  0.00  0.00     0.240 C 
ATOM     11  O3  non d ame     -34.940   7.076  23.757  0.00  0.00    -0.271 OA
ATOM     12  H10 non d ame     -33.862   5.822  26.444  0.00  0.00     0.163 HD
BRANCH  10  13
ATOM     13  C6  non d ame     -32.620   6.864  24.222  0.00  0.00     0.086 C 
ATOM     14  H6  non d ame     -32.346   6.446  23.253  0.00  0.00     0.086 H 
BRANCH  13  15
ATOM     15  N2  non d ame     -32.284   8.277  24.175  0.00  0.00    -0.343 N 
ATOM     16  C5  non d ame     -31.199   8.731  23.303  0.00  0.00     0.273 C 
ATOM     17  O2  non d ame     -30.601   7.952  22.645  0.00  0.00    -0.266 OA
ATOM     18  H5  non d ame     -32.798   8.935  24.743  0.00  0.00     0.163 HD
BRANCH  16  19
ATOM     19  C4  non d ame     -30.833  10.223  23.242  0.00  0.00     0.154 A 
ATOM     20  C1  non d ame     -29.940  10.857  22.322  0.00  0.00    -0.017 A 
ATOM     21  C2  non d ame     -29.952  12.222  22.686  0.00  0.00     0.077 A 
ATOM     22  H1  non d ame     -29.371  10.398  21.513  0.00  0.00     0.091 H 
ATOM     23  O1  non d ame     -30.761  12.346  23.698  0.00  0.00    -0.218 OA
ATOM     24  N1  non d ame     -31.287  11.193  24.041  0.00  0.00    -0.123 NA
BRANCH  21  25
ATOM     25  C3  non d ame     -29.164  13.341  22.018  0.00  0.00    -0.029 C 
ATOM     26  H2  non d ame     -28.107  13.239  22.264  0.00  0.00     0.036 H 
ATOM     27  H3  non d ame     -29.292  13.280  20.937  0.00  0.00     0.036 H 
ATOM     28  H4  non d ame     -29.528  14.305  22.373  0.00  0.00     0.036 H 
ENDBRANCH  21  25
ENDBRANCH  16  19
ENDBRANCH  13  15
BRANCH  13  29
ATOM     29  C8  non d ame     -31.815   6.176  25.295  0.00  0.00    -0.049 C 
ATOM     30  H7  non d ame     -31.708   6.841  26.152  0.00  0.00     0.030 H 
ATOM     31  H8  non d ame     -32.326   5.265  25.605  0.00  0.00     0.030 H 
ATOM     32  H9  non d ame     -30.829   5.925  24.904  0.00  0.00     0.030 H 
ENDBRANCH  13  29
ENDBRANCH  10  13
ENDBRANCH   7   9
BRANCH   7  33
ATOM     33  C11 non d ame     -36.301   4.497  26.412  0.00  0.00    -0.033 C 
ATOM     34  H12 non d ame     -37.222   4.475  26.995  0.00  0.00     0.042 H 
BRANCH  33  35
ATOM     35  C12 non d ame     -36.547   3.665  25.115  0.00  0.00    -0.071 C 
ATOM     36  H13 non d ame     -37.390   2.992  25.269  0.00  0.00     0.028 H 
ATOM     37  H14 non d ame     -36.766   4.340  24.288  0.00  0.00     0.028 H 
ATOM     38  H15 non d ame     -35.655   3.083  24.882  0.00  0.00     0.028 H 
ENDBRANCH  33  35
BRANCH  33  39
ATOM     39  C13 non d ame     -35.164   3.868  27.281  0.00  0.00    -0.071 C 
ATOM     40  H16 non d ame     -34.314   3.622  26.644  0.00  0.00     0.028 H 
ATOM     41  H17 non d ame     -34.853   4.582  28.044  0.00  0.00     0.028 H 
ATOM     42  H18 non d ame     -35.533   2.962  27.761  0.00  0.00     0.028 H 
ENDBRANCH  33  39
ENDBRANCH   7  33
ENDBRANCH   4   7
ENDBRANCH   1   3
BRANCH   1  43
ATOM     43  C15 non d ame     -35.183   9.666  28.981  0.00  0.00     0.240 C 
ATOM     44  O5  non d ame     -35.769  10.566  29.490  0.00  0.00    -0.271 OA
ATOM     45  N6  non d ame     -34.066   9.949  28.035  0.00  0.00    -0.355 N 
ATOM     46  H46 non d ame     -33.558   9.193  27.600  0.00  0.00     0.162 HD
BRANCH  45  47
ATOM     47  C20 non d ame     -33.701  11.350  27.731  0.00  0.00     0.013 C 
ATOM     48  H30 non d ame     -33.951  11.958  28.600  0.00  0.00     0.072 H 
BRANCH  47  49
ATOM     49  C21 non d ame     -34.485  11.821  26.527  0.00  0.00    -0.038 C 
ATOM     50  H31 non d ame     -33.741  12.126  25.791  0.00  0.00     0.036 H 
ATOM     51  H32 non d ame     -35.183  11.015  26.297  0.00  0.00     0.036 H 
BRANCH  49  52
ATOM     52  C22 non d ame     -35.343  13.070  26.823  0.00  0.00     0.018 C 
ATOM     53  H33 non d ame     -36.364  12.798  26.555  0.00  0.00     0.048 H 
ATOM     54  H34 non d ame     -35.107  13.355  27.849  0.00  0.00     0.048 H 
BRANCH  52  55
ATOM     55  C23 non d ame     -34.984  14.300  25.944  0.00  0.00     0.259 C 
ATOM     56  O7  non d ame     -35.632  14.566  24.984  0.00  0.00    -0.265 OA
BRANCH  55  57
ATOM     57  O8  non d ame     -33.860  15.100  26.291  0.00  0.00    -0.317 OA
BRANCH  57  58
ATOM     58  C29 non d ame     -33.473  16.032  25.277  0.00  0.00     0.052 C 
ATOM     59  H47 non d ame     -32.424  15.819  25.066  0.00  0.00     0.082 H 
ATOM     60  H48 non d ame     -34.218  15.935  24.488  0.00  0.00     0.082 H 
BRANCH  58  61
ATOM     61  C35 non d ame     -33.574  17.460  25.876  0.00  0.00    -0.034 A 
ATOM     62  C30 non d ame     -34.761  18.178  25.768  0.00  0.00    -0.075 A 
ATOM     63  C31 non d ame     -34.852  19.461  26.305  0.00  0.00    -0.082 A 
ATOM     64  H49 non d ame     -35.619  17.736  25.262  0.00  0.00     0.084 H 
ATOM     65  C32 non d ame     -33.749  20.027  26.950  0.00  0.00    -0.083 A 
ATOM     66  H50 non d ame     -35.784  20.021  26.220  0.00  0.00     0.083 H 
ATOM     67  C33 non d ame     -32.566  19.308  27.052  0.00  0.00    -0.082 A 
ATOM     68  H51 non d ame     -33.812  21.030  27.374  0.00  0.00     0.083 H 
ATOM     69  C34 non d ame     -32.471  18.025  26.519  0.00  0.00    -0.075 A 
ATOM     70  H52 non d ame     -31.706  19.754  27.554  0.00  0.00     0.083 H 
ATOM     71  H53 non d ame     -31.538  17.466  26.604  0.00  0.00     0.084 H 
ENDBRANCH  58  61
ENDBRANCH  57  58
ENDBRANCH  55  57
ENDBRANCH  52  55
ENDBRANCH  49  52
ENDBRANCH  47  49
BRANCH  47  72
ATOM     72  C24 non d ame     -32.206  11.440  27.432  0.00  0.00    -0.039 C 
ATOM     73  H35 non d ame     -31.800  10.459  27.681  0.00  0.00     0.036 H 
ATOM     74  H36 non d ame     -32.136  11.815  26.411  0.00  0.00     0.036 H 
BRANCH  72  75
ATOM     75  C25 non d ame     -31.476  12.507  28.378  0.00  0.00    -0.001 C 
ATOM     76  C26 non d ame     -32.524  13.048  29.524  0.00  0.00    -0.035 C 
ATOM     77  C27 non d ame     -32.515  14.403  29.518  0.00  0.00     0.085 C 
ATOM     78  H38 non d ame     -33.546  12.799  29.243  0.00  0.00     0.036 H 
ATOM     79  H39 non d ame     -32.154  12.795  30.518  0.00  0.00     0.036 H 
ATOM     80  N5  non d ame     -31.806  14.834  28.257  0.00  0.00    -0.049 N 
ATOM     81  H40 non d ame     -33.562  14.700  29.458  0.00  0.00     0.075 H 
ATOM     82  H41 non d ame     -31.915  14.694  30.380  0.00  0.00     0.075 H 
ATOM     83  C28 non d ame     -31.051  13.520  27.700  0.00  0.00     0.193 C 
ATOM     84  H42 non d ame     -32.527  15.094  27.599  0.00  0.00     0.280 HD
ATOM     85  H43 non d ame     -31.111  15.511  28.537  0.00  0.00     0.280 HD
ATOM     86  H44 non d ame     -29.974  13.406  27.826  0.00  0.00     0.129 H 
ATOM     87  H37 non d ame     -30.503  12.156  28.723  0.00  0.00     0.046 H 
BRANCH  83  88
ATOM     88  O6  non d ame     -31.291  13.370  26.300  0.00  0.00    -0.369 OA
ATOM     89  H45 non d ame     -32.129  12.922  26.165  0.00  0.00     0.212 HD
ENDBRANCH  83  88
ENDBRANCH  72  75
ENDBRANCH  47  72
ENDBRANCH  45  47
ENDBRANCH   1  43
BRANCH   1  90
ATOM     90  C16 non d ame     -34.792   7.717  30.521  0.00  0.00    -0.035 C 
ATOM     91  H21 non d ame     -33.925   7.199  30.112  0.00  0.00     0.037 H 
ATOM     92  H22 non d ame     -34.654   8.600  31.146  0.00  0.00     0.037 H 
BRANCH  90  93
ATOM     93  C17 non d ame     -35.559   6.673  31.393  0.00  0.00    -0.059 C 
ATOM     94  H23 non d ame     -35.585   7.052  32.415  0.00  0.00     0.038 H 
BRANCH  93  95
ATOM     95  C18 non d ame     -37.035   6.480  30.919  0.00  0.00    -0.073 C 
ATOM     96  H24 non d ame     -37.685   7.159  31.469  0.00  0.00     0.028 H 
ATOM     97  H25 non d ame     -37.105   6.695  29.853  0.00  0.00     0.028 H 
ATOM     98  H26 non d ame     -37.344   5.451  31.103  0.00  0.00     0.028 H 
ENDBRANCH  93  95
BRANCH  93  99
ATOM     99  C19 non d ame     -34.817   5.335  31.423  0.00  0.00    -0.073 C 
ATOM    100  H27 non d ame     -34.632   4.999  30.402  0.00  0.00     0.028 H 
ATOM    101  H28 non d ame     -33.866   5.457  31.943  0.00  0.00     0.028 H 
ATOM    102  H29 non d ame     -35.422   4.595  31.945  0.00  0.00     0.028 H 
ENDBRANCH  93  99
ENDBRANCH  90  93
ENDBRANCH   1  90
TORSDOF 26
ENDMDL
MODEL 20
REMARK VINA RESULT:      -6.0      2.902      6.810
REMARK  26 active torsions:
REMARK  status: ('A' for Active; 'I' for Inactive)
REMARK    1  A    between atoms: C2_2  and  C3_3 
REMARK    2  A    between atoms: C4_6  and  C5_7 
REMARK       I    between atoms: C5_7  and  N2_9 
REMARK    3  A    between atoms: N2_9  and  C6_10 
REMARK    4  A    between atoms: C6_10  and  C7_11 
REMARK    5  A    between atoms: C6_10  and  C8_13 
REMARK       I    between atoms: C7_11  and  N3_14 
REMARK    6  A    between atoms: N3_14  and  C9_15 
REMARK    7  A    between atoms: C9_15  and  C10_16 
REMARK    8  A    between atoms: C9_15  and  C11_18 
REMARK       I    between atoms: C10_16  and  N4_21 
REMARK    9  A    between atoms: C11_18  and  C12_19 
REMARK   10  A    between atoms: C11_18  and  C13_20 
REMARK   11  A    between atoms: N4_21  and  C14_22 
REMARK   12  A    between atoms: C14_22  and  C15_23 
REMARK   13  A    between atoms: C14_22  and  C16_25 
REMARK       I    between atoms: C15_23  and  N6_40 
REMARK   14  A    between atoms: C16_25  and  C17_26 
REMARK   15  A    between atoms: C17_26  and  C18_27 
REMARK   16  A    between atoms: C17_26  and  C19_28 
REMARK   17  A    between atoms: C20_29  and  C21_30 
REMARK   18  A    between atoms: C20_29  and  C24_33 
REMARK   19  A    between atoms: C20_29  and  N6_40 
REMARK   20  A    between atoms: C21_30  and  C22_31 
REMARK   21  A    between atoms: C22_31  and  C23_32 
REMARK   22  A    between atoms: C23_32  and  O8_43 
REMARK   23  A    between atoms: C24_33  and  C25_34 
REMARK   24  A    between atoms: C28_38  and  O6_39 
REMARK   25  A    between atoms: C29_42  and  O8_43 
REMARK   26  A    between atoms: C29_42  and  C35_49 
ROOT
ATOM      1  C14 non d ame     -35.170   6.753  27.988  0.00  0.00     0.089 C 
ATOM      2  H20 non d ame     -34.743   6.170  28.805  0.00  0.00     0.087 H 
ENDROOT
BRANCH   1   3
ATOM      3  N4  non d ame     -35.312   8.124  28.457  0.00  0.00    -0.346 N 
ATOM      4  C10 non d ame     -35.390   8.420  29.933  0.00  0.00     0.241 C 
ATOM      5  O4  non d ame     -35.338   7.538  30.726  0.00  0.00    -0.271 OA
ATOM      6  H19 non d ame     -35.356   8.860  27.766  0.00  0.00     0.163 HD
BRANCH   4   7
ATOM      7  C9  non d ame     -35.531   9.845  30.400  0.00  0.00     0.092 C 
ATOM      8  H11 non d ame     -35.405   9.882  31.482  0.00  0.00     0.088 H 
BRANCH   7   9
ATOM      9  N3  non d ame     -34.463  10.660  29.813  0.00  0.00    -0.346 N 
ATOM     10  C7  non d ame     -33.363  11.105  30.632  0.00  0.00     0.240 C 
ATOM     11  O3  non d ame     -33.321  10.817  31.766  0.00  0.00    -0.271 OA
ATOM     12  H10 non d ame     -34.487  10.918  28.836  0.00  0.00     0.163 HD
BRANCH  10  13
ATOM     13  C6  non d ame     -32.231  11.975  30.001  0.00  0.00     0.086 C 
ATOM     14  H6  non d ame     -31.810  11.531  29.100  0.00  0.00     0.086 H 
BRANCH  13  15
ATOM     15  N2  non d ame     -32.787  13.260  29.611  0.00  0.00    -0.343 N 
ATOM     16  C5  non d ame     -32.011  14.148  28.743  0.00  0.00     0.273 C 
ATOM     17  O2  non d ame     -30.939  13.820  28.366  0.00  0.00    -0.266 OA
ATOM     18  H5  non d ame     -33.702  13.533  29.940  0.00  0.00     0.163 HD
BRANCH  16  19
ATOM     19  C4  non d ame     -32.586  15.509  28.321  0.00  0.00     0.154 A 
ATOM     20  C1  non d ame     -33.049  15.886  27.020  0.00  0.00    -0.017 A 
ATOM     21  C2  non d ame     -33.474  17.226  27.160  0.00  0.00     0.077 A 
ATOM     22  H1  non d ame     -33.072  15.281  26.114  0.00  0.00     0.091 H 
ATOM     23  O1  non d ame     -33.276  17.568  28.400  0.00  0.00    -0.218 OA
ATOM     24  N1  non d ame     -32.759  16.582  29.097  0.00  0.00    -0.123 NA
BRANCH  21  25
ATOM     25  C3  non d ame     -34.058  18.106  26.063  0.00  0.00    -0.029 C 
ATOM     26  H2  non d ame     -33.511  17.940  25.135  0.00  0.00     0.036 H 
ATOM     27  H3  non d ame     -35.108  17.855  25.916  0.00  0.00     0.036 H 
ATOM     28  H4  non d ame     -33.972  19.153  26.353  0.00  0.00     0.036 H 
ENDBRANCH  21  25
ENDBRANCH  16  19
ENDBRANCH  13  15
BRANCH  13  29
ATOM     29  C8  non d ame     -31.127  12.174  31.008  0.00  0.00    -0.049 C 
ATOM     30  H7  non d ame     -30.200  11.754  30.618  0.00  0.00     0.030 H 
ATOM     31  H8  non d ame     -30.993  13.240  31.194  0.00  0.00     0.030 H 
ATOM     32  H9  non d ame     -31.389  11.673  31.940  0.00  0.00     0.030 H 
ENDBRANCH  13  29
ENDBRANCH  10  13
ENDBRANCH   7   9
BRANCH   7  33
ATOM     33  C11 non d ame     -36.913  10.403  29.952  0.00  0.00    -0.033 C 
ATOM     34  H12 non d ame     -37.091  11.325  30.505  0.00  0.00     0.042 H 
BRANCH  33  35
ATOM     35  C12 non d ame     -36.916  10.761  28.432  0.00  0.00    -0.071 C 
ATOM     36  H13 non d ame     -37.943  10.809  28.072  0.00  0.00     0.028 H 
ATOM     37  H14 non d ame     -36.433  11.726  28.286  0.00  0.00     0.028 H 
ATOM     38  H15 non d ame     -36.373   9.995  27.878  0.00  0.00     0.028 H 
ENDBRANCH  33  35
BRANCH  33  39
ATOM     39  C13 non d ame     -38.061   9.402  30.300  0.00  0.00    -0.071 C 
ATOM     40  H16 non d ame     -37.701   8.677  31.030  0.00  0.00     0.028 H 
ATOM     41  H17 non d ame     -38.907   9.949  30.717  0.00  0.00     0.028 H 
ATOM     42  H18 non d ame     -38.376   8.882  29.395  0.00  0.00     0.028 H 
ENDBRANCH  33  39
ENDBRANCH   7  33
ENDBRANCH   4   7
ENDBRANCH   1   3
BRANCH   1  43
ATOM     43  C15 non d ame     -34.259   6.752  26.727  0.00  0.00     0.240 C 
ATOM     44  O5  non d ame     -33.237   6.146  26.737  0.00  0.00    -0.271 OA
ATOM     45  N6  non d ame     -34.665   7.501  25.504  0.00  0.00    -0.355 N 
ATOM     46  H46 non d ame     -35.533   8.016  25.482  0.00  0.00     0.162 HD
BRANCH  45  47
ATOM     47  C20 non d ame     -33.788   7.489  24.313  0.00  0.00     0.013 C 
ATOM     48  H30 non d ame     -32.936   6.846  24.530  0.00  0.00     0.072 H 
BRANCH  47  49
ATOM     49  C21 non d ame     -33.314   8.896  24.028  0.00  0.00    -0.038 C 
ATOM     50  H31 non d ame     -32.366   9.000  24.556  0.00  0.00     0.036 H 
ATOM     51  H32 non d ame     -33.349   9.005  22.944  0.00  0.00     0.036 H 
BRANCH  49  52
ATOM     52  C22 non d ame     -34.256   9.975  24.605  0.00  0.00     0.018 C 
ATOM     53  H33 non d ame     -34.328  10.745  23.838  0.00  0.00     0.048 H 
ATOM     54  H34 non d ame     -35.151   9.443  24.930  0.00  0.00     0.048 H 
BRANCH  52  55
ATOM     55  C23 non d ame     -33.696  10.683  25.871  0.00  0.00     0.259 C 
ATOM     56  O7  non d ame     -33.832  10.193  26.945  0.00  0.00    -0.265 OA
BRANCH  55  57
ATOM     57  O8  non d ame     -33.030  11.932  25.733  0.00  0.00    -0.317 OA
BRANCH  57  58
ATOM     58  C29 non d ame     -31.606  11.848  25.845  0.00  0.00     0.052 C 
ATOM     59  H47 non d ame     -31.333  12.533  26.647  0.00  0.00     0.082 H 
ATOM     60  H48 non d ame     -31.380  10.785  25.934  0.00  0.00     0.082 H 
BRANCH  58  61
ATOM     61  C35 non d ame     -30.990  12.371  24.520  0.00  0.00    -0.034 A 
ATOM     62  C30 non d ame     -30.493  11.474  23.581  0.00  0.00    -0.075 A 
ATOM     63  C31 non d ame     -29.939  11.944  22.391  0.00  0.00    -0.082 A 
ATOM     64  H49 non d ame     -30.537  10.402  23.776  0.00  0.00     0.084 H 
ATOM     65  C32 non d ame     -29.881  13.318  22.143  0.00  0.00    -0.083 A 
ATOM     66  H50 non d ame     -29.552  11.238  21.656  0.00  0.00     0.083 H 
ATOM     67  C33 non d ame     -30.375  14.210  23.085  0.00  0.00    -0.082 A 
ATOM     68  H51 non d ame     -29.450  13.694  21.215  0.00  0.00     0.083 H 
ATOM     69  C34 non d ame     -30.931  13.744  24.275  0.00  0.00    -0.075 A 
ATOM     70  H52 non d ame     -30.326  15.282  22.890  0.00  0.00     0.083 H 
ATOM     71  H53 non d ame     -31.319  14.451  25.010  0.00  0.00     0.084 H 
ENDBRANCH  58  61
ENDBRANCH  57  58
ENDBRANCH  55  57
ENDBRANCH  52  55
ENDBRANCH  49  52
ENDBRANCH  47  49
BRANCH  47  72
ATOM     72  C24 non d ame     -34.561   6.958  23.108  0.00  0.00    -0.039 C 
ATOM     73  H35 non d ame     -35.328   6.301  23.521  0.00  0.00     0.036 H 
ATOM     74  H36 non d ame     -34.851   7.840  22.537  0.00  0.00     0.036 H 
BRANCH  72  75
ATOM     75  C25 non d ame     -33.634   6.062  22.157  0.00  0.00    -0.001 C 
ATOM     76  C26 non d ame     -32.187   5.783  22.887  0.00  0.00    -0.035 C 
ATOM     77  C27 non d ame     -31.194   6.111  22.027  0.00  0.00     0.085 C 
ATOM     78  H38 non d ame     -32.047   6.478  23.715  0.00  0.00     0.036 H 
ATOM     79  H39 non d ame     -32.047   4.713  23.043  0.00  0.00     0.036 H 
ATOM     80  N5  non d ame     -31.826   6.894  20.901  0.00  0.00    -0.049 N 
ATOM     81  H40 non d ame     -30.529   6.768  22.587  0.00  0.00     0.075 H 
ATOM     82  H41 non d ame     -30.823   5.164  21.636  0.00  0.00     0.075 H 
ATOM     83  C28 non d ame     -33.416   6.649  21.028  0.00  0.00     0.193 C 
ATOM     84  H42 non d ame     -31.634   7.868  21.087  0.00  0.00     0.280 HD
ATOM     85  H43 non d ame     -31.503   6.470  20.043  0.00  0.00     0.280 HD
ATOM     86  H44 non d ame     -33.928   5.968  20.348  0.00  0.00     0.129 H 
ATOM     87  H37 non d ame     -34.164   5.196  21.761  0.00  0.00     0.046 H 
BRANCH  83  88
ATOM     88  O6  non d ame     -34.116   7.891  20.923  0.00  0.00    -0.369 OA
ATOM     89  H45 non d ame     -34.818   7.808  20.273  0.00  0.00     0.212 HD
ENDBRANCH  83  88
ENDBRANCH  72  75
ENDBRANCH  47  72
ENDBRANCH  45  47
ENDBRANCH   1  43
BRANCH   1  90
ATOM     90  C16 non d ame     -36.542   6.208  27.628  0.00  0.00    -0.035 C 
ATOM     91  H21 non d ame     -37.250   6.974  27.942  0.00  0.00     0.037 H 
ATOM     92  H22 non d ame     -36.474   5.927  26.576  0.00  0.00     0.037 H 
BRANCH  90  93
ATOM     93  C17 non d ame     -36.925   4.909  28.407  0.00  0.00    -0.059 C 
ATOM     94  H23 non d ame     -36.148   4.728  29.149  0.00  0.00     0.038 H 
BRANCH  93  95
ATOM     95  C18 non d ame     -38.283   5.056  29.166  0.00  0.00    -0.073 C 
ATOM     96  H24 non d ame     -39.091   4.673  28.543  0.00  0.00     0.028 H 
ATOM     97  H25 non d ame     -38.243   4.490  30.096  0.00  0.00     0.028 H 
ATOM     98  H26 non d ame     -38.463   6.108  29.388  0.00  0.00     0.028 H 
ENDBRANCH  93  95
BRANCH  93  99
ATOM     99  C19 non d ame     -36.952   3.698  27.472  0.00  0.00    -0.073 C 
ATOM    100  H27 non d ame     -37.473   2.873  27.960  0.00  0.00     0.028 H 
ATOM    101  H28 non d ame     -37.472   3.961  26.550  0.00  0.00     0.028 H 
ATOM    102  H29 non d ame     -35.931   3.396  27.239  0.00  0.00     0.028 H 
ENDBRANCH  93  99
ENDBRANCH  90  93
ENDBRANCH   1  90
TORSDOF 26
ENDMDL
