MODEL 1
REMARK VINA RESULT:      -6.8      0.000      0.000
REMARK  26 active torsions:
REMARK  status: ('A' for Active; 'I' for Inactive)
REMARK    1  A    between atoms: C2_2  and  C3_3 
REMARK    2  A    between atoms: C4_6  and  C5_7 
REMARK       I    between atoms: C5_7  and  N2_9 
REMARK    3  A    between atoms: N2_9  and  C6_10 
REMARK    4  A    between atoms: C6_10  and  C7_11 
REMARK    5  A    between atoms: C6_10  and  C8_13 
REMARK       I    between atoms: C7_11  and  N3_14 
REMARK    6  A    between atoms: N3_14  and  C9_15 
REMARK    7  A    between atoms: C9_15  and  C10_16 
REMARK    8  A    between atoms: C9_15  and  C11_18 
REMARK       I    between atoms: C10_16  and  N4_21 
REMARK    9  A    between atoms: C11_18  and  C12_19 
REMARK   10  A    between atoms: C11_18  and  C13_20 
REMARK   11  A    between atoms: N4_21  and  C14_22 
REMARK   12  A    between atoms: C14_22  and  C15_23 
REMARK   13  A    between atoms: C14_22  and  C16_25 
REMARK       I    between atoms: C15_23  and  N6_40 
REMARK   14  A    between atoms: C16_25  and  C17_26 
REMARK   15  A    between atoms: C17_26  and  C18_27 
REMARK   16  A    between atoms: C17_26  and  C19_28 
REMARK   17  A    between atoms: C20_29  and  C21_30 
REMARK   18  A    between atoms: C20_29  and  C24_33 
REMARK   19  A    between atoms: C20_29  and  N6_40 
REMARK   20  A    between atoms: C21_30  and  C22_31 
REMARK   21  A    between atoms: C22_31  and  C23_32 
REMARK   22  A    between atoms: C23_32  and  O8_43 
REMARK   23  A    between atoms: C24_33  and  C25_34 
REMARK   24  A    between atoms: C28_38  and  O6_39 
REMARK   25  A    between atoms: C29_42  and  O8_43 
REMARK   26  A    between atoms: C29_42  and  C35_49 
ROOT
ATOM      1  C14 non d ame     -31.161  14.153  24.565  0.00  0.00     0.089 C 
ATOM      2  H20 non d ame     -30.202  13.690  24.800  0.00  0.00     0.087 H 
ENDROOT
BRANCH   1   3
ATOM      3  N4  non d ame     -32.191  13.138  24.732  0.00  0.00    -0.346 N 
ATOM      4  C10 non d ame     -31.984  11.994  25.692  0.00  0.00     0.241 C 
ATOM      5  O4  non d ame     -30.978  11.910  26.318  0.00  0.00    -0.271 OA
ATOM      6  H19 non d ame     -33.038  13.227  24.188  0.00  0.00     0.163 HD
BRANCH   4   7
ATOM      7  C9  non d ame     -33.062  10.956  25.857  0.00  0.00     0.092 C 
ATOM      8  H11 non d ame     -33.186  10.733  26.917  0.00  0.00     0.088 H 
BRANCH   7   9
ATOM      9  N3  non d ame     -34.338  11.495  25.376  0.00  0.00    -0.346 N 
ATOM     10  C7  non d ame     -35.286  12.046  26.312  0.00  0.00     0.240 C 
ATOM     11  O3  non d ame     -35.040  12.063  27.456  0.00  0.00    -0.271 OA
ATOM     12  H10 non d ame     -34.565  11.486  24.392  0.00  0.00     0.163 HD
BRANCH  10  13
ATOM     13  C6  non d ame     -36.643  12.616  25.794  0.00  0.00     0.086 C 
ATOM     14  H6  non d ame     -37.506  12.133  26.253  0.00  0.00     0.086 H 
BRANCH  13  15
ATOM     15  N2  non d ame     -36.725  14.026  26.137  0.00  0.00    -0.343 N 
ATOM     16  C5  non d ame     -38.036  14.673  26.223  0.00  0.00     0.273 C 
ATOM     17  O2  non d ame     -39.018  14.051  26.012  0.00  0.00    -0.266 OA
ATOM     18  H5  non d ame     -35.879  14.550  26.313  0.00  0.00     0.163 HD
BRANCH  16  19
ATOM     19  C4  non d ame     -38.137  16.163  26.586  0.00  0.00     0.154 A 
ATOM     20  C1  non d ame     -38.397  17.254  25.697  0.00  0.00    -0.017 A 
ATOM     21  C2  non d ame     -38.388  18.402  26.520  0.00  0.00     0.077 A 
ATOM     22  H1  non d ame     -38.566  17.217  24.621  0.00  0.00     0.091 H 
ATOM     23  O1  non d ame     -38.151  18.006  27.736  0.00  0.00    -0.218 OA
ATOM     24  N1  non d ame     -38.000  16.704  27.800  0.00  0.00    -0.123 NA
BRANCH  21  25
ATOM     25  C3  non d ame     -38.615  19.838  26.065  0.00  0.00    -0.029 C 
ATOM     26  H2  non d ame     -38.689  19.868  24.978  0.00  0.00     0.036 H 
ATOM     27  H3  non d ame     -39.539  20.215  26.503  0.00  0.00     0.036 H 
ATOM     28  H4  non d ame     -37.780  20.458  26.389  0.00  0.00     0.036 H 
ENDBRANCH  21  25
ENDBRANCH  16  19
ENDBRANCH  13  15
BRANCH  13  29
ATOM     29  C8  non d ame     -36.726  12.442  24.299  0.00  0.00    -0.049 C 
ATOM     30  H7  non d ame     -37.550  13.040  23.909  0.00  0.00     0.030 H 
ATOM     31  H8  non d ame     -35.792  12.770  23.843  0.00  0.00     0.030 H 
ATOM     32  H9  non d ame     -36.897  11.391  24.064  0.00  0.00     0.030 H 
ENDBRANCH  13  29
ENDBRANCH  10  13
ENDBRANCH   7   9
BRANCH   7  33
ATOM     33  C11 non d ame     -32.693   9.689  25.031  0.00  0.00    -0.033 C 
ATOM     34  H12 non d ame     -31.705   9.854  24.601  0.00  0.00     0.042 H 
BRANCH  33  35
ATOM     35  C12 non d ame     -32.603   8.424  25.940  0.00  0.00    -0.071 C 
ATOM     36  H13 non d ame     -32.096   8.680  26.871  0.00  0.00     0.028 H 
ATOM     37  H14 non d ame     -33.607   8.064  26.162  0.00  0.00     0.028 H 
ATOM     38  H15 non d ame     -32.042   7.645  25.424  0.00  0.00     0.028 H 
ENDBRANCH  33  35
BRANCH  33  39
ATOM     39  C13 non d ame     -33.701   9.473  23.858  0.00  0.00    -0.071 C 
ATOM     40  H16 non d ame     -33.185   9.602  22.906  0.00  0.00     0.028 H 
ATOM     41  H17 non d ame     -34.114   8.465  23.914  0.00  0.00     0.028 H 
ATOM     42  H18 non d ame     -34.510  10.200  23.935  0.00  0.00     0.028 H 
ENDBRANCH  33  39
ENDBRANCH   7  33
ENDBRANCH   4   7
ENDBRANCH   1   3
BRANCH   1  43
ATOM     43  C15 non d ame     -31.484  15.347  25.508  0.00  0.00     0.240 C 
ATOM     44  O5  non d ame     -30.989  16.409  25.309  0.00  0.00    -0.271 OA
ATOM     45  N6  non d ame     -32.418  15.168  26.656  0.00  0.00    -0.355 N 
ATOM     46  H46 non d ame     -32.849  14.272  26.833  0.00  0.00     0.162 HD
BRANCH  45  47
ATOM     47  C20 non d ame     -32.717  16.313  27.544  0.00  0.00     0.013 C 
ATOM     48  H30 non d ame     -32.059  17.136  27.262  0.00  0.00     0.072 H 
BRANCH  47  49
ATOM     49  C21 non d ame     -32.458  15.913  28.979  0.00  0.00    -0.038 C 
ATOM     50  H31 non d ame     -31.427  16.203  29.184  0.00  0.00     0.036 H 
ATOM     51  H32 non d ame     -33.273  16.350  29.557  0.00  0.00     0.036 H 
BRANCH  49  52
ATOM     52  C22 non d ame     -32.535  14.387  29.199  0.00  0.00     0.018 C 
ATOM     53  H33 non d ame     -32.944  14.254  30.200  0.00  0.00     0.048 H 
ATOM     54  H34 non d ame     -33.069  13.991  28.335  0.00  0.00     0.048 H 
BRANCH  52  55
ATOM     55  C23 non d ame     -31.149  13.684  29.205  0.00  0.00     0.259 C 
ATOM     56  O7  non d ame     -30.197  14.224  28.743  0.00  0.00    -0.265 OA
BRANCH  55  57
ATOM     57  O8  non d ame     -31.032  12.380  29.760  0.00  0.00    -0.317 OA
BRANCH  57  58
ATOM     58  C29 non d ame     -31.774  12.192  30.969  0.00  0.00     0.052 C 
ATOM     59  H47 non d ame     -31.074  11.753  31.679  0.00  0.00     0.082 H 
ATOM     60  H48 non d ame     -32.237  13.155  31.184  0.00  0.00     0.082 H 
BRANCH  58  61
ATOM     61  C35 non d ame     -32.899  11.161  30.685  0.00  0.00    -0.034 A 
ATOM     62  C30 non d ame     -32.816  10.328  29.574  0.00  0.00    -0.075 A 
ATOM     63  C31 non d ame     -33.826   9.401  29.319  0.00  0.00    -0.082 A 
ATOM     64  H49 non d ame     -31.960  10.401  28.903  0.00  0.00     0.084 H 
ATOM     65  C32 non d ame     -34.924   9.311  30.178  0.00  0.00    -0.083 A 
ATOM     66  H50 non d ame     -33.757   8.749  28.448  0.00  0.00     0.083 H 
ATOM     67  C33 non d ame     -35.004  10.147  31.284  0.00  0.00    -0.082 A 
ATOM     68  H51 non d ame     -35.717   8.590  29.986  0.00  0.00     0.083 H 
ATOM     69  C34 non d ame     -33.996  11.073  31.544  0.00  0.00    -0.075 A 
ATOM     70  H52 non d ame     -35.863  10.076  31.951  0.00  0.00     0.083 H 
ATOM     71  H53 non d ame     -34.065  11.725  32.415  0.00  0.00     0.084 H 
ENDBRANCH  58  61
ENDBRANCH  57  58
ENDBRANCH  55  57
ENDBRANCH  52  55
ENDBRANCH  49  52
ENDBRANCH  47  49
BRANCH  47  72
ATOM     72  C24 non d ame     -34.179  16.723  27.384  0.00  0.00    -0.039 C 
ATOM     73  H35 non d ame     -34.580  16.071  26.608  0.00  0.00     0.036 H 
ATOM     74  H36 non d ame     -34.599  16.696  28.389  0.00  0.00     0.036 H 
BRANCH  72  75
ATOM     75  C25 non d ame     -34.318  18.229  26.854  0.00  0.00    -0.001 C 
ATOM     76  C26 non d ame     -32.827  18.899  26.674  0.00  0.00    -0.035 C 
ATOM     77  C27 non d ame     -32.803  20.089  27.321  0.00  0.00     0.085 C 
ATOM     78  H38 non d ame     -32.084  18.305  27.206  0.00  0.00     0.036 H 
ATOM     79  H39 non d ame     -32.663  19.172  25.632  0.00  0.00     0.036 H 
ATOM     80  N5  non d ame     -34.031  20.140  28.197  0.00  0.00    -0.049 N 
ATOM     81  H40 non d ame     -31.915  20.058  27.953  0.00  0.00     0.075 H 
ATOM     82  H41 non d ame     -32.891  20.845  26.542  0.00  0.00     0.075 H 
ATOM     83  C28 non d ame     -34.996  18.954  27.679  0.00  0.00     0.193 C 
ATOM     84  H42 non d ame     -33.724  19.919  29.134  0.00  0.00     0.280 HD
ATOM     85  H43 non d ame     -34.479  21.025  28.009  0.00  0.00     0.280 HD
ATOM     86  H44 non d ame     -35.872  19.179  27.071  0.00  0.00     0.129 H 
ATOM     87  H37 non d ame     -35.002  18.307  26.009  0.00  0.00     0.046 H 
BRANCH  83  88
ATOM     88  O6  non d ame     -35.484  18.196  28.788  0.00  0.00    -0.369 OA
ATOM     89  H45 non d ame     -36.054  18.749  29.328  0.00  0.00     0.212 HD
ENDBRANCH  83  88
ENDBRANCH  72  75
ENDBRANCH  47  72
ENDBRANCH  45  47
ENDBRANCH   1  43
BRANCH   1  90
ATOM     90  C16 non d ame     -31.163  14.628  23.120  0.00  0.00    -0.035 C 
ATOM     91  H21 non d ame     -31.742  13.886  22.573  0.00  0.00     0.037 H 
ATOM     92  H22 non d ame     -31.501  15.664  23.158  0.00  0.00     0.037 H 
BRANCH  90  93
ATOM     93  C17 non d ame     -29.745  14.650  22.466  0.00  0.00    -0.059 C 
ATOM     94  H23 non d ame     -29.025  14.902  23.245  0.00  0.00     0.038 H 
BRANCH  93  95
ATOM     95  C18 non d ame     -29.345  13.259  21.880  0.00  0.00    -0.073 C 
ATOM     96  H24 non d ame     -29.456  13.275  20.796  0.00  0.00     0.028 H 
ATOM     97  H25 non d ame     -28.308  13.041  22.135  0.00  0.00     0.028 H 
ATOM     98  H26 non d ame     -29.991  12.488  22.300  0.00  0.00     0.028 H 
ENDBRANCH  93  95
BRANCH  93  99
ATOM     99  C19 non d ame     -29.654  15.739  21.394  0.00  0.00    -0.073 C 
ATOM    100  H27 non d ame     -28.693  16.247  21.472  0.00  0.00     0.028 H 
ATOM    101  H28 non d ame     -29.747  15.287  20.407  0.00  0.00     0.028 H 
ATOM    102  H29 non d ame     -30.459  16.460  21.539  0.00  0.00     0.028 H 
ENDBRANCH  93  99
ENDBRANCH  90  93
ENDBRANCH   1  90
TORSDOF 26
ENDMDL
MODEL 2
REMARK VINA RESULT:      -6.7      1.816      2.883
REMARK  26 active torsions:
REMARK  status: ('A' for Active; 'I' for Inactive)
REMARK    1  A    between atoms: C2_2  and  C3_3 
REMARK    2  A    between atoms: C4_6  and  C5_7 
REMARK       I    between atoms: C5_7  and  N2_9 
REMARK    3  A    between atoms: N2_9  and  C6_10 
REMARK    4  A    between atoms: C6_10  and  C7_11 
REMARK    5  A    between atoms: C6_10  and  C8_13 
REMARK       I    between atoms: C7_11  and  N3_14 
REMARK    6  A    between atoms: N3_14  and  C9_15 
REMARK    7  A    between atoms: C9_15  and  C10_16 
REMARK    8  A    between atoms: C9_15  and  C11_18 
REMARK       I    between atoms: C10_16  and  N4_21 
REMARK    9  A    between atoms: C11_18  and  C12_19 
REMARK   10  A    between atoms: C11_18  and  C13_20 
REMARK   11  A    between atoms: N4_21  and  C14_22 
REMARK   12  A    between atoms: C14_22  and  C15_23 
REMARK   13  A    between atoms: C14_22  and  C16_25 
REMARK       I    between atoms: C15_23  and  N6_40 
REMARK   14  A    between atoms: C16_25  and  C17_26 
REMARK   15  A    between atoms: C17_26  and  C18_27 
REMARK   16  A    between atoms: C17_26  and  C19_28 
REMARK   17  A    between atoms: C20_29  and  C21_30 
REMARK   18  A    between atoms: C20_29  and  C24_33 
REMARK   19  A    between atoms: C20_29  and  N6_40 
REMARK   20  A    between atoms: C21_30  and  C22_31 
REMARK   21  A    between atoms: C22_31  and  C23_32 
REMARK   22  A    between atoms: C23_32  and  O8_43 
REMARK   23  A    between atoms: C24_33  and  C25_34 
REMARK   24  A    between atoms: C28_38  and  O6_39 
REMARK   25  A    between atoms: C29_42  and  O8_43 
REMARK   26  A    between atoms: C29_42  and  C35_49 
ROOT
ATOM      1  C14 non d ame     -30.890  14.235  24.289  0.00  0.00     0.089 C 
ATOM      2  H20 non d ame     -29.802  14.158  24.279  0.00  0.00     0.087 H 
ENDROOT
BRANCH   1   3
ATOM      3  N4  non d ame     -31.422  12.901  24.522  0.00  0.00    -0.346 N 
ATOM      4  C10 non d ame     -30.884  11.721  23.751  0.00  0.00     0.241 C 
ATOM      5  O4  non d ame     -30.026  11.871  22.946  0.00  0.00    -0.271 OA
ATOM      6  H19 non d ame     -32.154  12.794  25.210  0.00  0.00     0.163 HD
BRANCH   4   7
ATOM      7  C9  non d ame     -31.443  10.346  24.009  0.00  0.00     0.092 C 
ATOM      8  H11 non d ame     -30.845   9.855  24.777  0.00  0.00     0.088 H 
BRANCH   7   9
ATOM      9  N3  non d ame     -32.808  10.463  24.531  0.00  0.00    -0.346 N 
ATOM     10  C7  non d ame     -33.114   9.989  25.858  0.00  0.00     0.240 C 
ATOM     11  O3  non d ame     -32.275   9.511  26.520  0.00  0.00    -0.271 OA
ATOM     12  H10 non d ame     -33.542  10.871  23.971  0.00  0.00     0.163 HD
BRANCH  10  13
ATOM     13  C6  non d ame     -34.570  10.113  26.407  0.00  0.00     0.086 C 
ATOM     14  H6  non d ame     -34.603  10.462  27.439  0.00  0.00     0.086 H 
BRANCH  13  15
ATOM     15  N2  non d ame     -35.291  11.093  25.612  0.00  0.00    -0.343 N 
ATOM     16  C5  non d ame     -35.850  12.280  26.264  0.00  0.00     0.273 C 
ATOM     17  O2  non d ame     -35.716  12.435  27.428  0.00  0.00    -0.266 OA
ATOM     18  H5  non d ame     -35.403  10.951  24.619  0.00  0.00     0.163 HD
BRANCH  16  19
ATOM     19  C4  non d ame     -36.614  13.325  25.436  0.00  0.00     0.154 A 
ATOM     20  C1  non d ame     -36.958  13.246  24.049  0.00  0.00    -0.017 A 
ATOM     21  C2  non d ame     -37.649  14.448  23.777  0.00  0.00     0.077 A 
ATOM     22  H1  non d ame     -36.741  12.440  23.348  0.00  0.00     0.091 H 
ATOM     23  O1  non d ame     -37.691  15.130  24.885  0.00  0.00    -0.218 OA
ATOM     24  N1  non d ame     -37.094  14.495  25.867  0.00  0.00    -0.123 NA
BRANCH  21  25
ATOM     25  C3  non d ame     -38.235  14.868  22.436  0.00  0.00    -0.029 C 
ATOM     26  H2  non d ame     -38.358  15.950  22.415  0.00  0.00     0.036 H 
ATOM     27  H3  non d ame     -37.562  14.563  21.635  0.00  0.00     0.036 H 
ATOM     28  H4  non d ame     -39.204  14.389  22.297  0.00  0.00     0.036 H 
ENDBRANCH  21  25
ENDBRANCH  16  19
ENDBRANCH  13  15
BRANCH  13  29
ATOM     29  C8  non d ame     -35.257   8.774  26.323  0.00  0.00    -0.049 C 
ATOM     30  H7  non d ame     -34.594   8.055  25.842  0.00  0.00     0.030 H 
ATOM     31  H8  non d ame     -35.500   8.427  27.328  0.00  0.00     0.030 H 
ATOM     32  H9  non d ame     -36.173   8.871  25.740  0.00  0.00     0.030 H 
ENDBRANCH  13  29
ENDBRANCH  10  13
ENDBRANCH   7   9
BRANCH   7  33
ATOM     33  C11 non d ame     -31.466   9.538  22.679  0.00  0.00    -0.033 C 
ATOM     34  H12 non d ame     -31.299  10.242  21.864  0.00  0.00     0.042 H 
BRANCH  33  35
ATOM     35  C12 non d ame     -30.314   8.485  22.633  0.00  0.00    -0.071 C 
ATOM     36  H13 non d ame     -30.614   7.594  23.185  0.00  0.00     0.028 H 
ATOM     37  H14 non d ame     -30.107   8.219  21.597  0.00  0.00     0.028 H 
ATOM     38  H15 non d ame     -29.418   8.908  23.087  0.00  0.00     0.028 H 
ENDBRANCH  33  35
BRANCH  33  39
ATOM     39  C13 non d ame     -32.858   8.864  22.458  0.00  0.00    -0.071 C 
ATOM     40  H16 non d ame     -33.645   9.536  22.800  0.00  0.00     0.028 H 
ATOM     41  H17 non d ame     -32.996   8.653  21.397  0.00  0.00     0.028 H 
ATOM     42  H18 non d ame     -32.904   7.932  23.022  0.00  0.00     0.028 H 
ENDBRANCH  33  39
ENDBRANCH   7  33
ENDBRANCH   4   7
ENDBRANCH   1   3
BRANCH   1  43
ATOM     43  C15 non d ame     -31.402  15.176  25.417  0.00  0.00     0.240 C 
ATOM     44  O5  non d ame     -31.198  16.345  25.349  0.00  0.00    -0.271 OA
ATOM     45  N6  non d ame     -32.154  14.621  26.578  0.00  0.00    -0.355 N 
ATOM     46  H46 non d ame     -32.337  13.630  26.644  0.00  0.00     0.162 HD
BRANCH  45  47
ATOM     47  C20 non d ame     -32.635  15.529  27.641  0.00  0.00     0.013 C 
ATOM     48  H30 non d ame     -32.161  16.499  27.493  0.00  0.00     0.072 H 
BRANCH  47  49
ATOM     49  C21 non d ame     -32.250  14.966  28.991  0.00  0.00    -0.038 C 
ATOM     50  H31 non d ame     -31.188  15.182  29.108  0.00  0.00     0.036 H 
ATOM     51  H32 non d ame     -32.972  15.377  29.697  0.00  0.00     0.036 H 
BRANCH  49  52
ATOM     52  C22 non d ame     -32.394  13.431  29.063  0.00  0.00     0.018 C 
ATOM     53  H33 non d ame     -33.429  13.244  29.348  0.00  0.00     0.048 H 
ATOM     54  H34 non d ame     -32.014  13.054  28.113  0.00  0.00     0.048 H 
BRANCH  52  55
ATOM     55  C23 non d ame     -31.520  12.771  30.165  0.00  0.00     0.259 C 
ATOM     56  O7  non d ame     -30.665  13.391  30.708  0.00  0.00    -0.265 OA
BRANCH  55  57
ATOM     57  O8  non d ame     -31.746  11.409  30.511  0.00  0.00    -0.317 OA
BRANCH  57  58
ATOM     58  C29 non d ame     -32.812  10.793  29.784  0.00  0.00     0.052 C 
ATOM     59  H47 non d ame     -33.264  11.588  29.191  0.00  0.00     0.082 H 
ATOM     60  H48 non d ame     -32.371   9.928  29.289  0.00  0.00     0.082 H 
BRANCH  58  61
ATOM     61  C35 non d ame     -33.862  10.288  30.809  0.00  0.00    -0.034 A 
ATOM     62  C30 non d ame     -34.253  11.105  31.865  0.00  0.00    -0.075 A 
ATOM     63  C31 non d ame     -35.196  10.652  32.787  0.00  0.00    -0.082 A 
ATOM     64  H49 non d ame     -33.821  12.101  31.971  0.00  0.00     0.084 H 
ATOM     65  C32 non d ame     -35.747   9.375  32.651  0.00  0.00    -0.083 A 
ATOM     66  H50 non d ame     -35.502  11.296  33.612  0.00  0.00     0.083 H 
ATOM     67  C33 non d ame     -35.351   8.562  31.598  0.00  0.00    -0.082 A 
ATOM     68  H51 non d ame     -36.485   9.013  33.367  0.00  0.00     0.083 H 
ATOM     69  C34 non d ame     -34.410   9.011  30.673  0.00  0.00    -0.075 A 
ATOM     70  H52 non d ame     -35.780   7.565  31.496  0.00  0.00     0.083 H 
ATOM     71  H53 non d ame     -34.105   8.367  29.848  0.00  0.00     0.084 H 
ENDBRANCH  58  61
ENDBRANCH  57  58
ENDBRANCH  55  57
ENDBRANCH  52  55
ENDBRANCH  49  52
ENDBRANCH  47  49
BRANCH  47  72
ATOM     72  C24 non d ame     -34.154  15.663  27.558  0.00  0.00    -0.039 C 
ATOM     73  H35 non d ame     -34.455  15.034  26.720  0.00  0.00     0.036 H 
ATOM     74  H36 non d ame     -34.520  15.444  28.561  0.00  0.00     0.036 H 
BRANCH  72  75
ATOM     75  C25 non d ame     -34.599  17.161  27.209  0.00  0.00    -0.001 C 
ATOM     76  C26 non d ame     -35.904  17.584  28.117  0.00  0.00    -0.035 C 
ATOM     77  C27 non d ame     -36.866  18.072  27.297  0.00  0.00     0.085 C 
ATOM     78  H38 non d ame     -36.363  16.694  28.548  0.00  0.00     0.036 H 
ATOM     79  H39 non d ame     -35.657  18.433  28.754  0.00  0.00     0.036 H 
ATOM     80  N5  non d ame     -36.465  17.717  25.886  0.00  0.00    -0.049 N 
ATOM     81  H40 non d ame     -37.773  17.526  27.557  0.00  0.00     0.075 H 
ATOM     82  H41 non d ame     -36.828  19.154  27.416  0.00  0.00     0.075 H 
ATOM     83  C28 non d ame     -34.914  17.277  25.962  0.00  0.00     0.193 C 
ATOM     84  H42 non d ame     -37.015  16.912  25.625  0.00  0.00     0.280 HD
ATOM     85  H43 non d ame     -36.532  18.570  25.348  0.00  0.00     0.280 HD
ATOM     86  H44 non d ame     -34.129  17.953  25.622  0.00  0.00     0.129 H 
ATOM     87  H37 non d ame     -33.756  17.852  27.202  0.00  0.00     0.046 H 
BRANCH  83  88
ATOM     88  O6  non d ame     -34.710  16.062  25.240  0.00  0.00    -0.369 OA
ATOM     89  H45 non d ame     -34.919  15.314  25.805  0.00  0.00     0.212 HD
ENDBRANCH  83  88
ENDBRANCH  72  75
ENDBRANCH  47  72
ENDBRANCH  45  47
ENDBRANCH   1  43
BRANCH   1  90
ATOM     90  C16 non d ame     -31.383  14.737  22.941  0.00  0.00    -0.035 C 
ATOM     91  H21 non d ame     -31.646  13.842  22.378  0.00  0.00     0.037 H 
ATOM     92  H22 non d ame     -32.147  15.480  23.172  0.00  0.00     0.037 H 
BRANCH  90  93
ATOM     93  C17 non d ame     -30.287  15.475  22.108  0.00  0.00    -0.059 C 
ATOM     94  H23 non d ame     -30.467  16.546  22.199  0.00  0.00     0.038 H 
BRANCH  93  95
ATOM     95  C18 non d ame     -28.847  15.187  22.642  0.00  0.00    -0.073 C 
ATOM     96  H24 non d ame     -28.315  14.556  21.931  0.00  0.00     0.028 H 
ATOM     97  H25 non d ame     -28.310  16.127  22.765  0.00  0.00     0.028 H 
ATOM     98  H26 non d ame     -28.912  14.677  23.603  0.00  0.00     0.028 H 
ENDBRANCH  93  95
BRANCH  93  99
ATOM     99  C19 non d ame     -30.398  15.120  20.623  0.00  0.00    -0.073 C 
ATOM    100  H27 non d ame     -29.474  14.645  20.293  0.00  0.00     0.028 H 
ATOM    101  H28 non d ame     -31.232  14.434  20.474  0.00  0.00     0.028 H 
ATOM    102  H29 non d ame     -30.567  16.028  20.044  0.00  0.00     0.028 H 
ENDBRANCH  93  99
ENDBRANCH  90  93
ENDBRANCH   1  90
TORSDOF 26
ENDMDL
MODEL 3
REMARK VINA RESULT:      -6.6      2.016      5.913
REMARK  26 active torsions:
REMARK  status: ('A' for Active; 'I' for Inactive)
REMARK    1  A    between atoms: C2_2  and  C3_3 
REMARK    2  A    between atoms: C4_6  and  C5_7 
REMARK       I    between atoms: C5_7  and  N2_9 
REMARK    3  A    between atoms: N2_9  and  C6_10 
REMARK    4  A    between atoms: C6_10  and  C7_11 
REMARK    5  A    between atoms: C6_10  and  C8_13 
REMARK       I    between atoms: C7_11  and  N3_14 
REMARK    6  A    between atoms: N3_14  and  C9_15 
REMARK    7  A    between atoms: C9_15  and  C10_16 
REMARK    8  A    between atoms: C9_15  and  C11_18 
REMARK       I    between atoms: C10_16  and  N4_21 
REMARK    9  A    between atoms: C11_18  and  C12_19 
REMARK   10  A    between atoms: C11_18  and  C13_20 
REMARK   11  A    between atoms: N4_21  and  C14_22 
REMARK   12  A    between atoms: C14_22  and  C15_23 
REMARK   13  A    between atoms: C14_22  and  C16_25 
REMARK       I    between atoms: C15_23  and  N6_40 
REMARK   14  A    between atoms: C16_25  and  C17_26 
REMARK   15  A    between atoms: C17_26  and  C18_27 
REMARK   16  A    between atoms: C17_26  and  C19_28 
REMARK   17  A    between atoms: C20_29  and  C21_30 
REMARK   18  A    between atoms: C20_29  and  C24_33 
REMARK   19  A    between atoms: C20_29  and  N6_40 
REMARK   20  A    between atoms: C21_30  and  C22_31 
REMARK   21  A    between atoms: C22_31  and  C23_32 
REMARK   22  A    between atoms: C23_32  and  O8_43 
REMARK   23  A    between atoms: C24_33  and  C25_34 
REMARK   24  A    between atoms: C28_38  and  O6_39 
REMARK   25  A    between atoms: C29_42  and  O8_43 
REMARK   26  A    between atoms: C29_42  and  C35_49 
ROOT
ATOM      1  C14 non d ame     -31.388  14.932  24.146  0.00  0.00     0.089 C 
ATOM      2  H20 non d ame     -30.363  14.938  24.517  0.00  0.00     0.087 H 
ENDROOT
BRANCH   1   3
ATOM      3  N4  non d ame     -31.800  13.542  24.022  0.00  0.00    -0.346 N 
ATOM      4  C10 non d ame     -31.478  12.552  25.113  0.00  0.00     0.241 C 
ATOM      5  O4  non d ame     -30.883  12.897  26.080  0.00  0.00    -0.271 OA
ATOM      6  H19 non d ame     -32.304  13.267  23.190  0.00  0.00     0.163 HD
BRANCH   4   7
ATOM      7  C9  non d ame     -31.918  11.118  24.971  0.00  0.00     0.092 C 
ATOM      8  H11 non d ame     -31.508  10.534  25.796  0.00  0.00     0.088 H 
BRANCH   7   9
ATOM      9  N3  non d ame     -33.378  11.042  25.070  0.00  0.00    -0.346 N 
ATOM     10  C7  non d ame     -33.998  10.681  26.322  0.00  0.00     0.240 C 
ATOM     11  O3  non d ame     -33.336  10.446  27.258  0.00  0.00    -0.271 OA
ATOM     12  H10 non d ame     -33.962  11.240  24.270  0.00  0.00     0.163 HD
BRANCH  10  13
ATOM     13  C6  non d ame     -35.553  10.599  26.420  0.00  0.00     0.086 C 
ATOM     14  H6  non d ame     -35.904  10.458  27.442  0.00  0.00     0.086 H 
BRANCH  13  15
ATOM     15  N2  non d ame     -36.122  11.853  25.954  0.00  0.00    -0.343 N 
ATOM     16  C5  non d ame     -37.181  12.498  26.733  0.00  0.00     0.273 C 
ATOM     17  O2  non d ame     -37.570  11.999  27.731  0.00  0.00    -0.266 OA
ATOM     18  H5  non d ame     -35.784  12.271  25.099  0.00  0.00     0.163 HD
BRANCH  16  19
ATOM     19  C4  non d ame     -37.790  13.825  26.253  0.00  0.00     0.154 A 
ATOM     20  C1  non d ame     -37.608  14.449  24.979  0.00  0.00    -0.017 A 
ATOM     21  C2  non d ame     -38.373  15.635  25.042  0.00  0.00     0.077 A 
ATOM     22  H1  non d ame     -37.012  14.095  24.137  0.00  0.00     0.091 H 
ATOM     23  O1  non d ame     -38.926  15.677  26.219  0.00  0.00    -0.218 OA
ATOM     24  N1  non d ame     -38.600  14.632  26.944  0.00  0.00    -0.123 NA
BRANCH  21  25
ATOM     25  C3  non d ame     -38.522  16.672  23.937  0.00  0.00    -0.029 C 
ATOM     26  H2  non d ame     -38.330  16.204  22.971  0.00  0.00     0.036 H 
ATOM     27  H3  non d ame     -39.535  17.073  23.950  0.00  0.00     0.036 H 
ATOM     28  H4  non d ame     -37.809  17.480  24.097  0.00  0.00     0.036 H 
ENDBRANCH  21  25
ENDBRANCH  16  19
ENDBRANCH  13  15
BRANCH  13  29
ATOM     29  C8  non d ame     -36.054   9.458  25.571  0.00  0.00    -0.049 C 
ATOM     30  H7  non d ame     -36.991   9.083  25.982  0.00  0.00     0.030 H 
ATOM     31  H8  non d ame     -36.218   9.808  24.552  0.00  0.00     0.030 H 
ATOM     32  H9  non d ame     -35.314   8.657  25.565  0.00  0.00     0.030 H 
ENDBRANCH  13  29
ENDBRANCH  10  13
ENDBRANCH   7   9
BRANCH   7  33
ATOM     33  C11 non d ame     -31.465  10.572  23.586  0.00  0.00    -0.033 C 
ATOM     34  H12 non d ame     -31.658  11.349  22.847  0.00  0.00     0.042 H 
BRANCH  33  35
ATOM     35  C12 non d ame     -29.934  10.273  23.565  0.00  0.00    -0.071 C 
ATOM     36  H13 non d ame     -29.380  11.210  23.630  0.00  0.00     0.028 H 
ATOM     37  H14 non d ame     -29.676   9.638  24.412  0.00  0.00     0.028 H 
ATOM     38  H15 non d ame     -29.676   9.764  22.636  0.00  0.00     0.028 H 
ENDBRANCH  33  35
BRANCH  33  39
ATOM     39  C13 non d ame     -32.294   9.309  23.185  0.00  0.00    -0.071 C 
ATOM     40  H16 non d ame     -32.677   9.432  22.171  0.00  0.00     0.028 H 
ATOM     41  H17 non d ame     -31.655   8.426  23.227  0.00  0.00     0.028 H 
ATOM     42  H18 non d ame     -33.127   9.186  23.876  0.00  0.00     0.028 H 
ENDBRANCH  33  39
ENDBRANCH   7  33
ENDBRANCH   4   7
ENDBRANCH   1   3
BRANCH   1  43
ATOM     43  C15 non d ame     -32.367  15.655  25.114  0.00  0.00     0.240 C 
ATOM     44  O5  non d ame     -33.434  16.005  24.723  0.00  0.00    -0.271 OA
ATOM     45  N6  non d ame     -31.979  15.903  26.532  0.00  0.00    -0.355 N 
ATOM     46  H46 non d ame     -31.078  15.606  26.876  0.00  0.00     0.162 HD
BRANCH  45  47
ATOM     47  C20 non d ame     -32.922  16.591  27.440  0.00  0.00     0.013 C 
ATOM     48  H30 non d ame     -33.927  16.466  27.038  0.00  0.00     0.072 H 
BRANCH  47  49
ATOM     49  C21 non d ame     -32.571  18.060  27.506  0.00  0.00    -0.038 C 
ATOM     50  H31 non d ame     -32.687  18.344  28.552  0.00  0.00     0.036 H 
ATOM     51  H32 non d ame     -31.599  18.152  27.020  0.00  0.00     0.036 H 
BRANCH  49  52
ATOM     52  C22 non d ame     -33.547  18.946  26.701  0.00  0.00     0.018 C 
ATOM     53  H33 non d ame     -33.172  19.964  26.801  0.00  0.00     0.048 H 
ATOM     54  H34 non d ame     -33.619  18.486  25.715  0.00  0.00     0.048 H 
BRANCH  52  55
ATOM     55  C23 non d ame     -34.992  18.964  27.272  0.00  0.00     0.259 C 
ATOM     56  O7  non d ame     -35.177  18.933  28.445  0.00  0.00    -0.265 OA
BRANCH  55  57
ATOM     57  O8  non d ame     -36.095  19.005  26.375  0.00  0.00    -0.317 OA
BRANCH  57  58
ATOM     58  C29 non d ame     -35.805  19.636  25.124  0.00  0.00     0.052 C 
ATOM     59  H47 non d ame     -35.239  20.534  25.371  0.00  0.00     0.082 H 
ATOM     60  H48 non d ame     -35.356  18.863  24.501  0.00  0.00     0.082 H 
BRANCH  58  61
ATOM     61  C35 non d ame     -37.151  20.065  24.481  0.00  0.00    -0.034 A 
ATOM     62  C30 non d ame     -37.289  20.077  23.097  0.00  0.00    -0.075 A 
ATOM     63  C31 non d ame     -38.498  20.463  22.519  0.00  0.00    -0.082 A 
ATOM     64  H49 non d ame     -36.450  19.785  22.465  0.00  0.00     0.084 H 
ATOM     65  C32 non d ame     -39.570  20.840  23.331  0.00  0.00    -0.083 A 
ATOM     66  H50 non d ame     -38.603  20.470  21.434  0.00  0.00     0.083 H 
ATOM     67  C33 non d ame     -39.427  20.829  24.712  0.00  0.00    -0.082 A 
ATOM     68  H51 non d ame     -40.519  21.142  22.888  0.00  0.00     0.083 H 
ATOM     69  C34 non d ame     -38.221  20.443  25.294  0.00  0.00    -0.075 A 
ATOM     70  H52 non d ame     -40.265  21.126  25.343  0.00  0.00     0.083 H 
ATOM     71  H53 non d ame     -38.117  20.436  26.379  0.00  0.00     0.084 H 
ENDBRANCH  58  61
ENDBRANCH  57  58
ENDBRANCH  55  57
ENDBRANCH  52  55
ENDBRANCH  49  52
ENDBRANCH  47  49
BRANCH  47  72
ATOM     72  C24 non d ame     -32.830  15.981  28.837  0.00  0.00    -0.039 C 
ATOM     73  H35 non d ame     -32.438  16.775  29.475  0.00  0.00     0.036 H 
ATOM     74  H36 non d ame     -33.816  15.561  29.036  0.00  0.00     0.036 H 
BRANCH  72  75
ATOM     75  C25 non d ame     -31.781  14.772  28.889  0.00  0.00    -0.001 C 
ATOM     76  C26 non d ame     -32.572  13.356  29.159  0.00  0.00    -0.035 C 
ATOM     77  C27 non d ame     -31.982  12.717  30.197  0.00  0.00     0.085 C 
ATOM     78  H38 non d ame     -33.580  13.554  29.522  0.00  0.00     0.036 H 
ATOM     79  H39 non d ame     -32.418  12.676  28.321  0.00  0.00     0.036 H 
ATOM     80  N5  non d ame     -31.070  13.715  30.869  0.00  0.00    -0.049 N 
ATOM     81  H40 non d ame     -32.792  12.460  30.880  0.00  0.00     0.075 H 
ATOM     82  H41 non d ame     -31.377  11.930  29.749  0.00  0.00     0.075 H 
ATOM     83  C28 non d ame     -30.916  14.943  29.832  0.00  0.00     0.193 C 
ATOM     84  H42 non d ame     -31.560  14.045  31.687  0.00  0.00     0.280 HD
ATOM     85  H43 non d ame     -30.172  13.262  30.966  0.00  0.00     0.280 HD
ATOM     86  H44 non d ame     -30.004  15.062  29.245  0.00  0.00     0.129 H 
ATOM     87  H37 non d ame     -31.080  14.797  28.054  0.00  0.00     0.046 H 
BRANCH  83  88
ATOM     88  O6  non d ame     -31.098  16.187  30.511  0.00  0.00    -0.369 OA
ATOM     89  H45 non d ame     -30.253  16.638  30.585  0.00  0.00     0.212 HD
ENDBRANCH  83  88
ENDBRANCH  72  75
ENDBRANCH  47  72
ENDBRANCH  45  47
ENDBRANCH   1  43
BRANCH   1  90
ATOM     90  C16 non d ame     -31.444  15.589  22.776  0.00  0.00    -0.035 C 
ATOM     91  H21 non d ame     -31.998  14.895  22.145  0.00  0.00     0.037 H 
ATOM     92  H22 non d ame     -31.832  16.593  22.953  0.00  0.00     0.037 H 
BRANCH  90  93
ATOM     93  C17 non d ame     -30.043  15.769  22.109  0.00  0.00    -0.059 C 
ATOM     94  H23 non d ame     -29.745  16.809  22.241  0.00  0.00     0.038 H 
BRANCH  93  95
ATOM     95  C18 non d ame     -28.953  14.872  22.778  0.00  0.00    -0.073 C 
ATOM     96  H24 non d ame     -28.071  15.474  22.996  0.00  0.00     0.028 H 
ATOM     97  H25 non d ame     -29.344  14.454  23.705  0.00  0.00     0.028 H 
ATOM     98  H26 non d ame     -28.682  14.063  22.100  0.00  0.00     0.028 H 
ENDBRANCH  93  95
BRANCH  93  99
ATOM     99  C19 non d ame     -30.117  15.504  20.603  0.00  0.00    -0.073 C 
ATOM    100  H27 non d ame     -30.046  16.449  20.064  0.00  0.00     0.028 H 
ATOM    101  H28 non d ame     -29.293  14.854  20.307  0.00  0.00     0.028 H 
ATOM    102  H29 non d ame     -31.064  15.020  20.365  0.00  0.00     0.028 H 
ENDBRANCH  93  99
ENDBRANCH  90  93
ENDBRANCH   1  90
TORSDOF 26
ENDMDL
MODEL 4
REMARK VINA RESULT:      -6.6      3.062      8.735
REMARK  26 active torsions:
REMARK  status: ('A' for Active; 'I' for Inactive)
REMARK    1  A    between atoms: C2_2  and  C3_3 
REMARK    2  A    between atoms: C4_6  and  C5_7 
REMARK       I    between atoms: C5_7  and  N2_9 
REMARK    3  A    between atoms: N2_9  and  C6_10 
REMARK    4  A    between atoms: C6_10  and  C7_11 
REMARK    5  A    between atoms: C6_10  and  C8_13 
REMARK       I    between atoms: C7_11  and  N3_14 
REMARK    6  A    between atoms: N3_14  and  C9_15 
REMARK    7  A    between atoms: C9_15  and  C10_16 
REMARK    8  A    between atoms: C9_15  and  C11_18 
REMARK       I    between atoms: C10_16  and  N4_21 
REMARK    9  A    between atoms: C11_18  and  C12_19 
REMARK   10  A    between atoms: C11_18  and  C13_20 
REMARK   11  A    between atoms: N4_21  and  C14_22 
REMARK   12  A    between atoms: C14_22  and  C15_23 
REMARK   13  A    between atoms: C14_22  and  C16_25 
REMARK       I    between atoms: C15_23  and  N6_40 
REMARK   14  A    between atoms: C16_25  and  C17_26 
REMARK   15  A    between atoms: C17_26  and  C18_27 
REMARK   16  A    between atoms: C17_26  and  C19_28 
REMARK   17  A    between atoms: C20_29  and  C21_30 
REMARK   18  A    between atoms: C20_29  and  C24_33 
REMARK   19  A    between atoms: C20_29  and  N6_40 
REMARK   20  A    between atoms: C21_30  and  C22_31 
REMARK   21  A    between atoms: C22_31  and  C23_32 
REMARK   22  A    between atoms: C23_32  and  O8_43 
REMARK   23  A    between atoms: C24_33  and  C25_34 
REMARK   24  A    between atoms: C28_38  and  O6_39 
REMARK   25  A    between atoms: C29_42  and  O8_43 
REMARK   26  A    between atoms: C29_42  and  C35_49 
ROOT
ATOM      1  C14 non d ame     -33.874   6.893  27.746  0.00  0.00     0.089 C 
ATOM      2  H20 non d ame     -33.396   6.414  28.602  0.00  0.00     0.087 H 
ENDROOT
BRANCH   1   3
ATOM      3  N4  non d ame     -34.351   8.196  28.183  0.00  0.00    -0.346 N 
ATOM      4  C10 non d ame     -34.839   8.394  29.596  0.00  0.00     0.241 C 
ATOM      5  O4  non d ame     -34.841   7.488  30.363  0.00  0.00    -0.271 OA
ATOM      6  H19 non d ame     -34.344   8.953  27.515  0.00  0.00     0.163 HD
BRANCH   4   7
ATOM      7  C9  non d ame     -35.325   9.751  30.033  0.00  0.00     0.092 C 
ATOM      8  H11 non d ame     -35.323   9.799  31.122  0.00  0.00     0.088 H 
BRANCH   7   9
ATOM      9  N3  non d ame     -34.398  10.780  29.553  0.00  0.00    -0.346 N 
ATOM     10  C7  non d ame     -33.265  11.164  30.360  0.00  0.00     0.240 C 
ATOM     11  O3  non d ame     -33.086  10.656  31.399  0.00  0.00    -0.271 OA
ATOM     12  H10 non d ame     -34.541  11.228  28.659  0.00  0.00     0.163 HD
BRANCH  10  13
ATOM     13  C6  non d ame     -32.284  12.262  29.844  0.00  0.00     0.086 C 
ATOM     14  H6  non d ame     -31.831  12.006  28.886  0.00  0.00     0.086 H 
BRANCH  13  15
ATOM     15  N2  non d ame     -33.024  13.496  29.638  0.00  0.00    -0.343 N 
ATOM     16  C5  non d ame     -32.515  14.493  28.694  0.00  0.00     0.273 C 
ATOM     17  O2  non d ame     -31.508  14.294  28.108  0.00  0.00    -0.266 OA
ATOM     18  H5  non d ame     -33.882  13.658  30.145  0.00  0.00     0.163 HD
BRANCH  16  19
ATOM     19  C4  non d ame     -33.287  15.802  28.465  0.00  0.00     0.154 A 
ATOM     20  C1  non d ame     -34.591  15.947  27.892  0.00  0.00    -0.017 A 
ATOM     21  C2  non d ame     -34.840  17.338  27.907  0.00  0.00     0.077 A 
ATOM     22  H1  non d ame     -35.253  15.164  27.523  0.00  0.00     0.091 H 
ATOM     23  O1  non d ame     -33.798  17.913  28.429  0.00  0.00    -0.218 OA
ATOM     24  N1  non d ame     -32.878  17.038  28.763  0.00  0.00    -0.123 NA
BRANCH  21  25
ATOM     25  C3  non d ame     -36.099  18.033  27.404  0.00  0.00    -0.029 C 
ATOM     26  H2  non d ame     -36.427  18.768  28.138  0.00  0.00     0.036 H 
ATOM     27  H3  non d ame     -35.884  18.534  26.460  0.00  0.00     0.036 H 
ATOM     28  H4  non d ame     -36.886  17.294  27.252  0.00  0.00     0.036 H 
ENDBRANCH  21  25
ENDBRANCH  16  19
ENDBRANCH  13  15
BRANCH  13  29
ATOM     29  C8  non d ame     -31.190  12.479  30.858  0.00  0.00    -0.049 C 
ATOM     30  H7  non d ame     -31.633  12.654  31.838  0.00  0.00     0.030 H 
ATOM     31  H8  non d ame     -30.554  11.595  30.900  0.00  0.00     0.030 H 
ATOM     32  H9  non d ame     -30.593  13.344  30.569  0.00  0.00     0.030 H 
ENDBRANCH  13  29
ENDBRANCH  10  13
ENDBRANCH   7   9
BRANCH   7  33
ATOM     33  C11 non d ame     -36.739  10.012  29.438  0.00  0.00    -0.033 C 
ATOM     34  H12 non d ame     -37.134   9.055  29.097  0.00  0.00     0.042 H 
BRANCH  33  35
ATOM     35  C12 non d ame     -37.718  10.564  30.521  0.00  0.00    -0.071 C 
ATOM     36  H13 non d ame     -37.561  10.031  31.459  0.00  0.00     0.028 H 
ATOM     37  H14 non d ame     -37.532  11.627  30.672  0.00  0.00     0.028 H 
ATOM     38  H15 non d ame     -38.746  10.418  30.189  0.00  0.00     0.028 H 
ENDBRANCH  33  35
BRANCH  33  39
ATOM     39  C13 non d ame     -36.660  10.969  28.206  0.00  0.00    -0.071 C 
ATOM     40  H16 non d ame     -37.211  10.535  27.372  0.00  0.00     0.028 H 
ATOM     41  H17 non d ame     -37.096  11.934  28.467  0.00  0.00     0.028 H 
ATOM     42  H18 non d ame     -35.617  11.108  27.920  0.00  0.00     0.028 H 
ENDBRANCH  33  39
ENDBRANCH   7  33
ENDBRANCH   4   7
ENDBRANCH   1   3
BRANCH   1  43
ATOM     43  C15 non d ame     -32.886   7.099  26.562  0.00  0.00     0.240 C 
ATOM     44  O5  non d ame     -31.864   6.493  26.532  0.00  0.00    -0.271 OA
ATOM     45  N6  non d ame     -33.220   8.045  25.459  0.00  0.00    -0.355 N 
ATOM     46  H46 non d ame     -34.087   8.562  25.471  0.00  0.00     0.162 HD
BRANCH  45  47
ATOM     47  C20 non d ame     -32.271   8.229  24.339  0.00  0.00     0.013 C 
ATOM     48  H30 non d ame     -31.269   8.013  24.710  0.00  0.00     0.072 H 
BRANCH  47  49
ATOM     49  C21 non d ame     -32.345   9.658  23.851  0.00  0.00    -0.038 C 
ATOM     50  H31 non d ame     -32.410   9.595  22.765  0.00  0.00     0.036 H 
ATOM     51  H32 non d ame     -33.151  10.122  24.420  0.00  0.00     0.036 H 
BRANCH  49  52
ATOM     52  C22 non d ame     -31.067  10.465  24.166  0.00  0.00     0.018 C 
ATOM     53  H33 non d ame     -30.359   9.748  24.579  0.00  0.00     0.048 H 
ATOM     54  H34 non d ame     -30.825  11.004  23.249  0.00  0.00     0.048 H 
BRANCH  52  55
ATOM     55  C23 non d ame     -31.265  11.550  25.261  0.00  0.00     0.259 C 
ATOM     56  O7  non d ame     -30.920  11.347  26.380  0.00  0.00    -0.265 OA
BRANCH  55  57
ATOM     57  O8  non d ame     -31.876  12.787  24.914  0.00  0.00    -0.317 OA
BRANCH  57  58
ATOM     58  C29 non d ame     -31.001  13.914  25.005  0.00  0.00     0.052 C 
ATOM     59  H47 non d ame     -31.557  14.676  25.551  0.00  0.00     0.082 H 
ATOM     60  H48 non d ame     -30.064  13.529  25.408  0.00  0.00     0.082 H 
BRANCH  58  61
ATOM     61  C35 non d ame     -30.739  14.435  23.566  0.00  0.00    -0.034 A 
ATOM     62  C30 non d ame     -31.333  15.616  23.134  0.00  0.00    -0.075 A 
ATOM     63  C31 non d ame     -31.099  16.083  21.842  0.00  0.00    -0.082 A 
ATOM     64  H49 non d ame     -31.984  16.175  23.807  0.00  0.00     0.084 H 
ATOM     65  C32 non d ame     -30.267  15.363  20.979  0.00  0.00    -0.083 A 
ATOM     66  H50 non d ame     -31.565  17.010  21.506  0.00  0.00     0.083 H 
ATOM     67  C33 non d ame     -29.679  14.184  21.414  0.00  0.00    -0.082 A 
ATOM     68  H51 non d ame     -30.078  15.722  19.968  0.00  0.00     0.083 H 
ATOM     69  C34 non d ame     -29.909  13.714  22.706  0.00  0.00    -0.075 A 
ATOM     70  H52 non d ame     -29.032  13.623  20.738  0.00  0.00     0.083 H 
ATOM     71  H53 non d ame     -29.442  12.787  23.040  0.00  0.00     0.084 H 
ENDBRANCH  58  61
ENDBRANCH  57  58
ENDBRANCH  55  57
ENDBRANCH  52  55
ENDBRANCH  49  52
ENDBRANCH  47  49
BRANCH  47  72
ATOM     72  C24 non d ame     -32.631   7.280  23.197  0.00  0.00    -0.039 C 
ATOM     73  H35 non d ame     -31.754   6.647  23.059  0.00  0.00     0.036 H 
ATOM     74  H36 non d ame     -33.585   6.835  23.480  0.00  0.00     0.036 H 
BRANCH  72  75
ATOM     75  C25 non d ame     -32.865   8.070  21.823  0.00  0.00    -0.001 C 
ATOM     76  C26 non d ame     -34.476   8.197  21.519  0.00  0.00    -0.035 C 
ATOM     77  C27 non d ame     -34.718   7.763  20.259  0.00  0.00     0.085 C 
ATOM     78  H38 non d ame     -35.031   7.496  22.141  0.00  0.00     0.036 H 
ATOM     79  H39 non d ame     -34.769   9.247  21.487  0.00  0.00     0.036 H 
ATOM     80  N5  non d ame     -33.474   7.046  19.793  0.00  0.00    -0.049 N 
ATOM     81  H40 non d ame     -35.531   7.042  20.351  0.00  0.00     0.075 H 
ATOM     82  H41 non d ame     -34.854   8.664  19.662  0.00  0.00     0.075 H 
ATOM     83  C28 non d ame     -32.309   7.458  20.832  0.00  0.00     0.193 C 
ATOM     84  H42 non d ame     -33.659   6.058  19.891  0.00  0.00     0.280 HD
ATOM     85  H43 non d ame     -33.247   7.430  18.886  0.00  0.00     0.280 HD
ATOM     86  H44 non d ame     -31.548   8.186  20.551  0.00  0.00     0.129 H 
ATOM     87  H37 non d ame     -32.276   8.985  21.767  0.00  0.00     0.046 H 
BRANCH  83  88
ATOM     88  O6  non d ame     -31.590   6.296  21.250  0.00  0.00    -0.369 OA
ATOM     89  H45 non d ame     -31.206   5.864  20.484  0.00  0.00     0.212 HD
ENDBRANCH  83  88
ENDBRANCH  72  75
ENDBRANCH  47  72
ENDBRANCH  45  47
ENDBRANCH   1  43
BRANCH   1  90
ATOM     90  C16 non d ame     -35.059   6.059  27.285  0.00  0.00    -0.035 C 
ATOM     91  H21 non d ame     -35.760   6.068  28.119  0.00  0.00     0.037 H 
ATOM     92  H22 non d ame     -35.351   6.480  26.323  0.00  0.00     0.037 H 
BRANCH  90  93
ATOM     93  C17 non d ame     -34.706   4.561  27.022  0.00  0.00    -0.059 C 
ATOM     94  H23 non d ame     -34.117   4.515  26.106  0.00  0.00     0.038 H 
BRANCH  93  95
ATOM     95  C18 non d ame     -33.846   3.947  28.173  0.00  0.00    -0.073 C 
ATOM     96  H24 non d ame     -34.234   2.962  28.431  0.00  0.00     0.028 H 
ATOM     97  H25 non d ame     -32.811   3.853  27.843  0.00  0.00     0.028 H 
ATOM     98  H26 non d ame     -33.892   4.596  29.046  0.00  0.00     0.028 H 
ENDBRANCH  93  95
BRANCH  93  99
ATOM     99  C19 non d ame     -35.973   3.734  26.788  0.00  0.00    -0.073 C 
ATOM    100  H27 non d ame     -35.705   2.774  26.345  0.00  0.00     0.028 H 
ATOM    101  H28 non d ame     -36.478   3.565  27.740  0.00  0.00     0.028 H 
ATOM    102  H29 non d ame     -36.640   4.272  26.115  0.00  0.00     0.028 H 
ENDBRANCH  93  99
ENDBRANCH  90  93
ENDBRANCH   1  90
TORSDOF 26
ENDMDL
MODEL 5
REMARK VINA RESULT:      -6.5      2.287      4.463
REMARK  26 active torsions:
REMARK  status: ('A' for Active; 'I' for Inactive)
REMARK    1  A    between atoms: C2_2  and  C3_3 
REMARK    2  A    between atoms: C4_6  and  C5_7 
REMARK       I    between atoms: C5_7  and  N2_9 
REMARK    3  A    between atoms: N2_9  and  C6_10 
REMARK    4  A    between atoms: C6_10  and  C7_11 
REMARK    5  A    between atoms: C6_10  and  C8_13 
REMARK       I    between atoms: C7_11  and  N3_14 
REMARK    6  A    between atoms: N3_14  and  C9_15 
REMARK    7  A    between atoms: C9_15  and  C10_16 
REMARK    8  A    between atoms: C9_15  and  C11_18 
REMARK       I    between atoms: C10_16  and  N4_21 
REMARK    9  A    between atoms: C11_18  and  C12_19 
REMARK   10  A    between atoms: C11_18  and  C13_20 
REMARK   11  A    between atoms: N4_21  and  C14_22 
REMARK   12  A    between atoms: C14_22  and  C15_23 
REMARK   13  A    between atoms: C14_22  and  C16_25 
REMARK       I    between atoms: C15_23  and  N6_40 
REMARK   14  A    between atoms: C16_25  and  C17_26 
REMARK   15  A    between atoms: C17_26  and  C18_27 
REMARK   16  A    between atoms: C17_26  and  C19_28 
REMARK   17  A    between atoms: C20_29  and  C21_30 
REMARK   18  A    between atoms: C20_29  and  C24_33 
REMARK   19  A    between atoms: C20_29  and  N6_40 
REMARK   20  A    between atoms: C21_30  and  C22_31 
REMARK   21  A    between atoms: C22_31  and  C23_32 
REMARK   22  A    between atoms: C23_32  and  O8_43 
REMARK   23  A    between atoms: C24_33  and  C25_34 
REMARK   24  A    between atoms: C28_38  and  O6_39 
REMARK   25  A    between atoms: C29_42  and  O8_43 
REMARK   26  A    between atoms: C29_42  and  C35_49 
ROOT
ATOM      1  C14 non d ame     -30.722  13.877  23.975  0.00  0.00     0.089 C 
ATOM      2  H20 non d ame     -29.658  13.638  23.970  0.00  0.00     0.087 H 
ENDROOT
BRANCH   1   3
ATOM      3  N4  non d ame     -31.448  12.638  24.212  0.00  0.00    -0.346 N 
ATOM      4  C10 non d ame     -30.950  11.340  23.629  0.00  0.00     0.241 C 
ATOM      5  O4  non d ame     -29.964  11.317  22.969  0.00  0.00    -0.271 OA
ATOM      6  H19 non d ame     -32.286  12.679  24.775  0.00  0.00     0.163 HD
BRANCH   4   7
ATOM      7  C9  non d ame     -31.710  10.066  23.889  0.00  0.00     0.092 C 
ATOM      8  H11 non d ame     -31.293   9.572  24.767  0.00  0.00     0.088 H 
BRANCH   7   9
ATOM      9  N3  non d ame     -33.108  10.385  24.196  0.00  0.00    -0.346 N 
ATOM     10  C7  non d ame     -33.502  10.661  25.556  0.00  0.00     0.240 C 
ATOM     11  O3  non d ame     -32.709  10.629  26.415  0.00  0.00    -0.271 OA
ATOM     12  H10 non d ame     -33.804  10.415  23.465  0.00  0.00     0.163 HD
BRANCH  10  13
ATOM     13  C6  non d ame     -34.992  10.997  25.876  0.00  0.00     0.086 C 
ATOM     14  H6  non d ame     -35.663  10.772  25.047  0.00  0.00     0.086 H 
BRANCH  13  15
ATOM     15  N2  non d ame     -35.429  10.181  26.997  0.00  0.00    -0.343 N 
ATOM     16  C5  non d ame     -36.723   9.499  26.932  0.00  0.00     0.273 C 
ATOM     17  O2  non d ame     -37.407   9.615  25.974  0.00  0.00    -0.266 OA
ATOM     18  H5  non d ame     -34.839  10.089  27.812  0.00  0.00     0.163 HD
BRANCH  16  19
ATOM     19  C4  non d ame     -37.197   8.632  28.109  0.00  0.00     0.154 A 
ATOM     20  C1  non d ame     -36.681   7.357  28.506  0.00  0.00    -0.017 A 
ATOM     21  C2  non d ame     -37.451   6.989  29.632  0.00  0.00     0.077 A 
ATOM     22  H1  non d ame     -35.873   6.787  28.048  0.00  0.00     0.091 H 
ATOM     23  O1  non d ame     -38.304   7.947  29.849  0.00  0.00    -0.218 OA
ATOM     24  N1  non d ame     -38.175   8.917  28.972  0.00  0.00    -0.123 NA
BRANCH  21  25
ATOM     25  C3  non d ame     -37.307   5.708  30.443  0.00  0.00    -0.029 C 
ATOM     26  H2  non d ame     -36.250   5.471  30.564  0.00  0.00     0.036 H 
ATOM     27  H3  non d ame     -37.762   5.846  31.423  0.00  0.00     0.036 H 
ATOM     28  H4  non d ame     -37.806   4.891  29.923  0.00  0.00     0.036 H 
ENDBRANCH  21  25
ENDBRANCH  16  19
ENDBRANCH  13  15
BRANCH  13  29
ATOM     29  C8  non d ame     -35.117  12.459  26.222  0.00  0.00    -0.049 C 
ATOM     30  H7  non d ame     -35.633  12.980  25.415  0.00  0.00     0.030 H 
ATOM     31  H8  non d ame     -35.686  12.566  27.145  0.00  0.00     0.030 H 
ATOM     32  H9  non d ame     -34.124  12.887  26.355  0.00  0.00     0.030 H 
ENDBRANCH  13  29
ENDBRANCH  10  13
ENDBRANCH   7   9
BRANCH   7  33
ATOM     33  C11 non d ame     -31.653   9.160  22.625  0.00  0.00    -0.033 C 
ATOM     34  H12 non d ame     -31.254   9.761  21.808  0.00  0.00     0.042 H 
BRANCH  33  35
ATOM     35  C12 non d ame     -30.688   7.952  22.834  0.00  0.00    -0.071 C 
ATOM     36  H13 non d ame     -31.248   7.020  22.750  0.00  0.00     0.028 H 
ATOM     37  H14 non d ame     -29.906   7.976  22.075  0.00  0.00     0.028 H 
ATOM     38  H15 non d ame     -30.237   8.015  23.824  0.00  0.00     0.028 H 
ENDBRANCH  33  35
BRANCH  33  39
ATOM     39  C13 non d ame     -33.083   8.679  22.216  0.00  0.00    -0.071 C 
ATOM     40  H16 non d ame     -33.657   8.445  23.113  0.00  0.00     0.028 H 
ATOM     41  H17 non d ame     -33.586   9.469  21.658  0.00  0.00     0.028 H 
ATOM     42  H18 non d ame     -33.002   7.789  21.592  0.00  0.00     0.028 H 
ENDBRANCH  33  39
ENDBRANCH   7  33
ENDBRANCH   4   7
ENDBRANCH   1   3
BRANCH   1  43
ATOM     43  C15 non d ame     -31.091  14.890  25.096  0.00  0.00     0.240 C 
ATOM     44  O5  non d ame     -30.855  16.046  24.950  0.00  0.00    -0.271 OA
ATOM     45  N6  non d ame     -31.747  14.420  26.350  0.00  0.00    -0.355 N 
ATOM     46  H46 non d ame     -31.957  13.442  26.483  0.00  0.00     0.162 HD
BRANCH  45  47
ATOM     47  C20 non d ame     -32.093  15.396  27.406  0.00  0.00     0.013 C 
ATOM     48  H30 non d ame     -31.537  16.313  27.211  0.00  0.00     0.072 H 
BRANCH  47  49
ATOM     49  C21 non d ame     -31.705  14.832  28.754  0.00  0.00    -0.038 C 
ATOM     50  H31 non d ame     -30.632  14.647  28.698  0.00  0.00     0.036 H 
ATOM     51  H32 non d ame     -32.100  15.533  29.490  0.00  0.00     0.036 H 
BRANCH  49  52
ATOM     52  C22 non d ame     -32.369  13.470  29.047  0.00  0.00     0.018 C 
ATOM     53  H33 non d ame     -33.020  13.637  29.905  0.00  0.00     0.048 H 
ATOM     54  H34 non d ame     -32.791  13.137  28.099  0.00  0.00     0.048 H 
BRANCH  52  55
ATOM     55  C23 non d ame     -31.366  12.365  29.481  0.00  0.00     0.259 C 
ATOM     56  O7  non d ame     -30.213  12.457  29.209  0.00  0.00    -0.265 OA
BRANCH  55  57
ATOM     57  O8  non d ame     -31.843  11.232  30.196  0.00  0.00    -0.317 OA
BRANCH  57  58
ATOM     58  C29 non d ame     -33.028  10.652  29.644  0.00  0.00     0.052 C 
ATOM     59  H47 non d ame     -33.520  11.453  29.093  0.00  0.00     0.082 H 
ATOM     60  H48 non d ame     -32.702   9.752  29.123  0.00  0.00     0.082 H 
BRANCH  58  61
ATOM     61  C35 non d ame     -33.948  10.230  30.821  0.00  0.00    -0.034 A 
ATOM     62  C30 non d ame     -34.363   8.907  30.942  0.00  0.00    -0.075 A 
ATOM     63  C31 non d ame     -35.189   8.528  31.998  0.00  0.00    -0.082 A 
ATOM     64  H49 non d ame     -34.041   8.168  30.208  0.00  0.00     0.084 H 
ATOM     65  C32 non d ame     -35.603   9.478  32.936  0.00  0.00    -0.083 A 
ATOM     66  H50 non d ame     -35.512   7.491  32.091  0.00  0.00     0.083 H 
ATOM     67  C33 non d ame     -35.189  10.797  32.810  0.00  0.00    -0.082 A 
ATOM     68  H51 non d ame     -36.248   9.190  33.766  0.00  0.00     0.083 H 
ATOM     69  C34 non d ame     -34.362  11.180  31.756  0.00  0.00    -0.075 A 
ATOM     70  H52 non d ame     -35.516  11.537  33.542  0.00  0.00     0.083 H 
ATOM     71  H53 non d ame     -34.040  12.218  31.665  0.00  0.00     0.084 H 
ENDBRANCH  58  61
ENDBRANCH  57  58
ENDBRANCH  55  57
ENDBRANCH  52  55
ENDBRANCH  49  52
ENDBRANCH  47  49
BRANCH  47  72
ATOM     72  C24 non d ame     -33.595  15.672  27.382  0.00  0.00    -0.039 C 
ATOM     73  H35 non d ame     -34.012  14.948  26.681  0.00  0.00     0.036 H 
ATOM     74  H36 non d ame     -33.909  15.663  28.426  0.00  0.00     0.036 H 
BRANCH  72  75
ATOM     75  C25 non d ame     -33.921  17.130  26.803  0.00  0.00    -0.001 C 
ATOM     76  C26 non d ame     -34.994  17.896  27.786  0.00  0.00    -0.035 C 
ATOM     77  C27 non d ame     -36.021  18.359  27.034  0.00  0.00     0.085 C 
ATOM     78  H38 non d ame     -35.471  17.176  28.451  0.00  0.00     0.036 H 
ATOM     79  H39 non d ame     -34.547  18.802  28.194  0.00  0.00     0.036 H 
ATOM     80  N5  non d ame     -35.910  17.699  25.681  0.00  0.00    -0.049 N 
ATOM     81  H40 non d ame     -36.926  18.008  27.529  0.00  0.00     0.075 H 
ATOM     82  H41 non d ame     -35.841  19.428  26.923  0.00  0.00     0.075 H 
ATOM     83  C28 non d ame     -34.429  17.061  25.618  0.00  0.00     0.193 C 
ATOM     84  H42 non d ame     -36.585  16.948  25.673  0.00  0.00     0.280 HD
ATOM     85  H43 non d ame     -35.971  18.439  24.996  0.00  0.00     0.280 HD
ATOM     86  H44 non d ame     -33.642  17.542  25.037  0.00  0.00     0.129 H 
ATOM     87  H37 non d ame     -33.018  17.678  26.533  0.00  0.00     0.046 H 
BRANCH  83  88
ATOM     88  O6  non d ame     -34.491  15.717  25.137  0.00  0.00    -0.369 OA
ATOM     89  H45 non d ame     -34.321  15.109  25.861  0.00  0.00     0.212 HD
ENDBRANCH  83  88
ENDBRANCH  72  75
ENDBRANCH  47  72
ENDBRANCH  45  47
ENDBRANCH   1  43
BRANCH   1  90
ATOM     90  C16 non d ame     -31.130  14.440  22.623  0.00  0.00    -0.035 C 
ATOM     91  H21 non d ame     -31.781  13.686  22.181  0.00  0.00     0.037 H 
ATOM     92  H22 non d ame     -31.514  15.438  22.830  0.00  0.00     0.037 H 
BRANCH  90  93
ATOM     93  C17 non d ame     -29.935  14.623  21.634  0.00  0.00    -0.059 C 
ATOM     94  H23 non d ame     -29.956  13.791  20.931  0.00  0.00     0.038 H 
BRANCH  93  95
ATOM     95  C18 non d ame     -30.049  15.946  20.811  0.00  0.00    -0.073 C 
ATOM     96  H24 non d ame     -29.052  16.303  20.556  0.00  0.00     0.028 H 
ATOM     97  H25 non d ame     -30.611  15.758  19.896  0.00  0.00     0.028 H 
ATOM     98  H26 non d ame     -30.564  16.700  21.405  0.00  0.00     0.028 H 
ENDBRANCH  93  95
BRANCH  93  99
ATOM     99  C19 non d ame     -28.597  14.557  22.375  0.00  0.00    -0.073 C 
ATOM    100  H27 non d ame     -28.038  15.477  22.200  0.00  0.00     0.028 H 
ATOM    101  H28 non d ame     -28.778  14.442  23.444  0.00  0.00     0.028 H 
ATOM    102  H29 non d ame     -28.021  13.707  22.011  0.00  0.00     0.028 H 
ENDBRANCH  93  99
ENDBRANCH  90  93
ENDBRANCH   1  90
TORSDOF 26
ENDMDL
MODEL 6
REMARK VINA RESULT:      -6.4      3.819      9.451
REMARK  26 active torsions:
REMARK  status: ('A' for Active; 'I' for Inactive)
REMARK    1  A    between atoms: C2_2  and  C3_3 
REMARK    2  A    between atoms: C4_6  and  C5_7 
REMARK       I    between atoms: C5_7  and  N2_9 
REMARK    3  A    between atoms: N2_9  and  C6_10 
REMARK    4  A    between atoms: C6_10  and  C7_11 
REMARK    5  A    between atoms: C6_10  and  C8_13 
REMARK       I    between atoms: C7_11  and  N3_14 
REMARK    6  A    between atoms: N3_14  and  C9_15 
REMARK    7  A    between atoms: C9_15  and  C10_16 
REMARK    8  A    between atoms: C9_15  and  C11_18 
REMARK       I    between atoms: C10_16  and  N4_21 
REMARK    9  A    between atoms: C11_18  and  C12_19 
REMARK   10  A    between atoms: C11_18  and  C13_20 
REMARK   11  A    between atoms: N4_21  and  C14_22 
REMARK   12  A    between atoms: C14_22  and  C15_23 
REMARK   13  A    between atoms: C14_22  and  C16_25 
REMARK       I    between atoms: C15_23  and  N6_40 
REMARK   14  A    between atoms: C16_25  and  C17_26 
REMARK   15  A    between atoms: C17_26  and  C18_27 
REMARK   16  A    between atoms: C17_26  and  C19_28 
REMARK   17  A    between atoms: C20_29  and  C21_30 
REMARK   18  A    between atoms: C20_29  and  C24_33 
REMARK   19  A    between atoms: C20_29  and  N6_40 
REMARK   20  A    between atoms: C21_30  and  C22_31 
REMARK   21  A    between atoms: C22_31  and  C23_32 
REMARK   22  A    between atoms: C23_32  and  O8_43 
REMARK   23  A    between atoms: C24_33  and  C25_34 
REMARK   24  A    between atoms: C28_38  and  O6_39 
REMARK   25  A    between atoms: C29_42  and  O8_43 
REMARK   26  A    between atoms: C29_42  and  C35_49 
ROOT
ATOM      1  C14 non d ame     -34.905   8.251  31.266  0.00  0.00     0.089 C 
ATOM      2  H20 non d ame     -34.485   8.300  32.271  0.00  0.00     0.087 H 
ENDROOT
BRANCH   1   3
ATOM      3  N4  non d ame     -34.001   8.967  30.378  0.00  0.00    -0.346 N 
ATOM      4  C10 non d ame     -33.487  10.334  30.754  0.00  0.00     0.241 C 
ATOM      5  O4  non d ame     -33.817  10.839  31.776  0.00  0.00    -0.271 OA
ATOM      6  H19 non d ame     -33.733   8.521  29.512  0.00  0.00     0.163 HD
BRANCH   4   7
ATOM      7  C9  non d ame     -32.547  11.057  29.825  0.00  0.00     0.092 C 
ATOM      8  H11 non d ame     -31.811  10.353  29.440  0.00  0.00     0.088 H 
BRANCH   7   9
ATOM      9  N3  non d ame     -33.297  11.574  28.676  0.00  0.00    -0.346 N 
ATOM     10  C7  non d ame     -33.137  10.963  27.379  0.00  0.00     0.240 C 
ATOM     11  O3  non d ame     -32.409  10.057  27.242  0.00  0.00    -0.271 OA
ATOM     12  H10 non d ame     -33.928  12.356  28.779  0.00  0.00     0.163 HD
BRANCH  10  13
ATOM     13  C6  non d ame     -33.935  11.519  26.159  0.00  0.00     0.086 C 
ATOM     14  H6  non d ame     -34.732  12.202  26.452  0.00  0.00     0.086 H 
BRANCH  13  15
ATOM     15  N2  non d ame     -33.031  12.276  25.309  0.00  0.00    -0.343 N 
ATOM     16  C5  non d ame     -32.701  13.659  25.658  0.00  0.00     0.273 C 
ATOM     17  O2  non d ame     -33.171  14.155  26.622  0.00  0.00    -0.266 OA
ATOM     18  H5  non d ame     -32.636  11.845  24.485  0.00  0.00     0.163 HD
BRANCH  16  19
ATOM     19  C4  non d ame     -31.745  14.470  24.769  0.00  0.00     0.154 A 
ATOM     20  C1  non d ame     -30.766  13.958  23.860  0.00  0.00    -0.017 A 
ATOM     21  C2  non d ame     -30.160  15.103  23.295  0.00  0.00     0.077 A 
ATOM     22  H1  non d ame     -30.531  12.916  23.642  0.00  0.00     0.091 H 
ATOM     23  O1  non d ame     -30.732  16.145  23.824  0.00  0.00    -0.218 OA
ATOM     24  N1  non d ame     -31.660  15.801  24.688  0.00  0.00    -0.123 NA
BRANCH  21  25
ATOM     25  C3  non d ame     -29.045  15.114  22.259  0.00  0.00    -0.029 C 
ATOM     26  H2  non d ame     -29.362  15.689  21.389  0.00  0.00     0.036 H 
ATOM     27  H3  non d ame     -28.153  15.570  22.690  0.00  0.00     0.036 H 
ATOM     28  H4  non d ame     -28.819  14.092  21.956  0.00  0.00     0.036 H 
ENDBRANCH  21  25
ENDBRANCH  16  19
ENDBRANCH  13  15
BRANCH  13  29
ATOM     29  C8  non d ame     -34.536  10.374  25.384  0.00  0.00    -0.049 C 
ATOM     30  H7  non d ame     -35.150   9.767  26.050  0.00  0.00     0.030 H 
ATOM     31  H8  non d ame     -35.154  10.766  24.577  0.00  0.00     0.030 H 
ATOM     32  H9  non d ame     -33.738   9.760  24.965  0.00  0.00     0.030 H 
ENDBRANCH  13  29
ENDBRANCH  10  13
ENDBRANCH   7   9
BRANCH   7  33
ATOM     33  C11 non d ame     -31.882  12.244  30.582  0.00  0.00    -0.033 C 
ATOM     34  H12 non d ame     -32.421  12.380  31.520  0.00  0.00     0.042 H 
BRANCH  33  35
ATOM     35  C12 non d ame     -30.395  11.929  30.938  0.00  0.00    -0.071 C 
ATOM     36  H13 non d ame     -30.314  10.898  31.281  0.00  0.00     0.028 H 
ATOM     37  H14 non d ame     -29.773  12.068  30.054  0.00  0.00     0.028 H 
ATOM     38  H15 non d ame     -30.060  12.602  31.727  0.00  0.00     0.028 H 
ENDBRANCH  33  35
BRANCH  33  39
ATOM     39  C13 non d ame     -32.000  13.568  29.761  0.00  0.00    -0.071 C 
ATOM     40  H16 non d ame     -31.034  13.806  29.316  0.00  0.00     0.028 H 
ATOM     41  H17 non d ame     -32.743  13.442  28.973  0.00  0.00     0.028 H 
ATOM     42  H18 non d ame     -32.307  14.379  30.421  0.00  0.00     0.028 H 
ENDBRANCH  33  39
ENDBRANCH   7  33
ENDBRANCH   4   7
ENDBRANCH   1   3
BRANCH   1  43
ATOM     43  C15 non d ame     -35.042   6.787  30.758  0.00  0.00     0.240 C 
ATOM     44  O5  non d ame     -35.560   5.969  31.447  0.00  0.00    -0.271 OA
ATOM     45  N6  non d ame     -34.537   6.408  29.408  0.00  0.00    -0.355 N 
ATOM     46  H46 non d ame     -34.100   7.095  28.811  0.00  0.00     0.162 HD
BRANCH  45  47
ATOM     47  C20 non d ame     -34.677   5.012  28.939  0.00  0.00     0.013 C 
ATOM     48  H30 non d ame     -35.011   4.407  29.781  0.00  0.00     0.072 H 
BRANCH  47  49
ATOM     49  C21 non d ame     -33.338   4.515  28.444  0.00  0.00    -0.038 C 
ATOM     50  H31 non d ame     -32.590   5.112  28.966  0.00  0.00     0.036 H 
ATOM     51  H32 non d ame     -33.360   3.433  28.573  0.00  0.00     0.036 H 
BRANCH  49  52
ATOM     52  C22 non d ame     -33.124   4.770  26.936  0.00  0.00     0.018 C 
ATOM     53  H33 non d ame     -32.379   4.042  26.616  0.00  0.00     0.048 H 
ATOM     54  H34 non d ame     -34.119   4.762  26.491  0.00  0.00     0.048 H 
BRANCH  52  55
ATOM     55  C23 non d ame     -32.522   6.166  26.616  0.00  0.00     0.259 C 
ATOM     56  O7  non d ame     -31.849   6.731  27.416  0.00  0.00    -0.265 OA
BRANCH  55  57
ATOM     57  O8  non d ame     -32.794   6.770  25.357  0.00  0.00    -0.317 OA
BRANCH  57  58
ATOM     58  C29 non d ame     -32.027   6.234  24.276  0.00  0.00     0.052 C 
ATOM     59  H47 non d ame     -31.293   5.571  24.735  0.00  0.00     0.082 H 
ATOM     60  H48 non d ame     -32.754   5.834  23.568  0.00  0.00     0.082 H 
BRANCH  58  61
ATOM     61  C35 non d ame     -31.273   7.407  23.595  0.00  0.00    -0.034 A 
ATOM     62  C30 non d ame     -31.828   8.682  23.590  0.00  0.00    -0.075 A 
ATOM     63  C31 non d ame     -31.151   9.736  22.978  0.00  0.00    -0.082 A 
ATOM     64  H49 non d ame     -32.794   8.856  24.065  0.00  0.00     0.084 H 
ATOM     65  C32 non d ame     -29.915   9.510  22.367  0.00  0.00    -0.083 A 
ATOM     66  H50 non d ame     -31.588  10.735  22.977  0.00  0.00     0.083 H 
ATOM     67  C33 non d ame     -29.367   8.235  22.371  0.00  0.00    -0.082 A 
ATOM     68  H51 non d ame     -29.379  10.329  21.887  0.00  0.00     0.083 H 
ATOM     69  C34 non d ame     -30.039   7.179  22.984  0.00  0.00    -0.075 A 
ATOM     70  H52 non d ame     -28.403   8.061  21.892  0.00  0.00     0.083 H 
ATOM     71  H53 non d ame     -29.601   6.181  22.984  0.00  0.00     0.084 H 
ENDBRANCH  58  61
ENDBRANCH  57  58
ENDBRANCH  55  57
ENDBRANCH  52  55
ENDBRANCH  49  52
ENDBRANCH  47  49
BRANCH  47  72
ATOM     72  C24 non d ame     -35.696   4.949  27.803  0.00  0.00    -0.039 C 
ATOM     73  H35 non d ame     -35.212   5.429  26.952  0.00  0.00     0.036 H 
ATOM     74  H36 non d ame     -35.996   3.903  27.740  0.00  0.00     0.036 H 
BRANCH  72  75
ATOM     75  C25 non d ame     -37.012   5.798  28.139  0.00  0.00    -0.001 C 
ATOM     76  C26 non d ame     -38.030   4.907  29.075  0.00  0.00    -0.035 C 
ATOM     77  C27 non d ame     -39.262   4.921  28.514  0.00  0.00     0.085 C 
ATOM     78  H38 non d ame     -37.745   3.856  29.040  0.00  0.00     0.036 H 
ATOM     79  H39 non d ame     -38.181   5.400  30.035  0.00  0.00     0.036 H 
ATOM     80  N5  non d ame     -39.105   5.465  27.114  0.00  0.00    -0.049 N 
ATOM     81  H40 non d ame     -39.568   3.876  28.457  0.00  0.00     0.075 H 
ATOM     82  H41 non d ame     -39.844   5.628  29.105  0.00  0.00     0.075 H 
ATOM     83  C28 non d ame     -37.638   6.137  27.062  0.00  0.00     0.193 C 
ATOM     84  H42 non d ame     -39.115   4.667  26.494  0.00  0.00     0.280 HD
ATOM     85  H43 non d ame     -39.797   6.193  27.011  0.00  0.00     0.280 HD
ATOM     86  H44 non d ame     -37.524   7.220  27.098  0.00  0.00     0.129 H 
ATOM     87  H37 non d ame     -36.777   6.806  28.483  0.00  0.00     0.046 H 
BRANCH  83  88
ATOM     88  O6  non d ame     -36.946   5.720  25.883  0.00  0.00    -0.369 OA
ATOM     89  H45 non d ame     -37.339   4.908  25.552  0.00  0.00     0.212 HD
ENDBRANCH  83  88
ENDBRANCH  72  75
ENDBRANCH  47  72
ENDBRANCH  45  47
ENDBRANCH   1  43
BRANCH   1  90
ATOM     90  C16 non d ame     -36.264   8.931  31.242  0.00  0.00    -0.035 C 
ATOM     91  H21 non d ame     -36.873   8.384  31.962  0.00  0.00     0.037 H 
ATOM     92  H22 non d ame     -36.060   9.991  31.395  0.00  0.00     0.037 H 
BRANCH  90  93
ATOM     93  C17 non d ame     -36.998   8.817  29.868  0.00  0.00    -0.059 C 
ATOM     94  H23 non d ame     -36.545   7.992  29.319  0.00  0.00     0.038 H 
BRANCH  93  95
ATOM     95  C18 non d ame     -38.518   8.499  30.037  0.00  0.00    -0.073 C 
ATOM     96  H24 non d ame     -39.102   9.174  29.412  0.00  0.00     0.028 H 
ATOM     97  H25 non d ame     -38.710   7.469  29.735  0.00  0.00     0.028 H 
ATOM     98  H26 non d ame     -38.804   8.630  31.080  0.00  0.00     0.028 H 
ENDBRANCH  93  95
BRANCH  93  99
ATOM     99  C19 non d ame     -36.796  10.084  29.034  0.00  0.00    -0.073 C 
ATOM    100  H27 non d ame     -37.766  10.479  28.731  0.00  0.00     0.028 H 
ATOM    101  H28 non d ame     -36.269  10.831  29.628  0.00  0.00     0.028 H 
ATOM    102  H29 non d ame     -36.208   9.846  28.148  0.00  0.00     0.028 H 
ENDBRANCH  93  99
ENDBRANCH  90  93
ENDBRANCH   1  90
TORSDOF 26
ENDMDL
MODEL 7
REMARK VINA RESULT:      -6.4      3.788      9.077
REMARK  26 active torsions:
REMARK  status: ('A' for Active; 'I' for Inactive)
REMARK    1  A    between atoms: C2_2  and  C3_3 
REMARK    2  A    between atoms: C4_6  and  C5_7 
REMARK       I    between atoms: C5_7  and  N2_9 
REMARK    3  A    between atoms: N2_9  and  C6_10 
REMARK    4  A    between atoms: C6_10  and  C7_11 
REMARK    5  A    between atoms: C6_10  and  C8_13 
REMARK       I    between atoms: C7_11  and  N3_14 
REMARK    6  A    between atoms: N3_14  and  C9_15 
REMARK    7  A    between atoms: C9_15  and  C10_16 
REMARK    8  A    between atoms: C9_15  and  C11_18 
REMARK       I    between atoms: C10_16  and  N4_21 
REMARK    9  A    between atoms: C11_18  and  C12_19 
REMARK   10  A    between atoms: C11_18  and  C13_20 
REMARK   11  A    between atoms: N4_21  and  C14_22 
REMARK   12  A    between atoms: C14_22  and  C15_23 
REMARK   13  A    between atoms: C14_22  and  C16_25 
REMARK       I    between atoms: C15_23  and  N6_40 
REMARK   14  A    between atoms: C16_25  and  C17_26 
REMARK   15  A    between atoms: C17_26  and  C18_27 
REMARK   16  A    between atoms: C17_26  and  C19_28 
REMARK   17  A    between atoms: C20_29  and  C21_30 
REMARK   18  A    between atoms: C20_29  and  C24_33 
REMARK   19  A    between atoms: C20_29  and  N6_40 
REMARK   20  A    between atoms: C21_30  and  C22_31 
REMARK   21  A    between atoms: C22_31  and  C23_32 
REMARK   22  A    between atoms: C23_32  and  O8_43 
REMARK   23  A    between atoms: C24_33  and  C25_34 
REMARK   24  A    between atoms: C28_38  and  O6_39 
REMARK   25  A    between atoms: C29_42  and  O8_43 
REMARK   26  A    between atoms: C29_42  and  C35_49 
ROOT
ATOM      1  C14 non d ame     -34.850   9.349  29.412  0.00  0.00     0.089 C 
ATOM      2  H20 non d ame     -35.123   9.415  28.359  0.00  0.00     0.087 H 
ENDROOT
BRANCH   1   3
ATOM      3  N4  non d ame     -34.595   7.948  29.712  0.00  0.00    -0.346 N 
ATOM      4  C10 non d ame     -35.365   6.865  29.000  0.00  0.00     0.241 C 
ATOM      5  O4  non d ame     -36.188   7.145  28.192  0.00  0.00    -0.271 OA
ATOM      6  H19 non d ame     -33.892   7.731  30.404  0.00  0.00     0.163 HD
BRANCH   4   7
ATOM      7  C9  non d ame     -35.084   5.420  29.319  0.00  0.00     0.092 C 
ATOM      8  H11 non d ame     -36.028   4.894  29.464  0.00  0.00     0.088 H 
BRANCH   7   9
ATOM      9  N3  non d ame     -34.408   4.790  28.181  0.00  0.00    -0.346 N 
ATOM     10  C7  non d ame     -35.155   3.961  27.268  0.00  0.00     0.240 C 
ATOM     11  O3  non d ame     -36.300   3.788  27.435  0.00  0.00    -0.271 OA
ATOM     12  H10 non d ame     -33.420   4.929  28.025  0.00  0.00     0.163 HD
BRANCH  10  13
ATOM     13  C6  non d ame     -34.429   3.291  26.060  0.00  0.00     0.086 C 
ATOM     14  H6  non d ame     -35.118   2.964  25.282  0.00  0.00     0.086 H 
BRANCH  13  15
ATOM     15  N2  non d ame     -33.540   4.264  25.446  0.00  0.00    -0.343 N 
ATOM     16  C5  non d ame     -34.018   5.068  24.320  0.00  0.00     0.273 C 
ATOM     17  O2  non d ame     -35.118   4.923  23.913  0.00  0.00    -0.266 OA
ATOM     18  H5  non d ame     -32.600   4.379  25.799  0.00  0.00     0.163 HD
BRANCH  16  19
ATOM     19  C4  non d ame     -33.089   6.101  23.663  0.00  0.00     0.154 A 
ATOM     20  C1  non d ame     -31.667   6.188  23.787  0.00  0.00    -0.017 A 
ATOM     21  C2  non d ame     -31.299   7.299  22.995  0.00  0.00     0.077 A 
ATOM     22  H1  non d ame     -31.002   5.544  24.364  0.00  0.00     0.091 H 
ATOM     23  O1  non d ame     -32.390   7.784  22.480  0.00  0.00    -0.218 OA
ATOM     24  N1  non d ame     -33.448   7.103  22.855  0.00  0.00    -0.123 NA
BRANCH  21  25
ATOM     25  C3  non d ame     -29.887   7.828  22.784  0.00  0.00    -0.029 C 
ATOM     26  H2  non d ame     -29.264   7.042  22.357  0.00  0.00     0.036 H 
ATOM     27  H3  non d ame     -29.916   8.678  22.104  0.00  0.00     0.036 H 
ATOM     28  H4  non d ame     -29.470   8.142  23.741  0.00  0.00     0.036 H 
ENDBRANCH  21  25
ENDBRANCH  16  19
ENDBRANCH  13  15
BRANCH  13  29
ATOM     29  C8  non d ame     -33.639   2.101  26.542  0.00  0.00    -0.049 C 
ATOM     30  H7  non d ame     -32.620   2.412  26.776  0.00  0.00     0.030 H 
ATOM     31  H8  non d ame     -34.108   1.692  27.436  0.00  0.00     0.030 H 
ATOM     32  H9  non d ame     -33.616   1.340  25.762  0.00  0.00     0.030 H 
ENDBRANCH  13  29
ENDBRANCH  10  13
ENDBRANCH   7   9
BRANCH   7  33
ATOM     33  C11 non d ame     -34.168   5.334  30.575  0.00  0.00    -0.033 C 
ATOM     34  H12 non d ame     -33.572   6.246  30.610  0.00  0.00     0.042 H 
BRANCH  33  35
ATOM     35  C12 non d ame     -35.009   5.274  31.889  0.00  0.00    -0.071 C 
ATOM     36  H13 non d ame     -34.477   4.683  32.634  0.00  0.00     0.028 H 
ATOM     37  H14 non d ame     -35.163   6.284  32.268  0.00  0.00     0.028 H 
ATOM     38  H15 non d ame     -35.974   4.812  31.681  0.00  0.00     0.028 H 
ENDBRANCH  33  35
BRANCH  33  39
ATOM     39  C13 non d ame     -33.190   4.120  30.473  0.00  0.00    -0.071 C 
ATOM     40  H16 non d ame     -33.109   3.636  31.446  0.00  0.00     0.028 H 
ATOM     41  H17 non d ame     -33.572   3.406  29.742  0.00  0.00     0.028 H 
ATOM     42  H18 non d ame     -32.208   4.471  30.157  0.00  0.00     0.028 H 
ENDBRANCH  33  39
ENDBRANCH   7  33
ENDBRANCH   4   7
ENDBRANCH   1   3
BRANCH   1  43
ATOM     43  C15 non d ame     -33.567  10.167  29.737  0.00  0.00     0.240 C 
ATOM     44  O5  non d ame     -33.023  10.021  30.784  0.00  0.00    -0.271 OA
ATOM     45  N6  non d ame     -33.012  11.126  28.740  0.00  0.00    -0.355 N 
ATOM     46  H46 non d ame     -33.462  11.255  27.846  0.00  0.00     0.162 HD
BRANCH  45  47
ATOM     47  C20 non d ame     -31.790  11.895  29.064  0.00  0.00     0.013 C 
ATOM     48  H30 non d ame     -31.120  11.241  29.621  0.00  0.00     0.072 H 
BRANCH  47  49
ATOM     49  C21 non d ame     -32.163  13.092  29.908  0.00  0.00    -0.038 C 
ATOM     50  H31 non d ame     -33.035  13.534  29.425  0.00  0.00     0.036 H 
ATOM     51  H32 non d ame     -32.236  12.720  30.930  0.00  0.00     0.036 H 
BRANCH  49  52
ATOM     52  C22 non d ame     -31.070  14.183  29.917  0.00  0.00     0.018 C 
ATOM     53  H33 non d ame     -30.746  14.268  30.954  0.00  0.00     0.048 H 
ATOM     54  H34 non d ame     -30.357  13.893  29.145  0.00  0.00     0.048 H 
BRANCH  52  55
ATOM     55  C23 non d ame     -31.588  15.592  29.514  0.00  0.00     0.259 C 
ATOM     56  O7  non d ame     -31.478  16.511  30.260  0.00  0.00    -0.265 OA
BRANCH  55  57
ATOM     57  O8  non d ame     -32.207  15.770  28.246  0.00  0.00    -0.317 OA
BRANCH  57  58
ATOM     58  C29 non d ame     -33.457  16.464  28.301  0.00  0.00     0.052 C 
ATOM     59  H47 non d ame     -34.176  15.815  27.801  0.00  0.00     0.082 H 
ATOM     60  H48 non d ame     -33.600  16.732  29.348  0.00  0.00     0.082 H 
BRANCH  58  61
ATOM     61  C35 non d ame     -33.316  17.770  27.475  0.00  0.00    -0.034 A 
ATOM     62  C30 non d ame     -33.480  17.742  26.094  0.00  0.00    -0.075 A 
ATOM     63  C31 non d ame     -33.354  18.915  25.352  0.00  0.00    -0.082 A 
ATOM     64  H49 non d ame     -33.708  16.801  25.593  0.00  0.00     0.084 H 
ATOM     65  C32 non d ame     -33.059  20.120  25.996  0.00  0.00    -0.083 A 
ATOM     66  H50 non d ame     -33.485  18.891  24.270  0.00  0.00     0.083 H 
ATOM     67  C33 non d ame     -32.892  20.142  27.374  0.00  0.00    -0.082 A 
ATOM     68  H51 non d ame     -32.958  21.042  25.423  0.00  0.00     0.083 H 
ATOM     69  C34 non d ame     -33.020  18.973  28.120  0.00  0.00    -0.075 A 
ATOM     70  H52 non d ame     -32.660  21.084  27.873  0.00  0.00     0.083 H 
ATOM     71  H53 non d ame     -32.889  18.998  29.202  0.00  0.00     0.084 H 
ENDBRANCH  58  61
ENDBRANCH  57  58
ENDBRANCH  55  57
ENDBRANCH  52  55
ENDBRANCH  49  52
ENDBRANCH  47  49
BRANCH  47  72
ATOM     72  C24 non d ame     -31.121  12.368  27.775  0.00  0.00    -0.039 C 
ATOM     73  H35 non d ame     -31.034  13.450  27.874  0.00  0.00     0.036 H 
ATOM     74  H36 non d ame     -30.224  11.757  27.673  0.00  0.00     0.036 H 
BRANCH  72  75
ATOM     75  C25 non d ame     -32.036  12.082  26.492  0.00  0.00    -0.001 C 
ATOM     76  C26 non d ame     -31.463  10.775  25.675  0.00  0.00    -0.035 C 
ATOM     77  C27 non d ame     -31.316  11.107  24.370  0.00  0.00     0.085 C 
ATOM     78  H38 non d ame     -30.447  10.550  25.997  0.00  0.00     0.036 H 
ATOM     79  H39 non d ame     -32.216   9.987  25.655  0.00  0.00     0.036 H 
ATOM     80  N5  non d ame     -31.425  12.610  24.281  0.00  0.00    -0.049 N 
ATOM     81  H40 non d ame     -30.302  10.807  24.106  0.00  0.00     0.075 H 
ATOM     82  H41 non d ame     -32.167  10.659  23.858  0.00  0.00     0.075 H 
ATOM     83  C28 non d ame     -32.046  13.094  25.690  0.00  0.00     0.193 C 
ATOM     84  H42 non d ame     -30.480  12.961  24.209  0.00  0.00     0.280 HD
ATOM     85  H43 non d ame     -32.094  12.805  23.550  0.00  0.00     0.280 HD
ATOM     86  H44 non d ame     -33.093  13.392  25.760  0.00  0.00     0.129 H 
ATOM     87  H37 non d ame     -33.100  12.089  26.734  0.00  0.00     0.046 H 
BRANCH  83  88
ATOM     88  O6  non d ame     -31.299  14.197  26.205  0.00  0.00    -0.369 OA
ATOM     89  H45 non d ame     -31.900  14.906  26.448  0.00  0.00     0.212 HD
ENDBRANCH  83  88
ENDBRANCH  72  75
ENDBRANCH  47  72
ENDBRANCH  45  47
ENDBRANCH   1  43
BRANCH   1  90
ATOM     90  C16 non d ame     -36.001   9.840  30.275  0.00  0.00    -0.035 C 
ATOM     91  H21 non d ame     -35.682  10.808  30.659  0.00  0.00     0.037 H 
ATOM     92  H22 non d ame     -36.886   9.769  29.642  0.00  0.00     0.037 H 
BRANCH  90  93
ATOM     93  C17 non d ame     -36.277   8.941  31.522  0.00  0.00    -0.059 C 
ATOM     94  H23 non d ame     -35.756   7.995  31.370  0.00  0.00     0.038 H 
BRANCH  93  95
ATOM     95  C18 non d ame     -35.731   9.578  32.840  0.00  0.00    -0.073 C 
ATOM     96  H24 non d ame     -34.831  10.152  32.621  0.00  0.00     0.028 H 
ATOM     97  H25 non d ame     -36.487  10.237  33.265  0.00  0.00     0.028 H 
ATOM     98  H26 non d ame     -35.494   8.789  33.554  0.00  0.00     0.028 H 
ENDBRANCH  93  95
BRANCH  93  99
ATOM     99  C19 non d ame     -37.769   8.623  31.648  0.00  0.00    -0.073 C 
ATOM    100  H27 non d ame     -38.028   7.815  30.963  0.00  0.00     0.028 H 
ATOM    101  H28 non d ame     -37.991   8.317  32.670  0.00  0.00     0.028 H 
ATOM    102  H29 non d ame     -38.351   9.510  31.400  0.00  0.00     0.028 H 
ENDBRANCH  93  99
ENDBRANCH  90  93
ENDBRANCH   1  90
TORSDOF 26
ENDMDL
MODEL 8
REMARK VINA RESULT:      -6.3      2.271      8.399
REMARK  26 active torsions:
REMARK  status: ('A' for Active; 'I' for Inactive)
REMARK    1  A    between atoms: C2_2  and  C3_3 
REMARK    2  A    between atoms: C4_6  and  C5_7 
REMARK       I    between atoms: C5_7  and  N2_9 
REMARK    3  A    between atoms: N2_9  and  C6_10 
REMARK    4  A    between atoms: C6_10  and  C7_11 
REMARK    5  A    between atoms: C6_10  and  C8_13 
REMARK       I    between atoms: C7_11  and  N3_14 
REMARK    6  A    between atoms: N3_14  and  C9_15 
REMARK    7  A    between atoms: C9_15  and  C10_16 
REMARK    8  A    between atoms: C9_15  and  C11_18 
REMARK       I    between atoms: C10_16  and  N4_21 
REMARK    9  A    between atoms: C11_18  and  C12_19 
REMARK   10  A    between atoms: C11_18  and  C13_20 
REMARK   11  A    between atoms: N4_21  and  C14_22 
REMARK   12  A    between atoms: C14_22  and  C15_23 
REMARK   13  A    between atoms: C14_22  and  C16_25 
REMARK       I    between atoms: C15_23  and  N6_40 
REMARK   14  A    between atoms: C16_25  and  C17_26 
REMARK   15  A    between atoms: C17_26  and  C18_27 
REMARK   16  A    between atoms: C17_26  and  C19_28 
REMARK   17  A    between atoms: C20_29  and  C21_30 
REMARK   18  A    between atoms: C20_29  and  C24_33 
REMARK   19  A    between atoms: C20_29  and  N6_40 
REMARK   20  A    between atoms: C21_30  and  C22_31 
REMARK   21  A    between atoms: C22_31  and  C23_32 
REMARK   22  A    between atoms: C23_32  and  O8_43 
REMARK   23  A    between atoms: C24_33  and  C25_34 
REMARK   24  A    between atoms: C28_38  and  O6_39 
REMARK   25  A    between atoms: C29_42  and  O8_43 
REMARK   26  A    between atoms: C29_42  and  C35_49 
ROOT
ATOM      1  C14 non d ame     -36.373  15.552  26.391  0.00  0.00     0.089 C 
ATOM      2  H20 non d ame     -37.065  16.032  27.084  0.00  0.00     0.087 H 
ENDROOT
BRANCH   1   3
ATOM      3  N4  non d ame     -35.025  15.778  26.891  0.00  0.00    -0.346 N 
ATOM      4  C10 non d ame     -34.670  17.080  27.564  0.00  0.00     0.241 C 
ATOM      5  O4  non d ame     -35.486  17.933  27.689  0.00  0.00    -0.271 OA
ATOM      6  H19 non d ame     -34.345  15.040  26.773  0.00  0.00     0.163 HD
BRANCH   4   7
ATOM      7  C9  non d ame     -33.272  17.294  28.081  0.00  0.00     0.092 C 
ATOM      8  H11 non d ame     -33.319  17.815  29.037  0.00  0.00     0.088 H 
BRANCH   7   9
ATOM      9  N3  non d ame     -32.637  15.995  28.325  0.00  0.00    -0.346 N 
ATOM     10  C7  non d ame     -31.800  15.810  29.486  0.00  0.00     0.240 C 
ATOM     11  O3  non d ame     -31.626  16.695  30.232  0.00  0.00    -0.271 OA
ATOM     12  H10 non d ame     -32.776  15.223  27.690  0.00  0.00     0.163 HD
BRANCH  10  13
ATOM     13  C6  non d ame     -31.124  14.427  29.739  0.00  0.00     0.086 C 
ATOM     14  H6  non d ame     -30.497  14.421  30.630  0.00  0.00     0.086 H 
BRANCH  13  15
ATOM     15  N2  non d ame     -32.159  13.429  29.953  0.00  0.00    -0.343 N 
ATOM     16  C5  non d ame     -31.825  12.179  30.639  0.00  0.00     0.273 C 
ATOM     17  O2  non d ame     -30.721  11.984  31.013  0.00  0.00    -0.266 OA
ATOM     18  H5  non d ame     -33.100  13.602  29.628  0.00  0.00     0.163 HD
BRANCH  16  19
ATOM     19  C4  non d ame     -32.910  11.115  30.873  0.00  0.00     0.154 A 
ATOM     20  C1  non d ame     -33.269  10.040  30.000  0.00  0.00    -0.017 A 
ATOM     21  C2  non d ame     -34.309   9.359  30.671  0.00  0.00     0.077 A 
ATOM     22  H1  non d ame     -32.841   9.792  29.029  0.00  0.00     0.091 H 
ATOM     23  O1  non d ame     -34.514   9.978  31.797  0.00  0.00    -0.218 OA
ATOM     24  N1  non d ame     -33.710  11.006  31.937  0.00  0.00    -0.123 NA
BRANCH  21  25
ATOM     25  C3  non d ame     -35.051   8.128  30.169  0.00  0.00    -0.029 C 
ATOM     26  H2  non d ame     -34.406   7.563  29.497  0.00  0.00     0.036 H 
ATOM     27  H3  non d ame     -35.331   7.502  31.016  0.00  0.00     0.036 H 
ATOM     28  H4  non d ame     -35.949   8.437  29.635  0.00  0.00     0.036 H 
ENDBRANCH  21  25
ENDBRANCH  16  19
ENDBRANCH  13  15
BRANCH  13  29
ATOM     29  C8  non d ame     -30.281  14.050  28.548  0.00  0.00    -0.049 C 
ATOM     30  H7  non d ame     -30.013  14.949  27.994  0.00  0.00     0.030 H 
ATOM     31  H8  non d ame     -29.376  13.549  28.887  0.00  0.00     0.030 H 
ATOM     32  H9  non d ame     -30.847  13.380  27.900  0.00  0.00     0.030 H 
ENDBRANCH  13  29
ENDBRANCH  10  13
ENDBRANCH   7   9
BRANCH   7  33
ATOM     33  C11 non d ame     -32.443  18.082  27.024  0.00  0.00    -0.033 C 
ATOM     34  H12 non d ame     -31.399  17.794  27.143  0.00  0.00     0.042 H 
BRANCH  33  35
ATOM     35  C12 non d ame     -32.871  17.706  25.571  0.00  0.00    -0.071 C 
ATOM     36  H13 non d ame     -33.958  17.720  25.497  0.00  0.00     0.028 H 
ATOM     37  H14 non d ame     -32.449  18.426  24.870  0.00  0.00     0.028 H 
ATOM     38  H15 non d ame     -32.504  16.708  25.332  0.00  0.00     0.028 H 
ENDBRANCH  33  35
BRANCH  33  39
ATOM     39  C13 non d ame     -32.551  19.622  27.265  0.00  0.00    -0.071 C 
ATOM     40  H16 non d ame     -32.023  20.152  26.471  0.00  0.00     0.028 H 
ATOM     41  H17 non d ame     -33.600  19.918  27.264  0.00  0.00     0.028 H 
ATOM     42  H18 non d ame     -32.104  19.871  28.228  0.00  0.00     0.028 H 
ENDBRANCH  33  39
ENDBRANCH   7  33
ENDBRANCH   4   7
ENDBRANCH   1   3
BRANCH   1  43
ATOM     43  C15 non d ame     -36.614  14.019  26.289  0.00  0.00     0.240 C 
ATOM     44  O5  non d ame     -37.543  13.528  26.844  0.00  0.00    -0.271 OA
ATOM     45  N6  non d ame     -35.689  13.163  25.493  0.00  0.00    -0.355 N 
ATOM     46  H46 non d ame     -34.899  13.568  25.013  0.00  0.00     0.162 HD
BRANCH  45  47
ATOM     47  C20 non d ame     -35.932  11.706  25.404  0.00  0.00     0.013 C 
ATOM     48  H30 non d ame     -36.491  11.405  26.290  0.00  0.00     0.072 H 
BRANCH  47  49
ATOM     49  C21 non d ame     -34.607  10.980  25.358  0.00  0.00    -0.038 C 
ATOM     50  H31 non d ame     -34.853   9.918  25.347  0.00  0.00     0.036 H 
ATOM     51  H32 non d ame     -34.058  11.422  24.526  0.00  0.00     0.036 H 
BRANCH  49  52
ATOM     52  C22 non d ame     -33.750  11.217  26.621  0.00  0.00     0.018 C 
ATOM     53  H33 non d ame     -34.120  12.143  27.060  0.00  0.00     0.048 H 
ATOM     54  H34 non d ame     -33.798  10.287  27.189  0.00  0.00     0.048 H 
BRANCH  52  55
ATOM     55  C23 non d ame     -32.245  11.457  26.320  0.00  0.00     0.259 C 
ATOM     56  O7  non d ame     -31.414  11.150  27.113  0.00  0.00    -0.265 OA
BRANCH  55  57
ATOM     57  O8  non d ame     -31.868  12.063  25.089  0.00  0.00    -0.317 OA
BRANCH  57  58
ATOM     58  C29 non d ame     -31.657  13.475  25.176  0.00  0.00     0.052 C 
ATOM     59  H47 non d ame     -32.647  13.926  25.107  0.00  0.00     0.082 H 
ATOM     60  H48 non d ame     -31.049  13.629  26.067  0.00  0.00     0.082 H 
BRANCH  58  61
ATOM     61  C35 non d ame     -30.831  13.912  23.937  0.00  0.00    -0.034 A 
ATOM     62  C30 non d ame     -30.645  15.264  23.665  0.00  0.00    -0.075 A 
ATOM     63  C31 non d ame     -29.903  15.657  22.552  0.00  0.00    -0.082 A 
ATOM     64  H49 non d ame     -31.081  16.016  24.323  0.00  0.00     0.084 H 
ATOM     65  C32 non d ame     -29.347  14.692  21.708  0.00  0.00    -0.083 A 
ATOM     66  H50 non d ame     -29.758  16.717  22.343  0.00  0.00     0.083 H 
ATOM     67  C33 non d ame     -29.538  13.344  21.981  0.00  0.00    -0.082 A 
ATOM     68  H51 non d ame     -28.765  14.991  20.836  0.00  0.00     0.083 H 
ATOM     69  C34 non d ame     -30.277  12.947  23.093  0.00  0.00    -0.075 A 
ATOM     70  H52 non d ame     -29.105  12.594  21.319  0.00  0.00     0.083 H 
ATOM     71  H53 non d ame     -30.422  11.887  23.302  0.00  0.00     0.084 H 
ENDBRANCH  58  61
ENDBRANCH  57  58
ENDBRANCH  55  57
ENDBRANCH  52  55
ENDBRANCH  49  52
ENDBRANCH  47  49
BRANCH  47  72
ATOM     72  C24 non d ame     -36.730  11.392  24.141  0.00  0.00    -0.039 C 
ATOM     73  H35 non d ame     -37.265  12.310  23.899  0.00  0.00     0.036 H 
ATOM     74  H36 non d ame     -36.007  10.981  23.436  0.00  0.00     0.036 H 
BRANCH  72  75
ATOM     75  C25 non d ame     -37.832  10.258  24.403  0.00  0.00    -0.001 C 
ATOM     76  C26 non d ame     -37.808   9.809  25.984  0.00  0.00    -0.035 C 
ATOM     77  C27 non d ame     -37.715   8.459  26.053  0.00  0.00     0.085 C 
ATOM     78  H38 non d ame     -36.887  10.151  26.456  0.00  0.00     0.036 H 
ATOM     79  H39 non d ame     -38.771  10.022  26.448  0.00  0.00     0.036 H 
ATOM     80  N5  non d ame     -37.345   7.971  24.673  0.00  0.00    -0.049 N 
ATOM     81  H40 non d ame     -36.889   8.258  26.735  0.00  0.00     0.075 H 
ATOM     82  H41 non d ame     -38.719   8.110  26.295  0.00  0.00     0.075 H 
ATOM     83  C28 non d ame     -37.610   9.214  23.677  0.00  0.00     0.193 C 
ATOM     84  H42 non d ame     -36.353   7.781  24.693  0.00  0.00     0.280 HD
ATOM     85  H43 non d ame     -37.997   7.233  24.447  0.00  0.00     0.280 HD
ATOM     86  H44 non d ame     -38.489   9.230  23.033  0.00  0.00     0.129 H 
ATOM     87  H37 non d ame     -38.801  10.518  23.976  0.00  0.00     0.046 H 
BRANCH  83  88
ATOM     88  O6  non d ame     -36.494   9.392  22.803  0.00  0.00    -0.369 OA
ATOM     89  H45 non d ame     -36.099  10.253  22.960  0.00  0.00     0.212 HD
ENDBRANCH  83  88
ENDBRANCH  72  75
ENDBRANCH  47  72
ENDBRANCH  45  47
ENDBRANCH   1  43
BRANCH   1  90
ATOM     90  C16 non d ame     -36.503  16.183  25.014  0.00  0.00    -0.035 C 
ATOM     91  H21 non d ame     -35.805  17.019  25.012  0.00  0.00     0.037 H 
ATOM     92  H22 non d ame     -36.373  15.363  24.307  0.00  0.00     0.037 H 
BRANCH  90  93
ATOM     93  C17 non d ame     -37.915  16.788  24.732  0.00  0.00    -0.059 C 
ATOM     94  H23 non d ame     -38.534  15.999  24.304  0.00  0.00     0.038 H 
BRANCH  93  95
ATOM     95  C18 non d ame     -38.614  17.285  26.038  0.00  0.00    -0.073 C 
ATOM     96  H24 non d ame     -38.635  16.478  26.769  0.00  0.00     0.028 H 
ATOM     97  H25 non d ame     -38.061  18.130  26.447  0.00  0.00     0.028 H 
ATOM     98  H26 non d ame     -39.634  17.594  25.809  0.00  0.00     0.028 H 
ENDBRANCH  93  95
BRANCH  93  99
ATOM     99  C19 non d ame     -37.832  17.912  23.697  0.00  0.00    -0.073 C 
ATOM    100  H27 non d ame     -38.622  18.640  23.886  0.00  0.00     0.028 H 
ATOM    101  H28 non d ame     -36.861  18.403  23.770  0.00  0.00     0.028 H 
ATOM    102  H29 non d ame     -37.953  17.496  22.697  0.00  0.00     0.028 H 
ENDBRANCH  93  99
ENDBRANCH  90  93
ENDBRANCH   1  90
TORSDOF 26
ENDMDL
MODEL 9
REMARK VINA RESULT:      -6.3      4.064      9.643
REMARK  26 active torsions:
REMARK  status: ('A' for Active; 'I' for Inactive)
REMARK    1  A    between atoms: C2_2  and  C3_3 
REMARK    2  A    between atoms: C4_6  and  C5_7 
REMARK       I    between atoms: C5_7  and  N2_9 
REMARK    3  A    between atoms: N2_9  and  C6_10 
REMARK    4  A    between atoms: C6_10  and  C7_11 
REMARK    5  A    between atoms: C6_10  and  C8_13 
REMARK       I    between atoms: C7_11  and  N3_14 
REMARK    6  A    between atoms: N3_14  and  C9_15 
REMARK    7  A    between atoms: C9_15  and  C10_16 
REMARK    8  A    between atoms: C9_15  and  C11_18 
REMARK       I    between atoms: C10_16  and  N4_21 
REMARK    9  A    between atoms: C11_18  and  C12_19 
REMARK   10  A    between atoms: C11_18  and  C13_20 
REMARK   11  A    between atoms: N4_21  and  C14_22 
REMARK   12  A    between atoms: C14_22  and  C15_23 
REMARK   13  A    between atoms: C14_22  and  C16_25 
REMARK       I    between atoms: C15_23  and  N6_40 
REMARK   14  A    between atoms: C16_25  and  C17_26 
REMARK   15  A    between atoms: C17_26  and  C18_27 
REMARK   16  A    between atoms: C17_26  and  C19_28 
REMARK   17  A    between atoms: C20_29  and  C21_30 
REMARK   18  A    between atoms: C20_29  and  C24_33 
REMARK   19  A    between atoms: C20_29  and  N6_40 
REMARK   20  A    between atoms: C21_30  and  C22_31 
REMARK   21  A    between atoms: C22_31  and  C23_32 
REMARK   22  A    between atoms: C23_32  and  O8_43 
REMARK   23  A    between atoms: C24_33  and  C25_34 
REMARK   24  A    between atoms: C28_38  and  O6_39 
REMARK   25  A    between atoms: C29_42  and  O8_43 
REMARK   26  A    between atoms: C29_42  and  C35_49 
ROOT
ATOM      1  C14 non d ame     -34.822   8.116  31.048  0.00  0.00     0.089 C 
ATOM      2  H20 non d ame     -34.033   8.449  31.724  0.00  0.00     0.087 H 
ENDROOT
BRANCH   1   3
ATOM      3  N4  non d ame     -34.744   8.935  29.847  0.00  0.00    -0.346 N 
ATOM      4  C10 non d ame     -33.729  10.046  29.747  0.00  0.00     0.241 C 
ATOM      5  O4  non d ame     -32.987  10.264  30.648  0.00  0.00    -0.271 OA
ATOM      6  H19 non d ame     -35.386   8.735  29.093  0.00  0.00     0.163 HD
BRANCH   4   7
ATOM      7  C9  non d ame     -33.659  10.880  28.495  0.00  0.00     0.092 C 
ATOM      8  H11 non d ame     -34.431  11.649  28.533  0.00  0.00     0.088 H 
BRANCH   7   9
ATOM      9  N3  non d ame     -32.365  11.567  28.436  0.00  0.00    -0.346 N 
ATOM     10  C7  non d ame     -32.315  13.008  28.393  0.00  0.00     0.240 C 
ATOM     11  O3  non d ame     -33.307  13.630  28.404  0.00  0.00    -0.271 OA
ATOM     12  H10 non d ame     -31.502  11.043  28.425  0.00  0.00     0.163 HD
BRANCH  10  13
ATOM     13  C6  non d ame     -30.935  13.732  28.328  0.00  0.00     0.086 C 
ATOM     14  H6  non d ame     -30.096  13.038  28.277  0.00  0.00     0.086 H 
BRANCH  13  15
ATOM     15  N2  non d ame     -30.883  14.538  27.119  0.00  0.00    -0.343 N 
ATOM     16  C5  non d ame     -31.046  13.892  25.815  0.00  0.00     0.273 C 
ATOM     17  O2  non d ame     -31.217  12.724  25.749  0.00  0.00    -0.266 OA
ATOM     18  H5  non d ame     -30.734  15.535  27.184  0.00  0.00     0.163 HD
BRANCH  16  19
ATOM     19  C4  non d ame     -30.994  14.731  24.528  0.00  0.00     0.154 A 
ATOM     20  C1  non d ame     -30.067  14.598  23.446  0.00  0.00    -0.017 A 
ATOM     21  C2  non d ame     -30.445  15.596  22.520  0.00  0.00     0.077 A 
ATOM     22  H1  non d ame     -29.247  13.887  23.348  0.00  0.00     0.091 H 
ATOM     23  O1  non d ame     -31.470  16.221  23.020  0.00  0.00    -0.218 OA
ATOM     24  N1  non d ame     -31.809  15.735  24.192  0.00  0.00    -0.123 NA
BRANCH  21  25
ATOM     25  C3  non d ame     -29.776  15.884  21.182  0.00  0.00    -0.029 C 
ATOM     26  H2  non d ame     -30.010  16.901  20.870  0.00  0.00     0.036 H 
ATOM     27  H3  non d ame     -28.696  15.776  21.286  0.00  0.00     0.036 H 
ATOM     28  H4  non d ame     -30.141  15.181  20.434  0.00  0.00     0.036 H 
ENDBRANCH  21  25
ENDBRANCH  16  19
ENDBRANCH  13  15
BRANCH  13  29
ATOM     29  C8  non d ame     -30.768  14.611  29.541  0.00  0.00    -0.049 C 
ATOM     30  H7  non d ame     -30.863  15.657  29.249  0.00  0.00     0.030 H 
ATOM     31  H8  non d ame     -31.536  14.368  30.275  0.00  0.00     0.030 H 
ATOM     32  H9  non d ame     -29.783  14.445  29.978  0.00  0.00     0.030 H 
ENDBRANCH  13  29
ENDBRANCH  10  13
ENDBRANCH   7   9
BRANCH   7  33
ATOM     33  C11 non d ame     -33.812   9.959  27.249  0.00  0.00    -0.033 C 
ATOM     34  H12 non d ame     -34.351   9.066  27.565  0.00  0.00     0.042 H 
BRANCH  33  35
ATOM     35  C12 non d ame     -34.658  10.648  26.133  0.00  0.00    -0.071 C 
ATOM     36  H13 non d ame     -34.674  11.724  26.302  0.00  0.00     0.028 H 
ATOM     37  H14 non d ame     -34.214  10.439  25.160  0.00  0.00     0.028 H 
ATOM     38  H15 non d ame     -35.677  10.261  26.159  0.00  0.00     0.028 H 
ENDBRANCH  33  35
BRANCH  33  39
ATOM     39  C13 non d ame     -32.415   9.515  26.708  0.00  0.00    -0.071 C 
ATOM     40  H16 non d ame     -31.630  10.020  27.270  0.00  0.00     0.028 H 
ATOM     41  H17 non d ame     -32.307   8.436  26.823  0.00  0.00     0.028 H 
ATOM     42  H18 non d ame     -32.334   9.776  25.653  0.00  0.00     0.028 H 
ENDBRANCH  33  39
ENDBRANCH   7  33
ENDBRANCH   4   7
ENDBRANCH   1   3
BRANCH   1  43
ATOM     43  C15 non d ame     -34.655   6.624  30.641  0.00  0.00     0.240 C 
ATOM     44  O5  non d ame     -34.822   5.769  31.450  0.00  0.00    -0.271 OA
ATOM     45  N6  non d ame     -34.297   6.261  29.240  0.00  0.00    -0.355 N 
ATOM     46  H46 non d ame     -34.158   6.978  28.544  0.00  0.00     0.162 HD
BRANCH  45  47
ATOM     47  C20 non d ame     -34.144   4.837  28.869  0.00  0.00     0.013 C 
ATOM     48  H30 non d ame     -34.057   4.258  29.789  0.00  0.00     0.072 H 
BRANCH  47  49
ATOM     49  C21 non d ame     -32.896   4.670  28.033  0.00  0.00    -0.038 C 
ATOM     50  H31 non d ame     -32.107   4.396  28.733  0.00  0.00     0.036 H 
ATOM     51  H32 non d ame     -33.171   3.990  27.227  0.00  0.00     0.036 H 
BRANCH  49  52
ATOM     52  C22 non d ame     -32.445   5.985  27.360  0.00  0.00     0.018 C 
ATOM     53  H33 non d ame     -33.020   6.775  27.841  0.00  0.00     0.048 H 
ATOM     54  H34 non d ame     -31.356   5.989  27.421  0.00  0.00     0.048 H 
BRANCH  52  55
ATOM     55  C23 non d ame     -32.790   6.065  25.847  0.00  0.00     0.259 C 
ATOM     56  O7  non d ame     -33.906   6.269  25.493  0.00  0.00    -0.265 OA
BRANCH  55  57
ATOM     57  O8  non d ame     -31.758   5.878  24.886  0.00  0.00    -0.317 OA
BRANCH  57  58
ATOM     58  C29 non d ame     -32.123   6.262  23.558  0.00  0.00     0.052 C 
ATOM     59  H47 non d ame     -31.865   5.414  22.924  0.00  0.00     0.082 H 
ATOM     60  H48 non d ame     -33.157   6.599  23.622  0.00  0.00     0.082 H 
BRANCH  58  61
ATOM     61  C35 non d ame     -31.238   7.469  23.147  0.00  0.00    -0.034 A 
ATOM     62  C30 non d ame     -29.917   7.265  22.761  0.00  0.00    -0.075 A 
ATOM     63  C31 non d ame     -29.122   8.349  22.392  0.00  0.00    -0.082 A 
ATOM     64  H49 non d ame     -29.505   6.256  22.746  0.00  0.00     0.084 H 
ATOM     65  C32 non d ame     -29.651   9.642  22.414  0.00  0.00    -0.083 A 
ATOM     66  H50 non d ame     -28.088   8.185  22.088  0.00  0.00     0.083 H 
ATOM     67  C33 non d ame     -30.969   9.841  22.804  0.00  0.00    -0.082 A 
ATOM     68  H51 non d ame     -29.037  10.495  22.127  0.00  0.00     0.083 H 
ATOM     69  C34 non d ame     -31.768   8.761  23.171  0.00  0.00    -0.075 A 
ATOM     70  H52 non d ame     -31.378  10.852  22.822  0.00  0.00     0.083 H 
ATOM     71  H53 non d ame     -32.802   8.925  23.475  0.00  0.00     0.084 H 
ENDBRANCH  58  61
ENDBRANCH  57  58
ENDBRANCH  55  57
ENDBRANCH  52  55
ENDBRANCH  49  52
ENDBRANCH  47  49
BRANCH  47  72
ATOM     72  C24 non d ame     -35.361   4.379  28.067  0.00  0.00    -0.039 C 
ATOM     73  H35 non d ame     -35.005   4.261  27.043  0.00  0.00     0.036 H 
ATOM     74  H36 non d ame     -35.758   3.520  28.608  0.00  0.00     0.036 H 
BRANCH  72  75
ATOM     75  C25 non d ame     -36.510   5.495  28.043  0.00  0.00    -0.001 C 
ATOM     76  C26 non d ame     -37.692   5.105  29.118  0.00  0.00    -0.035 C 
ATOM     77  C27 non d ame     -38.889   5.154  28.486  0.00  0.00     0.085 C 
ATOM     78  H38 non d ame     -37.601   4.059  29.410  0.00  0.00     0.036 H 
ATOM     79  H39 non d ame     -37.774   5.879  29.880  0.00  0.00     0.036 H 
ATOM     80  N5  non d ame     -38.604   5.221  27.005  0.00  0.00    -0.049 N 
ATOM     81  H40 non d ame     -39.376   4.206  28.712  0.00  0.00     0.075 H 
ATOM     82  H41 non d ame     -39.347   6.091  28.802  0.00  0.00     0.075 H 
ATOM     83  C28 non d ame     -37.040   5.595  26.870  0.00  0.00     0.193 C 
ATOM     84  H42 non d ame     -38.744   4.289  26.644  0.00  0.00     0.280 HD
ATOM     85  H43 non d ame     -39.151   5.990  26.644  0.00  0.00     0.280 HD
ATOM     86  H44 non d ame     -36.733   6.606  26.600  0.00  0.00     0.129 H 
ATOM     87  H37 non d ame     -36.105   6.506  28.097  0.00  0.00     0.046 H 
BRANCH  83  88
ATOM     88  O6  non d ame     -36.408   4.737  25.918  0.00  0.00    -0.369 OA
ATOM     89  H45 non d ame     -36.818   4.857  25.058  0.00  0.00     0.212 HD
ENDBRANCH  83  88
ENDBRANCH  72  75
ENDBRANCH  47  72
ENDBRANCH  45  47
ENDBRANCH   1  43
BRANCH   1  90
ATOM     90  C16 non d ame     -36.179   8.320  31.701  0.00  0.00    -0.035 C 
ATOM     91  H21 non d ame     -36.539   7.319  31.937  0.00  0.00     0.037 H 
ATOM     92  H22 non d ame     -36.010   9.042  32.500  0.00  0.00     0.037 H 
BRANCH  90  93
ATOM     93  C17 non d ame     -37.242   8.957  30.750  0.00  0.00    -0.059 C 
ATOM     94  H23 non d ame     -36.857   8.893  29.732  0.00  0.00     0.038 H 
BRANCH  93  95
ATOM     95  C18 non d ame     -38.604   8.192  30.792  0.00  0.00    -0.073 C 
ATOM     96  H24 non d ame     -38.433   7.162  31.104  0.00  0.00     0.028 H 
ATOM     97  H25 non d ame     -39.273   8.679  31.500  0.00  0.00     0.028 H 
ATOM     98  H26 non d ame     -39.056   8.201  29.800  0.00  0.00     0.028 H 
ENDBRANCH  93  95
BRANCH  93  99
ATOM     99  C19 non d ame     -37.442  10.441  31.068  0.00  0.00    -0.073 C 
ATOM    100  H27 non d ame     -38.130  10.544  31.908  0.00  0.00     0.028 H 
ATOM    101  H28 non d ame     -36.482  10.889  31.329  0.00  0.00     0.028 H 
ATOM    102  H29 non d ame     -37.854  10.948  30.196  0.00  0.00     0.028 H 
ENDBRANCH  93  99
ENDBRANCH  90  93
ENDBRANCH   1  90
TORSDOF 26
ENDMDL
MODEL 10
REMARK VINA RESULT:      -6.2      3.152      6.809
REMARK  26 active torsions:
REMARK  status: ('A' for Active; 'I' for Inactive)
REMARK    1  A    between atoms: C2_2  and  C3_3 
REMARK    2  A    between atoms: C4_6  and  C5_7 
REMARK       I    between atoms: C5_7  and  N2_9 
REMARK    3  A    between atoms: N2_9  and  C6_10 
REMARK    4  A    between atoms: C6_10  and  C7_11 
REMARK    5  A    between atoms: C6_10  and  C8_13 
REMARK       I    between atoms: C7_11  and  N3_14 
REMARK    6  A    between atoms: N3_14  and  C9_15 
REMARK    7  A    between atoms: C9_15  and  C10_16 
REMARK    8  A    between atoms: C9_15  and  C11_18 
REMARK       I    between atoms: C10_16  and  N4_21 
REMARK    9  A    between atoms: C11_18  and  C12_19 
REMARK   10  A    between atoms: C11_18  and  C13_20 
REMARK   11  A    between atoms: N4_21  and  C14_22 
REMARK   12  A    between atoms: C14_22  and  C15_23 
REMARK   13  A    between atoms: C14_22  and  C16_25 
REMARK       I    between atoms: C15_23  and  N6_40 
REMARK   14  A    between atoms: C16_25  and  C17_26 
REMARK   15  A    between atoms: C17_26  and  C18_27 
REMARK   16  A    between atoms: C17_26  and  C19_28 
REMARK   17  A    between atoms: C20_29  and  C21_30 
REMARK   18  A    between atoms: C20_29  and  C24_33 
REMARK   19  A    between atoms: C20_29  and  N6_40 
REMARK   20  A    between atoms: C21_30  and  C22_31 
REMARK   21  A    between atoms: C22_31  and  C23_32 
REMARK   22  A    between atoms: C23_32  and  O8_43 
REMARK   23  A    between atoms: C24_33  and  C25_34 
REMARK   24  A    between atoms: C28_38  and  O6_39 
REMARK   25  A    between atoms: C29_42  and  O8_43 
REMARK   26  A    between atoms: C29_42  and  C35_49 
ROOT
ATOM      1  C14 non d ame     -32.079   9.254  23.634  0.00  0.00     0.089 C 
ATOM      2  H20 non d ame     -31.844   8.432  24.311  0.00  0.00     0.087 H 
ENDROOT
BRANCH   1   3
ATOM      3  N4  non d ame     -33.433   9.695  23.934  0.00  0.00    -0.346 N 
ATOM      4  C10 non d ame     -34.439   8.730  24.508  0.00  0.00     0.241 C 
ATOM      5  O4  non d ame     -34.137   7.602  24.717  0.00  0.00    -0.271 OA
ATOM      6  H19 non d ame     -33.671  10.659  23.747  0.00  0.00     0.163 HD
BRANCH   4   7
ATOM      7  C9  non d ame     -35.834   9.206  24.818  0.00  0.00     0.092 C 
ATOM      8  H11 non d ame     -36.554   8.520  24.371  0.00  0.00     0.088 H 
BRANCH   7   9
ATOM      9  N3  non d ame     -36.050   9.177  26.268  0.00  0.00    -0.346 N 
ATOM     10  C7  non d ame     -36.973   8.228  26.840  0.00  0.00     0.240 C 
ATOM     11  O3  non d ame     -37.551   7.481  26.149  0.00  0.00    -0.271 OA
ATOM     12  H10 non d ame     -35.560   9.817  26.876  0.00  0.00     0.163 HD
BRANCH  10  13
ATOM     13  C6  non d ame     -37.201   8.204  28.383  0.00  0.00     0.086 C 
ATOM     14  H6  non d ame     -36.976   7.235  28.828  0.00  0.00     0.086 H 
BRANCH  13  15
ATOM     15  N2  non d ame     -36.305   9.165  29.007  0.00  0.00    -0.343 N 
ATOM     16  C5  non d ame     -35.075   8.694  29.648  0.00  0.00     0.273 C 
ATOM     17  O2  non d ame     -34.817   7.541  29.659  0.00  0.00    -0.266 OA
ATOM     18  H5  non d ame     -36.536  10.149  28.995  0.00  0.00     0.163 HD
BRANCH  16  19
ATOM     19  C4  non d ame     -34.119   9.699  30.309  0.00  0.00     0.154 A 
ATOM     20  C1  non d ame     -32.943  10.279  29.737  0.00  0.00    -0.017 A 
ATOM     21  C2  non d ame     -32.429  11.127  30.743  0.00  0.00     0.077 A 
ATOM     22  H1  non d ame     -32.526  10.110  28.744  0.00  0.00     0.091 H 
ATOM     23  O1  non d ame     -33.225  11.039  31.768  0.00  0.00    -0.218 OA
ATOM     24  N1  non d ame     -34.219  10.211  31.539  0.00  0.00    -0.123 NA
BRANCH  21  25
ATOM     25  C3  non d ame     -31.176  11.987  30.644  0.00  0.00    -0.029 C 
ATOM     26  H2  non d ame     -30.768  12.151  31.641  0.00  0.00     0.036 H 
ATOM     27  H3  non d ame     -30.434  11.478  30.028  0.00  0.00     0.036 H 
ATOM     28  H4  non d ame     -31.427  12.946  30.191  0.00  0.00     0.036 H 
ENDBRANCH  21  25
ENDBRANCH  16  19
ENDBRANCH  13  15
BRANCH  13  29
ATOM     29  C8  non d ame     -38.633   8.560  28.688  0.00  0.00    -0.049 C 
ATOM     30  H7  non d ame     -39.161   8.773  27.758  0.00  0.00     0.030 H 
ATOM     31  H8  non d ame     -39.115   7.725  29.196  0.00  0.00     0.030 H 
ATOM     32  H9  non d ame     -38.661   9.441  29.331  0.00  0.00     0.030 H 
ENDBRANCH  13  29
ENDBRANCH  10  13
ENDBRANCH   7   9
BRANCH   7  33
ATOM     33  C11 non d ame     -36.013  10.663  24.298  0.00  0.00    -0.033 C 
ATOM     34  H12 non d ame     -35.196  10.867  23.607  0.00  0.00     0.042 H 
BRANCH  33  35
ATOM     35  C12 non d ame     -37.348  10.824  23.507  0.00  0.00    -0.071 C 
ATOM     36  H13 non d ame     -37.839   9.855  23.421  0.00  0.00     0.028 H 
ATOM     37  H14 non d ame     -38.003  11.516  24.036  0.00  0.00     0.028 H 
ATOM     38  H15 non d ame     -37.136  11.213  22.512  0.00  0.00     0.028 H 
ENDBRANCH  33  35
BRANCH  33  39
ATOM     39  C13 non d ame     -35.922  11.690  25.472  0.00  0.00    -0.071 C 
ATOM     40  H16 non d ame     -36.877  12.204  25.580  0.00  0.00     0.028 H 
ATOM     41  H17 non d ame     -35.684  11.165  26.397  0.00  0.00     0.028 H 
ATOM     42  H18 non d ame     -35.139  12.418  25.257  0.00  0.00     0.028 H 
ENDBRANCH  33  39
ENDBRANCH   7  33
ENDBRANCH   4   7
ENDBRANCH   1   3
BRANCH   1  43
ATOM     43  C15 non d ame     -31.113  10.459  23.816  0.00  0.00     0.240 C 
ATOM     44  O5  non d ame     -29.938  10.281  23.811  0.00  0.00    -0.271 OA
ATOM     45  N6  non d ame     -31.653  11.838  23.989  0.00  0.00    -0.355 N 
ATOM     46  H46 non d ame     -32.649  12.003  23.990  0.00  0.00     0.162 HD
BRANCH  45  47
ATOM     47  C20 non d ame     -30.721  12.974  24.159  0.00  0.00     0.013 C 
ATOM     48  H30 non d ame     -29.906  12.645  24.803  0.00  0.00     0.072 H 
BRANCH  47  49
ATOM     49  C21 non d ame     -31.454  14.129  24.803  0.00  0.00    -0.038 C 
ATOM     50  H31 non d ame     -31.120  15.022  24.274  0.00  0.00     0.036 H 
ATOM     51  H32 non d ame     -32.508  13.851  24.793  0.00  0.00     0.036 H 
BRANCH  49  52
ATOM     52  C22 non d ame     -31.070  14.331  26.285  0.00  0.00     0.018 C 
ATOM     53  H33 non d ame     -30.016  14.066  26.356  0.00  0.00     0.048 H 
ATOM     54  H34 non d ame     -31.398  15.339  26.541  0.00  0.00     0.048 H 
BRANCH  52  55
ATOM     55  C23 non d ame     -31.817  13.379  27.261  0.00  0.00     0.259 C 
ATOM     56  O7  non d ame     -31.629  12.206  27.221  0.00  0.00    -0.265 OA
BRANCH  55  57
ATOM     57  O8  non d ame     -32.739  13.923  28.197  0.00  0.00    -0.317 OA
BRANCH  57  58
ATOM     58  C29 non d ame     -32.269  15.100  28.860  0.00  0.00     0.052 C 
ATOM     59  H47 non d ame     -32.470  14.942  29.920  0.00  0.00     0.082 H 
ATOM     60  H48 non d ame     -31.245  15.244  28.516  0.00  0.00     0.082 H 
BRANCH  58  61
ATOM     61  C35 non d ame     -33.124  16.299  28.371  0.00  0.00    -0.034 A 
ATOM     62  C30 non d ame     -32.562  17.570  28.294  0.00  0.00    -0.075 A 
ATOM     63  C31 non d ame     -33.331  18.647  27.855  0.00  0.00    -0.082 A 
ATOM     64  H49 non d ame     -31.521  17.722  28.577  0.00  0.00     0.084 H 
ATOM     65  C32 non d ame     -34.667  18.451  27.495  0.00  0.00    -0.083 A 
ATOM     66  H50 non d ame     -32.887  19.641  27.794  0.00  0.00     0.083 H 
ATOM     67  C33 non d ame     -35.224  17.182  27.577  0.00  0.00    -0.082 A 
ATOM     68  H51 non d ame     -35.274  19.288  27.150  0.00  0.00     0.083 H 
ATOM     69  C34 non d ame     -34.459  16.102  28.013  0.00  0.00    -0.075 A 
ATOM     70  H52 non d ame     -36.267  17.033  27.298  0.00  0.00     0.083 H 
ATOM     71  H53 non d ame     -34.903  15.108  28.074  0.00  0.00     0.084 H 
ENDBRANCH  58  61
ENDBRANCH  57  58
ENDBRANCH  55  57
ENDBRANCH  52  55
ENDBRANCH  49  52
ENDBRANCH  47  49
BRANCH  47  72
ATOM     72  C24 non d ame     -30.181  13.408  22.798  0.00  0.00    -0.039 C 
ATOM     73  H35 non d ame     -29.126  13.134  22.804  0.00  0.00     0.036 H 
ATOM     74  H36 non d ame     -30.854  12.965  22.064  0.00  0.00     0.036 H 
BRANCH  72  75
ATOM     75  C25 non d ame     -30.256  14.997  22.610  0.00  0.00    -0.001 C 
ATOM     76  C26 non d ame     -31.258  15.366  21.359  0.00  0.00    -0.035 C 
ATOM     77  C27 non d ame     -30.612  16.206  20.516  0.00  0.00     0.085 C 
ATOM     78  H38 non d ame     -31.436  14.481  20.750  0.00  0.00     0.036 H 
ATOM     79  H39 non d ame     -32.099  15.961  21.717  0.00  0.00     0.036 H 
ATOM     80  N5  non d ame     -29.153  16.185  20.903  0.00  0.00    -0.049 N 
ATOM     81  H40 non d ame     -30.723  15.766  19.525  0.00  0.00     0.075 H 
ATOM     82  H41 non d ame     -31.019  17.195  20.722  0.00  0.00     0.075 H 
ATOM     83  C28 non d ame     -29.091  15.494  22.361  0.00  0.00     0.193 C 
ATOM     84  H42 non d ame     -28.689  15.580  20.241  0.00  0.00     0.280 HD
ATOM     85  H43 non d ame     -28.867  17.150  20.992  0.00  0.00     0.280 HD
ATOM     86  H44 non d ame     -28.938  16.099  23.255  0.00  0.00     0.129 H 
ATOM     87  H37 non d ame     -30.428  15.517  23.553  0.00  0.00     0.046 H 
BRANCH  83  88
ATOM     88  O6  non d ame     -28.064  14.501  22.393  0.00  0.00    -0.369 OA
ATOM     89  H45 non d ame     -27.570  14.577  23.213  0.00  0.00     0.212 HD
ENDBRANCH  83  88
ENDBRANCH  72  75
ENDBRANCH  47  72
ENDBRANCH  45  47
ENDBRANCH   1  43
BRANCH   1  90
ATOM     90  C16 non d ame     -32.023   8.767  22.195  0.00  0.00    -0.035 C 
ATOM     91  H21 non d ame     -33.062   8.702  21.872  0.00  0.00     0.037 H 
ATOM     92  H22 non d ame     -31.336   9.445  21.687  0.00  0.00     0.037 H 
BRANCH  90  93
ATOM     93  C17 non d ame     -31.424   7.333  22.041  0.00  0.00    -0.059 C 
ATOM     94  H23 non d ame     -30.496   7.422  21.476  0.00  0.00     0.038 H 
BRANCH  93  95
ATOM     95  C18 non d ame     -31.081   6.687  23.421  0.00  0.00    -0.073 C 
ATOM     96  H24 non d ame     -31.005   5.606  23.308  0.00  0.00     0.028 H 
ATOM     97  H25 non d ame     -30.131   7.081  23.782  0.00  0.00     0.028 H 
ATOM     98  H26 non d ame     -31.867   6.922  24.138  0.00  0.00     0.028 H 
ENDBRANCH  93  95
BRANCH  93  99
ATOM     99  C19 non d ame     -32.362   6.432  21.235  0.00  0.00    -0.073 C 
ATOM    100  H27 non d ame     -32.460   5.468  21.736  0.00  0.00     0.028 H 
ATOM    101  H28 non d ame     -33.343   6.902  21.160  0.00  0.00     0.028 H 
ATOM    102  H29 non d ame     -31.954   6.283  20.236  0.00  0.00     0.028 H 
ENDBRANCH  93  99
ENDBRANCH  90  93
ENDBRANCH   1  90
TORSDOF 26
ENDMDL
MODEL 11
REMARK VINA RESULT:      -6.2      3.121      5.520
REMARK  26 active torsions:
REMARK  status: ('A' for Active; 'I' for Inactive)
REMARK    1  A    between atoms: C2_2  and  C3_3 
REMARK    2  A    between atoms: C4_6  and  C5_7 
REMARK       I    between atoms: C5_7  and  N2_9 
REMARK    3  A    between atoms: N2_9  and  C6_10 
REMARK    4  A    between atoms: C6_10  and  C7_11 
REMARK    5  A    between atoms: C6_10  and  C8_13 
REMARK       I    between atoms: C7_11  and  N3_14 
REMARK    6  A    between atoms: N3_14  and  C9_15 
REMARK    7  A    between atoms: C9_15  and  C10_16 
REMARK    8  A    between atoms: C9_15  and  C11_18 
REMARK       I    between atoms: C10_16  and  N4_21 
REMARK    9  A    between atoms: C11_18  and  C12_19 
REMARK   10  A    between atoms: C11_18  and  C13_20 
REMARK   11  A    between atoms: N4_21  and  C14_22 
REMARK   12  A    between atoms: C14_22  and  C15_23 
REMARK   13  A    between atoms: C14_22  and  C16_25 
REMARK       I    between atoms: C15_23  and  N6_40 
REMARK   14  A    between atoms: C16_25  and  C17_26 
REMARK   15  A    between atoms: C17_26  and  C18_27 
REMARK   16  A    between atoms: C17_26  and  C19_28 
REMARK   17  A    between atoms: C20_29  and  C21_30 
REMARK   18  A    between atoms: C20_29  and  C24_33 
REMARK   19  A    between atoms: C20_29  and  N6_40 
REMARK   20  A    between atoms: C21_30  and  C22_31 
REMARK   21  A    between atoms: C22_31  and  C23_32 
REMARK   22  A    between atoms: C23_32  and  O8_43 
REMARK   23  A    between atoms: C24_33  and  C25_34 
REMARK   24  A    between atoms: C28_38  and  O6_39 
REMARK   25  A    between atoms: C29_42  and  O8_43 
REMARK   26  A    between atoms: C29_42  and  C35_49 
ROOT
ATOM      1  C14 non d ame     -32.420   9.594  25.350  0.00  0.00     0.089 C 
ATOM      2  H20 non d ame     -31.757   8.732  25.433  0.00  0.00     0.087 H 
ENDROOT
BRANCH   1   3
ATOM      3  N4  non d ame     -33.363   9.531  26.457  0.00  0.00    -0.346 N 
ATOM      4  C10 non d ame     -33.303   8.392  27.444  0.00  0.00     0.241 C 
ATOM      5  O4  non d ame     -32.488   7.537  27.326  0.00  0.00    -0.271 OA
ATOM      6  H19 non d ame     -34.050  10.267  26.539  0.00  0.00     0.163 HD
BRANCH   4   7
ATOM      7  C9  non d ame     -34.283   8.346  28.587  0.00  0.00     0.092 C 
ATOM      8  H11 non d ame     -33.850   8.848  29.452  0.00  0.00     0.088 H 
BRANCH   7   9
ATOM      9  N3  non d ame     -35.497   9.082  28.221  0.00  0.00    -0.346 N 
ATOM     10  C7  non d ame     -36.184   9.876  29.210  0.00  0.00     0.240 C 
ATOM     11  O3  non d ame     -35.775   9.931  30.305  0.00  0.00    -0.271 OA
ATOM     12  H10 non d ame     -35.862   9.043  27.280  0.00  0.00     0.163 HD
BRANCH  10  13
ATOM     13  C6  non d ame     -37.477  10.655  28.815  0.00  0.00     0.086 C 
ATOM     14  H6  non d ame     -37.467  11.689  29.160  0.00  0.00     0.086 H 
BRANCH  13  15
ATOM     15  N2  non d ame     -37.575  10.701  27.366  0.00  0.00    -0.343 N 
ATOM     16  C5  non d ame     -37.258  11.945  26.660  0.00  0.00     0.273 C 
ATOM     17  O2  non d ame     -36.927  12.903  27.268  0.00  0.00    -0.266 OA
ATOM     18  H5  non d ame     -37.861   9.878  26.854  0.00  0.00     0.163 HD
BRANCH  16  19
ATOM     19  C4  non d ame     -37.356  12.007  25.128  0.00  0.00     0.154 A 
ATOM     20  C1  non d ame     -38.106  12.943  24.347  0.00  0.00    -0.017 A 
ATOM     21  C2  non d ame     -37.863  12.574  23.005  0.00  0.00     0.077 A 
ATOM     22  H1  non d ame     -38.730  13.764  24.700  0.00  0.00     0.091 H 
ATOM     23  O1  non d ame     -37.065  11.546  23.025  0.00  0.00    -0.218 OA
ATOM     24  N1  non d ame     -36.756  11.197  24.252  0.00  0.00    -0.123 NA
BRANCH  21  25
ATOM     25  C3  non d ame     -38.430  13.254  21.766  0.00  0.00    -0.029 C 
ATOM     26  H2  non d ame     -37.831  14.133  21.528  0.00  0.00     0.036 H 
ATOM     27  H3  non d ame     -38.405  12.559  20.927  0.00  0.00     0.036 H 
ATOM     28  H4  non d ame     -39.459  13.557  21.956  0.00  0.00     0.036 H 
ENDBRANCH  21  25
ENDBRANCH  16  19
ENDBRANCH  13  15
BRANCH  13  29
ATOM     29  C8  non d ame     -38.683   9.959  29.393  0.00  0.00    -0.049 C 
ATOM     30  H7  non d ame     -38.388   9.400  30.281  0.00  0.00     0.030 H 
ATOM     31  H8  non d ame     -39.435  10.700  29.663  0.00  0.00     0.030 H 
ATOM     32  H9  non d ame     -39.096   9.274  28.653  0.00  0.00     0.030 H 
ENDBRANCH  13  29
ENDBRANCH  10  13
ENDBRANCH   7   9
BRANCH   7  33
ATOM     33  C11 non d ame     -34.652   6.865  28.894  0.00  0.00    -0.033 C 
ATOM     34  H12 non d ame     -33.800   6.248  28.607  0.00  0.00     0.042 H 
BRANCH  33  35
ATOM     35  C12 non d ame     -34.898   6.644  30.419  0.00  0.00    -0.071 C 
ATOM     36  H13 non d ame     -35.956   6.786  30.640  0.00  0.00     0.028 H 
ATOM     37  H14 non d ame     -34.602   5.632  30.692  0.00  0.00     0.028 H 
ATOM     38  H15 non d ame     -34.309   7.362  30.989  0.00  0.00     0.028 H 
ENDBRANCH  33  35
BRANCH  33  39
ATOM     39  C13 non d ame     -35.885   6.409  28.049  0.00  0.00    -0.071 C 
ATOM     40  H16 non d ame     -36.792   6.846  28.466  0.00  0.00     0.028 H 
ATOM     41  H17 non d ame     -35.762   6.741  27.018  0.00  0.00     0.028 H 
ATOM     42  H18 non d ame     -35.960   5.322  28.073  0.00  0.00     0.028 H 
ENDBRANCH  33  39
ENDBRANCH   7  33
ENDBRANCH   4   7
ENDBRANCH   1   3
BRANCH   1  43
ATOM     43  C15 non d ame     -31.645  10.940  25.436  0.00  0.00     0.240 C 
ATOM     44  O5  non d ame     -31.065  11.226  26.434  0.00  0.00    -0.271 OA
ATOM     45  N6  non d ame     -31.618  11.870  24.271  0.00  0.00    -0.355 N 
ATOM     46  H46 non d ame     -32.103  11.636  23.417  0.00  0.00     0.162 HD
BRANCH  45  47
ATOM     47  C20 non d ame     -30.876  13.145  24.368  0.00  0.00     0.013 C 
ATOM     48  H30 non d ame     -30.118  13.034  25.143  0.00  0.00     0.072 H 
BRANCH  47  49
ATOM     49  C21 non d ame     -31.835  14.254  24.739  0.00  0.00    -0.038 C 
ATOM     50  H31 non d ame     -31.753  14.993  23.942  0.00  0.00     0.036 H 
ATOM     51  H32 non d ame     -32.789  13.765  24.934  0.00  0.00     0.036 H 
BRANCH  49  52
ATOM     52  C22 non d ame     -31.439  14.976  26.046  0.00  0.00     0.018 C 
ATOM     53  H33 non d ame     -31.112  14.193  26.729  0.00  0.00     0.048 H 
ATOM     54  H34 non d ame     -30.747  15.765  25.749  0.00  0.00     0.048 H 
BRANCH  52  55
ATOM     55  C23 non d ame     -32.626  15.690  26.750  0.00  0.00     0.259 C 
ATOM     56  O7  non d ame     -33.056  16.711  26.321  0.00  0.00    -0.265 OA
BRANCH  55  57
ATOM     57  O8  non d ame     -33.185  15.117  27.925  0.00  0.00    -0.317 OA
BRANCH  57  58
ATOM     58  C29 non d ame     -33.410  13.707  27.835  0.00  0.00     0.052 C 
ATOM     59  H47 non d ame     -34.474  13.565  28.027  0.00  0.00     0.082 H 
ATOM     60  H48 non d ame     -32.983  13.401  26.880  0.00  0.00     0.082 H 
BRANCH  58  61
ATOM     61  C35 non d ame     -32.610  13.020  28.974  0.00  0.00    -0.034 A 
ATOM     62  C30 non d ame     -31.567  13.697  29.598  0.00  0.00    -0.075 A 
ATOM     63  C31 non d ame     -30.848  13.080  30.621  0.00  0.00    -0.082 A 
ATOM     64  H49 non d ame     -31.312  14.710  29.286  0.00  0.00     0.084 H 
ATOM     65  C32 non d ame     -31.173  11.780  31.017  0.00  0.00    -0.083 A 
ATOM     66  H50 non d ame     -30.032  13.614  31.109  0.00  0.00     0.083 H 
ATOM     67  C33 non d ame     -32.213  11.108  30.389  0.00  0.00    -0.082 A 
ATOM     68  H51 non d ame     -30.617  11.291  31.816  0.00  0.00     0.083 H 
ATOM     69  C34 non d ame     -32.936  11.721  29.368  0.00  0.00    -0.075 A 
ATOM     70  H52 non d ame     -32.463  10.093  30.699  0.00  0.00     0.083 H 
ATOM     71  H53 non d ame     -33.751  11.187  28.880  0.00  0.00     0.084 H 
ENDBRANCH  58  61
ENDBRANCH  57  58
ENDBRANCH  55  57
ENDBRANCH  52  55
ENDBRANCH  49  52
ENDBRANCH  47  49
BRANCH  47  72
ATOM     72  C24 non d ame     -30.221  13.465  23.026  0.00  0.00    -0.039 C 
ATOM     73  H35 non d ame     -29.163  13.240  23.159  0.00  0.00     0.036 H 
ATOM     74  H36 non d ame     -30.804  12.923  22.282  0.00  0.00     0.036 H 
BRANCH  72  75
ATOM     75  C25 non d ame     -30.332  15.023  22.669  0.00  0.00    -0.001 C 
ATOM     76  C26 non d ame     -31.289  15.228  21.348  0.00  0.00    -0.035 C 
ATOM     77  C27 non d ame     -30.630  15.996  20.447  0.00  0.00     0.085 C 
ATOM     78  H38 non d ame     -31.417  14.279  20.828  0.00  0.00     0.036 H 
ATOM     79  H39 non d ame     -32.160  15.830  21.607  0.00  0.00     0.036 H 
ATOM     80  N5  non d ame     -29.189  16.061  20.892  0.00  0.00    -0.049 N 
ATOM     81  H40 non d ame     -30.687  15.453  19.504  0.00  0.00     0.075 H 
ATOM     82  H41 non d ame     -31.073  16.988  20.531  0.00  0.00     0.075 H 
ATOM     83  C28 non d ame     -29.171  15.528  22.416  0.00  0.00     0.193 C 
ATOM     84  H42 non d ame     -28.682  15.406  20.315  0.00  0.00     0.280 HD
ATOM     85  H43 non d ame     -28.934  17.039  20.890  0.00  0.00     0.280 HD
ATOM     86  H44 non d ame     -29.073  16.228  23.246  0.00  0.00     0.129 H 
ATOM     87  H37 non d ame     -30.557  15.632  23.544  0.00  0.00     0.046 H 
BRANCH  83  88
ATOM     88  O6  non d ame     -28.119  14.577  22.592  0.00  0.00    -0.369 OA
ATOM     89  H45 non d ame     -27.372  14.820  22.040  0.00  0.00     0.212 HD
ENDBRANCH  83  88
ENDBRANCH  72  75
ENDBRANCH  47  72
ENDBRANCH  45  47
ENDBRANCH   1  43
BRANCH   1  90
ATOM     90  C16 non d ame     -33.187   9.529  24.040  0.00  0.00    -0.035 C 
ATOM     91  H21 non d ame     -34.206   9.258  24.315  0.00  0.00     0.037 H 
ATOM     92  H22 non d ame     -32.992  10.479  23.543  0.00  0.00     0.037 H 
BRANCH  90  93
ATOM     93  C17 non d ame     -32.681   8.413  23.072  0.00  0.00    -0.059 C 
ATOM     94  H23 non d ame     -33.432   8.285  22.292  0.00  0.00     0.038 H 
BRANCH  93  95
ATOM     95  C18 non d ame     -31.335   8.799  22.379  0.00  0.00    -0.073 C 
ATOM     96  H24 non d ame     -31.466   8.787  21.297  0.00  0.00     0.028 H 
ATOM     97  H25 non d ame     -31.037   9.798  22.696  0.00  0.00     0.028 H 
ATOM     98  H26 non d ame     -30.563   8.083  22.660  0.00  0.00     0.028 H 
ENDBRANCH  93  95
BRANCH  93  99
ATOM     99  C19 non d ame     -32.553   7.073  23.802  0.00  0.00    -0.073 C 
ATOM    100  H27 non d ame     -32.127   6.330  23.126  0.00  0.00     0.028 H 
ATOM    101  H28 non d ame     -31.901   7.192  24.668  0.00  0.00     0.028 H 
ATOM    102  H29 non d ame     -33.537   6.743  24.131  0.00  0.00     0.028 H 
ENDBRANCH  93  99
ENDBRANCH  90  93
ENDBRANCH   1  90
TORSDOF 26
ENDMDL
MODEL 12
REMARK VINA RESULT:      -6.2      2.594      7.800
REMARK  26 active torsions:
REMARK  status: ('A' for Active; 'I' for Inactive)
REMARK    1  A    between atoms: C2_2  and  C3_3 
REMARK    2  A    between atoms: C4_6  and  C5_7 
REMARK       I    between atoms: C5_7  and  N2_9 
REMARK    3  A    between atoms: N2_9  and  C6_10 
REMARK    4  A    between atoms: C6_10  and  C7_11 
REMARK    5  A    between atoms: C6_10  and  C8_13 
REMARK       I    between atoms: C7_11  and  N3_14 
REMARK    6  A    between atoms: N3_14  and  C9_15 
REMARK    7  A    between atoms: C9_15  and  C10_16 
REMARK    8  A    between atoms: C9_15  and  C11_18 
REMARK       I    between atoms: C10_16  and  N4_21 
REMARK    9  A    between atoms: C11_18  and  C12_19 
REMARK   10  A    between atoms: C11_18  and  C13_20 
REMARK   11  A    between atoms: N4_21  and  C14_22 
REMARK   12  A    between atoms: C14_22  and  C15_23 
REMARK   13  A    between atoms: C14_22  and  C16_25 
REMARK       I    between atoms: C15_23  and  N6_40 
REMARK   14  A    between atoms: C16_25  and  C17_26 
REMARK   15  A    between atoms: C17_26  and  C18_27 
REMARK   16  A    between atoms: C17_26  and  C19_28 
REMARK   17  A    between atoms: C20_29  and  C21_30 
REMARK   18  A    between atoms: C20_29  and  C24_33 
REMARK   19  A    between atoms: C20_29  and  N6_40 
REMARK   20  A    between atoms: C21_30  and  C22_31 
REMARK   21  A    between atoms: C22_31  and  C23_32 
REMARK   22  A    between atoms: C23_32  and  O8_43 
REMARK   23  A    between atoms: C24_33  and  C25_34 
REMARK   24  A    between atoms: C28_38  and  O6_39 
REMARK   25  A    between atoms: C29_42  and  O8_43 
REMARK   26  A    between atoms: C29_42  and  C35_49 
ROOT
ATOM      1  C14 non d ame     -33.132  12.085  28.649  0.00  0.00     0.089 C 
ATOM      2  H20 non d ame     -33.246  12.558  29.625  0.00  0.00     0.087 H 
ENDROOT
BRANCH   1   3
ATOM      3  N4  non d ame     -33.902  10.850  28.667  0.00  0.00    -0.346 N 
ATOM      4  C10 non d ame     -33.919   9.981  29.899  0.00  0.00     0.241 C 
ATOM      5  O4  non d ame     -33.302  10.295  30.863  0.00  0.00    -0.271 OA
ATOM      6  H19 non d ame     -34.418  10.600  27.835  0.00  0.00     0.163 HD
BRANCH   4   7
ATOM      7  C9  non d ame     -34.726   8.709  29.902  0.00  0.00     0.092 C 
ATOM      8  H11 non d ame     -35.705   8.905  29.465  0.00  0.00     0.088 H 
BRANCH   7   9
ATOM      9  N3  non d ame     -34.066   7.709  29.057  0.00  0.00    -0.346 N 
ATOM     10  C7  non d ame     -34.416   7.601  27.662  0.00  0.00     0.240 C 
ATOM     11  O3  non d ame     -35.227   8.310  27.203  0.00  0.00    -0.271 OA
ATOM     12  H10 non d ame     -33.366   7.090  29.439  0.00  0.00     0.163 HD
BRANCH  10  13
ATOM     13  C6  non d ame     -33.713   6.533  26.768  0.00  0.00     0.086 C 
ATOM     14  H6  non d ame     -34.401   6.035  26.085  0.00  0.00     0.086 H 
BRANCH  13  15
ATOM     15  N2  non d ame     -32.713   7.192  25.944  0.00  0.00    -0.343 N 
ATOM     16  C5  non d ame     -33.044   7.560  24.565  0.00  0.00     0.273 C 
ATOM     17  O2  non d ame     -34.116   7.320  24.128  0.00  0.00    -0.266 OA
ATOM     18  H5  non d ame     -31.799   7.392  26.325  0.00  0.00     0.163 HD
BRANCH  16  19
ATOM     19  C4  non d ame     -31.998   8.259  23.683  0.00  0.00     0.154 A 
ATOM     20  C1  non d ame     -30.742   7.730  23.248  0.00  0.00    -0.017 A 
ATOM     21  C2  non d ame     -30.165   8.757  22.468  0.00  0.00     0.077 A 
ATOM     22  H1  non d ame     -30.314   6.751  23.464  0.00  0.00     0.091 H 
ATOM     23  O1  non d ame     -31.001   9.754  22.462  0.00  0.00    -0.218 OA
ATOM     24  N1  non d ame     -32.078   9.488  23.164  0.00  0.00    -0.123 NA
BRANCH  21  25
ATOM     25  C3  non d ame     -28.815   8.705  21.764  0.00  0.00    -0.029 C 
ATOM     26  H2  non d ame     -28.219   7.894  22.181  0.00  0.00     0.036 H 
ATOM     27  H3  non d ame     -28.968   8.534  20.699  0.00  0.00     0.036 H 
ATOM     28  H4  non d ame     -28.294   9.651  21.908  0.00  0.00     0.036 H 
ENDBRANCH  21  25
ENDBRANCH  16  19
ENDBRANCH  13  15
BRANCH  13  29
ATOM     29  C8  non d ame     -33.058   5.495  27.643  0.00  0.00    -0.049 C 
ATOM     30  H7  non d ame     -33.163   4.512  27.182  0.00  0.00     0.030 H 
ATOM     31  H8  non d ame     -32.000   5.730  27.756  0.00  0.00     0.030 H 
ATOM     32  H9  non d ame     -33.536   5.490  28.622  0.00  0.00     0.030 H 
ENDBRANCH  13  29
ENDBRANCH  10  13
ENDBRANCH   7   9
BRANCH   7  33
ATOM     33  C11 non d ame     -34.832   8.166  31.357  0.00  0.00    -0.033 C 
ATOM     34  H12 non d ame     -33.880   8.359  31.850  0.00  0.00     0.042 H 
BRANCH  33  35
ATOM     35  C12 non d ame     -35.939   8.914  32.163  0.00  0.00    -0.071 C 
ATOM     36  H13 non d ame     -36.001   9.948  31.823  0.00  0.00     0.028 H 
ATOM     37  H14 non d ame     -36.899   8.422  32.006  0.00  0.00     0.028 H 
ATOM     38  H15 non d ame     -35.691   8.895  33.224  0.00  0.00     0.028 H 
ENDBRANCH  33  35
BRANCH  33  39
ATOM     39  C13 non d ame     -35.074   6.622  31.361  0.00  0.00    -0.071 C 
ATOM     40  H16 non d ame     -34.570   6.178  32.219  0.00  0.00     0.028 H 
ATOM     41  H17 non d ame     -36.144   6.422  31.424  0.00  0.00     0.028 H 
ATOM     42  H18 non d ame     -34.678   6.190  30.442  0.00  0.00     0.028 H 
ENDBRANCH  33  39
ENDBRANCH   7  33
ENDBRANCH   4   7
ENDBRANCH   1   3
BRANCH   1  43
ATOM     43  C15 non d ame     -33.662  12.983  27.495  0.00  0.00     0.240 C 
ATOM     44  O5  non d ame     -33.493  12.656  26.366  0.00  0.00    -0.271 OA
ATOM     45  N6  non d ame     -34.390  14.248  27.800  0.00  0.00    -0.355 N 
ATOM     46  H46 non d ame     -34.545  14.534  28.756  0.00  0.00     0.162 HD
BRANCH  45  47
ATOM     47  C20 non d ame     -34.890  15.091  26.692  0.00  0.00     0.013 C 
ATOM     48  H30 non d ame     -34.334  14.827  25.792  0.00  0.00     0.072 H 
BRANCH  47  49
ATOM     49  C21 non d ame     -34.665  16.547  27.030  0.00  0.00    -0.038 C 
ATOM     50  H31 non d ame     -35.644  16.941  27.303  0.00  0.00     0.036 H 
ATOM     51  H32 non d ame     -33.851  16.558  27.755  0.00  0.00     0.036 H 
BRANCH  49  52
ATOM     52  C22 non d ame     -34.183  17.376  25.820  0.00  0.00     0.018 C 
ATOM     53  H33 non d ame     -34.361  16.752  24.945  0.00  0.00     0.048 H 
ATOM     54  H34 non d ame     -34.676  18.344  25.909  0.00  0.00     0.048 H 
BRANCH  52  55
ATOM     55  C23 non d ame     -32.657  17.671  25.831  0.00  0.00     0.259 C 
ATOM     56  O7  non d ame     -32.195  18.431  26.618  0.00  0.00    -0.265 OA
BRANCH  55  57
ATOM     57  O8  non d ame     -31.817  17.031  24.878  0.00  0.00    -0.317 OA
BRANCH  57  58
ATOM     58  C29 non d ame     -31.714  15.614  25.051  0.00  0.00     0.052 C 
ATOM     59  H47 non d ame     -31.105  15.470  25.943  0.00  0.00     0.082 H 
ATOM     60  H48 non d ame     -32.737  15.239  25.023  0.00  0.00     0.082 H 
BRANCH  58  61
ATOM     61  C35 non d ame     -30.946  15.037  23.833  0.00  0.00    -0.034 A 
ATOM     62  C30 non d ame     -30.516  15.884  22.816  0.00  0.00    -0.075 A 
ATOM     63  C31 non d ame     -29.826  15.366  21.721  0.00  0.00    -0.082 A 
ATOM     64  H49 non d ame     -30.720  16.953  22.876  0.00  0.00     0.084 H 
ATOM     65  C32 non d ame     -29.568  13.994  21.644  0.00  0.00    -0.083 A 
ATOM     66  H50 non d ame     -29.489  16.032  20.926  0.00  0.00     0.083 H 
ATOM     67  C33 non d ame     -30.002  13.153  22.659  0.00  0.00    -0.082 A 
ATOM     68  H51 non d ame     -29.029  13.581  20.791  0.00  0.00     0.083 H 
ATOM     69  C34 non d ame     -30.690  13.667  23.756  0.00  0.00    -0.075 A 
ATOM     70  H52 non d ame     -29.801  12.083  22.595  0.00  0.00     0.083 H 
ATOM     71  H53 non d ame     -31.027  13.000  24.550  0.00  0.00     0.084 H 
ENDBRANCH  58  61
ENDBRANCH  57  58
ENDBRANCH  55  57
ENDBRANCH  52  55
ENDBRANCH  49  52
ENDBRANCH  47  49
BRANCH  47  72
ATOM     72  C24 non d ame     -36.383  14.840  26.485  0.00  0.00    -0.039 C 
ATOM     73  H35 non d ame     -36.731  14.385  27.412  0.00  0.00     0.036 H 
ATOM     74  H36 non d ame     -36.795  15.795  26.159  0.00  0.00     0.036 H 
BRANCH  72  75
ATOM     75  C25 non d ame     -36.649  13.784  25.310  0.00  0.00    -0.001 C 
ATOM     76  C26 non d ame     -37.235  14.559  23.983  0.00  0.00    -0.035 C 
ATOM     77  C27 non d ame     -38.363  13.931  23.574  0.00  0.00     0.085 C 
ATOM     78  H38 non d ame     -37.583  15.555  24.255  0.00  0.00     0.036 H 
ATOM     79  H39 non d ame     -36.553  14.431  23.143  0.00  0.00     0.036 H 
ATOM     80  N5  non d ame     -38.780  13.002  24.688  0.00  0.00    -0.049 N 
ATOM     81  H40 non d ame     -39.111  14.717  23.467  0.00  0.00     0.075 H 
ATOM     82  H41 non d ame     -38.068  13.338  22.709  0.00  0.00     0.075 H 
ATOM     83  C28 non d ame     -37.506  12.888  25.672  0.00  0.00     0.193 C 
ATOM     84  H42 non d ame     -39.529  13.466  25.183  0.00  0.00     0.280 HD
ATOM     85  H43 non d ame     -38.940  12.100  24.262  0.00  0.00     0.280 HD
ATOM     86  H44 non d ame     -36.877  11.998  25.664  0.00  0.00     0.129 H 
ATOM     87  H37 non d ame     -35.804  13.112  25.159  0.00  0.00     0.046 H 
BRANCH  83  88
ATOM     88  O6  non d ame     -37.916  13.053  27.031  0.00  0.00    -0.369 OA
ATOM     89  H45 non d ame     -38.858  12.878  27.104  0.00  0.00     0.212 HD
ENDBRANCH  83  88
ENDBRANCH  72  75
ENDBRANCH  47  72
ENDBRANCH  45  47
ENDBRANCH   1  43
BRANCH   1  90
ATOM     90  C16 non d ame     -31.668  11.753  28.407  0.00  0.00    -0.035 C 
ATOM     91  H21 non d ame     -31.534  10.742  28.788  0.00  0.00     0.037 H 
ATOM     92  H22 non d ame     -31.495  11.965  27.351  0.00  0.00     0.037 H 
BRANCH  90  93
ATOM     93  C17 non d ame     -30.679  12.660  29.207  0.00  0.00    -0.059 C 
ATOM     94  H23 non d ame     -29.725  12.136  29.267  0.00  0.00     0.038 H 
BRANCH  93  95
ATOM     95  C18 non d ame     -30.427  14.028  28.495  0.00  0.00    -0.073 C 
ATOM     96  H24 non d ame     -30.667  13.937  27.436  0.00  0.00     0.028 H 
ATOM     97  H25 non d ame     -31.058  14.794  28.945  0.00  0.00     0.028 H 
ATOM     98  H26 non d ame     -29.379  14.308  28.608  0.00  0.00     0.028 H 
ENDBRANCH  93  95
BRANCH  93  99
ATOM     99  C19 non d ame     -31.172  12.874  30.640  0.00  0.00    -0.073 C 
ATOM    100  H27 non d ame     -32.130  13.394  30.621  0.00  0.00     0.028 H 
ATOM    101  H28 non d ame     -31.293  11.909  31.132  0.00  0.00     0.028 H 
ATOM    102  H29 non d ame     -30.444  13.472  31.189  0.00  0.00     0.028 H 
ENDBRANCH  93  99
ENDBRANCH  90  93
ENDBRANCH   1  90
TORSDOF 26
ENDMDL
MODEL 13
REMARK VINA RESULT:      -6.1      2.653      7.422
REMARK  26 active torsions:
REMARK  status: ('A' for Active; 'I' for Inactive)
REMARK    1  A    between atoms: C2_2  and  C3_3 
REMARK    2  A    between atoms: C4_6  and  C5_7 
REMARK       I    between atoms: C5_7  and  N2_9 
REMARK    3  A    between atoms: N2_9  and  C6_10 
REMARK    4  A    between atoms: C6_10  and  C7_11 
REMARK    5  A    between atoms: C6_10  and  C8_13 
REMARK       I    between atoms: C7_11  and  N3_14 
REMARK    6  A    between atoms: N3_14  and  C9_15 
REMARK    7  A    between atoms: C9_15  and  C10_16 
REMARK    8  A    between atoms: C9_15  and  C11_18 
REMARK       I    between atoms: C10_16  and  N4_21 
REMARK    9  A    between atoms: C11_18  and  C12_19 
REMARK   10  A    between atoms: C11_18  and  C13_20 
REMARK   11  A    between atoms: N4_21  and  C14_22 
REMARK   12  A    between atoms: C14_22  and  C15_23 
REMARK   13  A    between atoms: C14_22  and  C16_25 
REMARK       I    between atoms: C15_23  and  N6_40 
REMARK   14  A    between atoms: C16_25  and  C17_26 
REMARK   15  A    between atoms: C17_26  and  C18_27 
REMARK   16  A    between atoms: C17_26  and  C19_28 
REMARK   17  A    between atoms: C20_29  and  C21_30 
REMARK   18  A    between atoms: C20_29  and  C24_33 
REMARK   19  A    between atoms: C20_29  and  N6_40 
REMARK   20  A    between atoms: C21_30  and  C22_31 
REMARK   21  A    between atoms: C22_31  and  C23_32 
REMARK   22  A    between atoms: C23_32  and  O8_43 
REMARK   23  A    between atoms: C24_33  and  C25_34 
REMARK   24  A    between atoms: C28_38  and  O6_39 
REMARK   25  A    between atoms: C29_42  and  O8_43 
REMARK   26  A    between atoms: C29_42  and  C35_49 
ROOT
ATOM      1  C14 non d ame     -36.262  13.604  26.214  0.00  0.00     0.089 C 
ATOM      2  H20 non d ame     -37.011  13.487  26.997  0.00  0.00     0.087 H 
ENDROOT
BRANCH   1   3
ATOM      3  N4  non d ame     -36.001  15.028  26.066  0.00  0.00    -0.346 N 
ATOM      4  C10 non d ame     -37.002  16.041  26.562  0.00  0.00     0.241 C 
ATOM      5  O4  non d ame     -38.012  15.686  27.075  0.00  0.00    -0.271 OA
ATOM      6  H19 non d ame     -35.137  15.310  25.625  0.00  0.00     0.163 HD
BRANCH   4   7
ATOM      7  C9  non d ame     -36.713  17.511  26.406  0.00  0.00     0.092 C 
ATOM      8  H11 non d ame     -36.971  18.027  27.331  0.00  0.00     0.088 H 
BRANCH   7   9
ATOM      9  N3  non d ame     -35.276  17.707  26.188  0.00  0.00    -0.346 N 
ATOM     10  C7  non d ame     -34.406  17.965  27.308  0.00  0.00     0.240 C 
ATOM     11  O3  non d ame     -34.845  18.020  28.392  0.00  0.00    -0.271 OA
ATOM     12  H10 non d ame     -34.884  17.664  25.258  0.00  0.00     0.163 HD
BRANCH  10  13
ATOM     13  C6  non d ame     -32.878  18.176  27.069  0.00  0.00     0.086 C 
ATOM     14  H6  non d ame     -32.262  17.692  27.827  0.00  0.00     0.086 H 
BRANCH  13  15
ATOM     15  N2  non d ame     -32.514  17.579  25.795  0.00  0.00    -0.343 N 
ATOM     16  C5  non d ame     -31.850  16.274  25.773  0.00  0.00     0.273 C 
ATOM     17  O2  non d ame     -31.610  15.714  26.786  0.00  0.00    -0.266 OA
ATOM     18  H5  non d ame     -32.720  18.066  24.934  0.00  0.00     0.163 HD
BRANCH  16  19
ATOM     19  C4  non d ame     -31.460  15.631  24.433  0.00  0.00     0.154 A 
ATOM     20  C1  non d ame     -31.362  16.276  23.160  0.00  0.00    -0.017 A 
ATOM     21  C2  non d ame     -30.974  15.256  22.263  0.00  0.00     0.077 A 
ATOM     22  H1  non d ame     -31.545  17.325  22.923  0.00  0.00     0.091 H 
ATOM     23  O1  non d ame     -30.863  14.158  22.951  0.00  0.00    -0.218 OA
ATOM     24  N1  non d ame     -31.142  14.351  24.220  0.00  0.00    -0.123 NA
BRANCH  21  25
ATOM     25  C3  non d ame     -30.729  15.414  20.769  0.00  0.00    -0.029 C 
ATOM     26  H2  non d ame     -29.657  15.446  20.577  0.00  0.00     0.036 H 
ATOM     27  H3  non d ame     -31.168  14.570  20.238  0.00  0.00     0.036 H 
ATOM     28  H4  non d ame     -31.188  16.340  20.421  0.00  0.00     0.036 H 
ENDBRANCH  21  25
ENDBRANCH  16  19
ENDBRANCH  13  15
BRANCH  13  29
ATOM     29  C8  non d ame     -32.567  19.651  27.056  0.00  0.00    -0.049 C 
ATOM     30  H7  non d ame     -33.498  20.218  27.073  0.00  0.00     0.030 H 
ATOM     31  H8  non d ame     -31.972  19.904  27.933  0.00  0.00     0.030 H 
ATOM     32  H9  non d ame     -32.008  19.897  26.153  0.00  0.00     0.030 H 
ENDBRANCH  13  29
ENDBRANCH  10  13
ENDBRANCH   7   9
BRANCH   7  33
ATOM     33  C11 non d ame     -37.501  18.068  25.184  0.00  0.00    -0.033 C 
ATOM     34  H12 non d ame     -38.543  18.175  25.487  0.00  0.00     0.042 H 
BRANCH  33  35
ATOM     35  C12 non d ame     -36.984  19.481  24.770  0.00  0.00    -0.071 C 
ATOM     36  H13 non d ame     -37.775  20.018  24.247  0.00  0.00     0.028 H 
ATOM     37  H14 non d ame     -36.695  20.037  25.661  0.00  0.00     0.028 H 
ATOM     38  H15 non d ame     -36.122  19.374  24.112  0.00  0.00     0.028 H 
ENDBRANCH  33  35
BRANCH  33  39
ATOM     39  C13 non d ame     -37.447  17.070  23.983  0.00  0.00    -0.071 C 
ATOM     40  H16 non d ame     -38.016  16.174  24.229  0.00  0.00     0.028 H 
ATOM     41  H17 non d ame     -37.877  17.543  23.099  0.00  0.00     0.028 H 
ATOM     42  H18 non d ame     -36.411  16.800  23.781  0.00  0.00     0.028 H 
ENDBRANCH  33  39
ENDBRANCH   7  33
ENDBRANCH   4   7
ENDBRANCH   1   3
BRANCH   1  43
ATOM     43  C15 non d ame     -34.926  12.890  26.569  0.00  0.00     0.240 C 
ATOM     44  O5  non d ame     -33.890  13.419  26.324  0.00  0.00    -0.271 OA
ATOM     45  N6  non d ame     -34.938  11.550  27.222  0.00  0.00    -0.355 N 
ATOM     46  H46 non d ame     -35.812  11.093  27.439  0.00  0.00     0.162 HD
BRANCH  45  47
ATOM     47  C20 non d ame     -33.660  10.885  27.554  0.00  0.00     0.013 C 
ATOM     48  H30 non d ame     -32.850  11.504  27.169  0.00  0.00     0.072 H 
BRANCH  47  49
ATOM     49  C21 non d ame     -33.622   9.521  26.902  0.00  0.00    -0.038 C 
ATOM     50  H31 non d ame     -34.648   9.311  26.598  0.00  0.00     0.036 H 
ATOM     51  H32 non d ame     -32.832   9.575  26.153  0.00  0.00     0.036 H 
BRANCH  49  52
ATOM     52  C22 non d ame     -33.219   8.399  27.883  0.00  0.00     0.018 C 
ATOM     53  H33 non d ame     -32.186   8.607  28.162  0.00  0.00     0.048 H 
ATOM     54  H34 non d ame     -33.997   8.380  28.647  0.00  0.00     0.048 H 
BRANCH  52  55
ATOM     55  C23 non d ame     -33.211   6.982  27.245  0.00  0.00     0.259 C 
ATOM     56  O7  non d ame     -33.579   6.822  26.126  0.00  0.00    -0.265 OA
BRANCH  55  57
ATOM     57  O8  non d ame     -32.771   5.872  28.018  0.00  0.00    -0.317 OA
BRANCH  57  58
ATOM     58  C29 non d ame     -33.726   4.811  28.109  0.00  0.00     0.052 C 
ATOM     59  H47 non d ame     -34.198   4.753  27.129  0.00  0.00     0.082 H 
ATOM     60  H48 non d ame     -33.178   3.954  28.501  0.00  0.00     0.082 H 
BRANCH  58  61
ATOM     61  C35 non d ame     -34.802   5.223  29.149  0.00  0.00    -0.034 A 
ATOM     62  C30 non d ame     -34.448   5.408  30.482  0.00  0.00    -0.075 A 
ATOM     63  C31 non d ame     -35.414   5.778  31.416  0.00  0.00    -0.082 A 
ATOM     64  H49 non d ame     -33.413   5.264  30.794  0.00  0.00     0.084 H 
ATOM     65  C32 non d ame     -36.740   5.960  31.014  0.00  0.00    -0.083 A 
ATOM     66  H50 non d ame     -35.133   5.925  32.459  0.00  0.00     0.083 H 
ATOM     67  C33 non d ame     -37.089   5.771  29.684  0.00  0.00    -0.082 A 
ATOM     68  H51 non d ame     -37.502   6.250  31.738  0.00  0.00     0.083 H 
ATOM     69  C34 non d ame     -36.126   5.403  28.746  0.00  0.00    -0.075 A 
ATOM     70  H52 non d ame     -38.125   5.911  29.373  0.00  0.00     0.083 H 
ATOM     71  H53 non d ame     -36.408   5.257  27.703  0.00  0.00     0.084 H 
ENDBRANCH  58  61
ENDBRANCH  57  58
ENDBRANCH  55  57
ENDBRANCH  52  55
ENDBRANCH  49  52
ENDBRANCH  47  49
BRANCH  47  72
ATOM     72  C24 non d ame     -33.536  10.730  29.068  0.00  0.00    -0.039 C 
ATOM     73  H35 non d ame     -34.560  10.698  29.441  0.00  0.00     0.036 H 
ATOM     74  H36 non d ame     -32.875   9.876  29.219  0.00  0.00     0.036 H 
BRANCH  72  75
ATOM     75  C25 non d ame     -32.828  12.001  29.738  0.00  0.00    -0.001 C 
ATOM     76  C26 non d ame     -31.497  12.422  28.870  0.00  0.00    -0.035 C 
ATOM     77  C27 non d ame     -30.442  12.527  29.713  0.00  0.00     0.085 C 
ATOM     78  H38 non d ame     -31.211  11.608  28.205  0.00  0.00     0.036 H 
ATOM     79  H39 non d ame     -31.610  13.433  28.477  0.00  0.00     0.036 H 
ATOM     80  N5  non d ame     -30.858  11.900  31.022  0.00  0.00    -0.049 N 
ATOM     81  H40 non d ame     -29.650  11.926  29.266  0.00  0.00     0.075 H 
ATOM     82  H41 non d ame     -30.295  13.596  29.864  0.00  0.00     0.075 H 
ATOM     83  C28 non d ame     -32.464  11.748  30.950  0.00  0.00     0.193 C 
ATOM     84  H42 non d ame     -30.448  10.977  31.039  0.00  0.00     0.280 HD
ATOM     85  H43 non d ame     -30.629  12.567  31.744  0.00  0.00     0.280 HD
ATOM     86  H44 non d ame     -33.109  12.434  31.499  0.00  0.00     0.129 H 
ATOM     87  H37 non d ame     -33.539  12.794  29.972  0.00  0.00     0.046 H 
BRANCH  83  88
ATOM     88  O6  non d ame     -32.854  10.439  31.369  0.00  0.00    -0.369 OA
ATOM     89  H45 non d ame     -33.810  10.403  31.456  0.00  0.00     0.212 HD
ENDBRANCH  83  88
ENDBRANCH  72  75
ENDBRANCH  47  72
ENDBRANCH  45  47
ENDBRANCH   1  43
BRANCH   1  90
ATOM     90  C16 non d ame     -36.800  13.059  24.901  0.00  0.00    -0.035 C 
ATOM     91  H21 non d ame     -36.754  13.894  24.202  0.00  0.00     0.037 H 
ATOM     92  H22 non d ame     -36.225  12.153  24.707  0.00  0.00     0.037 H 
BRANCH  90  93
ATOM     93  C17 non d ame     -38.298  12.625  24.969  0.00  0.00    -0.059 C 
ATOM     94  H23 non d ame     -38.407  11.717  24.376  0.00  0.00     0.038 H 
BRANCH  93  95
ATOM     95  C18 non d ame     -38.751  12.297  26.429  0.00  0.00    -0.073 C 
ATOM     96  H24 non d ame     -39.838  12.234  26.467  0.00  0.00     0.028 H 
ATOM     97  H25 non d ame     -38.321  11.344  26.737  0.00  0.00     0.028 H 
ATOM     98  H26 non d ame     -38.408  13.084  27.100  0.00  0.00     0.028 H 
ENDBRANCH  93  95
BRANCH  93  99
ATOM     99  C19 non d ame     -39.205  13.688  24.344  0.00  0.00    -0.073 C 
ATOM    100  H27 non d ame     -38.593  14.443  23.850  0.00  0.00     0.028 H 
ATOM    101  H28 non d ame     -39.864  13.220  23.612  0.00  0.00     0.028 H 
ATOM    102  H29 non d ame     -39.805  14.158  25.123  0.00  0.00     0.028 H 
ENDBRANCH  93  99
ENDBRANCH  90  93
ENDBRANCH   1  90
TORSDOF 26
ENDMDL
MODEL 14
REMARK VINA RESULT:      -6.1      2.698      4.791
REMARK  26 active torsions:
REMARK  status: ('A' for Active; 'I' for Inactive)
REMARK    1  A    between atoms: C2_2  and  C3_3 
REMARK    2  A    between atoms: C4_6  and  C5_7 
REMARK       I    between atoms: C5_7  and  N2_9 
REMARK    3  A    between atoms: N2_9  and  C6_10 
REMARK    4  A    between atoms: C6_10  and  C7_11 
REMARK    5  A    between atoms: C6_10  and  C8_13 
REMARK       I    between atoms: C7_11  and  N3_14 
REMARK    6  A    between atoms: N3_14  and  C9_15 
REMARK    7  A    between atoms: C9_15  and  C10_16 
REMARK    8  A    between atoms: C9_15  and  C11_18 
REMARK       I    between atoms: C10_16  and  N4_21 
REMARK    9  A    between atoms: C11_18  and  C12_19 
REMARK   10  A    between atoms: C11_18  and  C13_20 
REMARK   11  A    between atoms: N4_21  and  C14_22 
REMARK   12  A    between atoms: C14_22  and  C15_23 
REMARK   13  A    between atoms: C14_22  and  C16_25 
REMARK       I    between atoms: C15_23  and  N6_40 
REMARK   14  A    between atoms: C16_25  and  C17_26 
REMARK   15  A    between atoms: C17_26  and  C18_27 
REMARK   16  A    between atoms: C17_26  and  C19_28 
REMARK   17  A    between atoms: C20_29  and  C21_30 
REMARK   18  A    between atoms: C20_29  and  C24_33 
REMARK   19  A    between atoms: C20_29  and  N6_40 
REMARK   20  A    between atoms: C21_30  and  C22_31 
REMARK   21  A    between atoms: C22_31  and  C23_32 
REMARK   22  A    between atoms: C23_32  and  O8_43 
REMARK   23  A    between atoms: C24_33  and  C25_34 
REMARK   24  A    between atoms: C28_38  and  O6_39 
REMARK   25  A    between atoms: C29_42  and  O8_43 
REMARK   26  A    between atoms: C29_42  and  C35_49 
ROOT
ATOM      1  C14 non d ame     -30.626  12.912  23.809  0.00  0.00     0.089 C 
ATOM      2  H20 non d ame     -29.563  12.677  23.759  0.00  0.00     0.087 H 
ENDROOT
BRANCH   1   3
ATOM      3  N4  non d ame     -31.351  11.652  23.892  0.00  0.00    -0.346 N 
ATOM      4  C10 non d ame     -30.685  10.363  23.484  0.00  0.00     0.241 C 
ATOM      5  O4  non d ame     -29.566  10.364  23.088  0.00  0.00    -0.271 OA
ATOM      6  H19 non d ame     -32.303  11.673  24.229  0.00  0.00     0.163 HD
BRANCH   4   7
ATOM      7  C9  non d ame     -31.448   9.067  23.581  0.00  0.00     0.092 C 
ATOM      8  H11 non d ame     -30.803   8.247  23.265  0.00  0.00     0.088 H 
BRANCH   7   9
ATOM      9  N3  non d ame     -31.811   8.818  24.980  0.00  0.00    -0.346 N 
ATOM     10  C7  non d ame     -31.962   7.464  25.454  0.00  0.00     0.240 C 
ATOM     11  O3  non d ame     -31.796   6.564  24.724  0.00  0.00    -0.271 OA
ATOM     12  H10 non d ame     -31.958   9.584  25.621  0.00  0.00     0.163 HD
BRANCH  10  13
ATOM     13  C6  non d ame     -32.352   7.205  26.943  0.00  0.00     0.086 C 
ATOM     14  H6  non d ame     -31.719   7.748  27.645  0.00  0.00     0.086 H 
BRANCH  13  15
ATOM     15  N2  non d ame     -33.711   7.671  27.162  0.00  0.00    -0.343 N 
ATOM     16  C5  non d ame     -33.938   9.033  27.650  0.00  0.00     0.273 C 
ATOM     17  O2  non d ame     -33.020   9.745  27.866  0.00  0.00    -0.266 OA
ATOM     18  H5  non d ame     -34.490   7.054  26.977  0.00  0.00     0.163 HD
BRANCH  16  19
ATOM     19  C4  non d ame     -35.370   9.538  27.885  0.00  0.00     0.154 A 
ATOM     20  C1  non d ame     -36.576   8.770  27.841  0.00  0.00    -0.017 A 
ATOM     21  C2  non d ame     -37.606   9.694  28.124  0.00  0.00     0.077 A 
ATOM     22  H1  non d ame     -36.687   7.705  27.636  0.00  0.00     0.091 H 
ATOM     23  O1  non d ame     -37.046  10.854  28.308  0.00  0.00    -0.218 OA
ATOM     24  N1  non d ame     -35.742  10.788  28.173  0.00  0.00    -0.123 NA
BRANCH  21  25
ATOM     25  C3  non d ame     -39.096   9.388  28.200  0.00  0.00    -0.029 C 
ATOM     26  H2  non d ame     -39.262   8.332  27.988  0.00  0.00     0.036 H 
ATOM     27  H3  non d ame     -39.464   9.620  29.199  0.00  0.00     0.036 H 
ATOM     28  H4  non d ame     -39.630   9.994  27.467  0.00  0.00     0.036 H 
ENDBRANCH  21  25
ENDBRANCH  16  19
ENDBRANCH  13  15
BRANCH  13  29
ATOM     29  C8  non d ame     -32.256   5.731  27.241  0.00  0.00    -0.049 C 
ATOM     30  H7  non d ame     -32.847   5.500  28.127  0.00  0.00     0.030 H 
ATOM     31  H8  non d ame     -32.638   5.163  26.393  0.00  0.00     0.030 H 
ATOM     32  H9  non d ame     -31.214   5.463  27.419  0.00  0.00     0.030 H 
ENDBRANCH  13  29
ENDBRANCH  10  13
ENDBRANCH   7   9
BRANCH   7  33
ATOM     33  C11 non d ame     -32.742   9.162  22.721  0.00  0.00    -0.033 C 
ATOM     34  H12 non d ame     -32.719  10.117  22.197  0.00  0.00     0.042 H 
BRANCH  33  35
ATOM     35  C12 non d ame     -32.790   8.036  21.642  0.00  0.00    -0.071 C 
ATOM     36  H13 non d ame     -33.812   7.920  21.283  0.00  0.00     0.028 H 
ATOM     37  H14 non d ame     -32.140   8.303  20.809  0.00  0.00     0.028 H 
ATOM     38  H15 non d ame     -32.451   7.097  22.080  0.00  0.00     0.028 H 
ENDBRANCH  33  35
BRANCH  33  39
ATOM     39  C13 non d ame     -34.017   9.135  23.624  0.00  0.00    -0.071 C 
ATOM     40  H16 non d ame     -34.069  10.056  24.205  0.00  0.00     0.028 H 
ATOM     41  H17 non d ame     -34.905   9.050  22.997  0.00  0.00     0.028 H 
ATOM     42  H18 non d ame     -33.966   8.281  24.299  0.00  0.00     0.028 H 
ENDBRANCH  33  39
ENDBRANCH   7  33
ENDBRANCH   4   7
ENDBRANCH   1   3
BRANCH   1  43
ATOM     43  C15 non d ame     -30.979  13.769  25.058  0.00  0.00     0.240 C 
ATOM     44  O5  non d ame     -30.832  14.948  25.027  0.00  0.00    -0.271 OA
ATOM     45  N6  non d ame     -31.510  13.121  26.291  0.00  0.00    -0.355 N 
ATOM     46  H46 non d ame     -31.644  12.121  26.328  0.00  0.00     0.162 HD
BRANCH  45  47
ATOM     47  C20 non d ame     -31.842  13.951  27.470  0.00  0.00     0.013 C 
ATOM     48  H30 non d ame     -31.346  14.914  27.353  0.00  0.00     0.072 H 
BRANCH  47  49
ATOM     49  C21 non d ame     -31.345  13.263  28.721  0.00  0.00    -0.038 C 
ATOM     50  H31 non d ame     -30.742  12.422  28.376  0.00  0.00     0.036 H 
ATOM     51  H32 non d ame     -30.890  14.047  29.327  0.00  0.00     0.036 H 
BRANCH  49  52
ATOM     52  C22 non d ame     -32.487  12.662  29.569  0.00  0.00     0.018 C 
ATOM     53  H33 non d ame     -32.915  13.497  30.122  0.00  0.00     0.048 H 
ATOM     54  H34 non d ame     -33.105  12.095  28.872  0.00  0.00     0.048 H 
BRANCH  52  55
ATOM     55  C23 non d ame     -32.004  11.643  30.639  0.00  0.00     0.259 C 
ATOM     56  O7  non d ame     -30.918  11.736  31.113  0.00  0.00    -0.265 OA
BRANCH  55  57
ATOM     57  O8  non d ame     -32.871  10.589  31.038  0.00  0.00    -0.317 OA
BRANCH  57  58
ATOM     58  C29 non d ame     -34.068  11.032  31.683  0.00  0.00     0.052 C 
ATOM     59  H47 non d ame     -33.805  11.168  32.732  0.00  0.00     0.082 H 
ATOM     60  H48 non d ame     -34.424  11.878  31.095  0.00  0.00     0.082 H 
BRANCH  58  61
ATOM     61  C35 non d ame     -35.116   9.891  31.583  0.00  0.00    -0.034 A 
ATOM     62  C30 non d ame     -36.472  10.178  31.701  0.00  0.00    -0.075 A 
ATOM     63  C31 non d ame     -37.413   9.153  31.612  0.00  0.00    -0.082 A 
ATOM     64  H49 non d ame     -36.798  11.205  31.864  0.00  0.00     0.084 H 
ATOM     65  C32 non d ame     -36.993   7.836  31.407  0.00  0.00    -0.083 A 
ATOM     66  H50 non d ame     -38.475   9.382  31.704  0.00  0.00     0.083 H 
ATOM     67  C33 non d ame     -35.639   7.554  31.293  0.00  0.00    -0.082 A 
ATOM     68  H51 non d ame     -37.722   7.029  31.335  0.00  0.00     0.083 H 
ATOM     69  C34 non d ame     -34.695   8.575  31.379  0.00  0.00    -0.075 A 
ATOM     70  H52 non d ame     -35.314   6.525  31.135  0.00  0.00     0.083 H 
ATOM     71  H53 non d ame     -33.633   8.346  31.288  0.00  0.00     0.084 H 
ENDBRANCH  58  61
ENDBRANCH  57  58
ENDBRANCH  55  57
ENDBRANCH  52  55
ENDBRANCH  49  52
ENDBRANCH  47  49
BRANCH  47  72
ATOM     72  C24 non d ame     -33.355  14.140  27.559  0.00  0.00    -0.039 C 
ATOM     73  H35 non d ame     -33.782  13.362  26.926  0.00  0.00     0.036 H 
ATOM     74  H36 non d ame     -33.582  14.160  28.625  0.00  0.00     0.036 H 
BRANCH  72  75
ATOM     75  C25 non d ame     -33.813  15.549  26.950  0.00  0.00    -0.001 C 
ATOM     76  C26 non d ame     -34.857  16.291  27.981  0.00  0.00    -0.035 C 
ATOM     77  C27 non d ame     -35.963  16.659  27.291  0.00  0.00     0.085 C 
ATOM     78  H38 non d ame     -35.238  15.574  28.708  0.00  0.00     0.036 H 
ATOM     79  H39 non d ame     -34.440  17.240  28.318  0.00  0.00     0.036 H 
ATOM     80  N5  non d ame     -35.910  15.948  25.960  0.00  0.00    -0.049 N 
ATOM     81  H40 non d ame     -36.806  16.276  27.866  0.00  0.00     0.075 H 
ATOM     82  H41 non d ame     -35.859  17.731  27.125  0.00  0.00     0.075 H 
ATOM     83  C28 non d ame     -34.400  15.398  25.811  0.00  0.00     0.193 C 
ATOM     84  H42 non d ame     -36.535  15.158  26.033  0.00  0.00     0.280 HD
ATOM     85  H43 non d ame     -36.067  16.653  25.254  0.00  0.00     0.280 HD
ATOM     86  H44 non d ame     -33.690  15.900  25.153  0.00  0.00     0.129 H 
ATOM     87  H37 non d ame     -32.968  16.138  26.591  0.00  0.00     0.046 H 
BRANCH  83  88
ATOM     88  O6  non d ame     -34.413  14.033  25.388  0.00  0.00    -0.369 OA
ATOM     89  H45 non d ame     -34.385  13.994  24.429  0.00  0.00     0.212 HD
ENDBRANCH  83  88
ENDBRANCH  72  75
ENDBRANCH  47  72
ENDBRANCH  45  47
ENDBRANCH   1  43
BRANCH   1  90
ATOM     90  C16 non d ame     -31.052  13.647  22.548  0.00  0.00    -0.035 C 
ATOM     91  H21 non d ame     -31.642  12.928  21.981  0.00  0.00     0.037 H 
ATOM     92  H22 non d ame     -31.508  14.574  22.894  0.00  0.00     0.037 H 
BRANCH  90  93
ATOM     93  C17 non d ame     -29.857  14.058  21.629  0.00  0.00    -0.059 C 
ATOM     94  H23 non d ame     -29.695  13.250  20.916  0.00  0.00     0.038 H 
BRANCH  93  95
ATOM     95  C18 non d ame     -30.159  15.358  20.817  0.00  0.00    -0.073 C 
ATOM     96  H24 non d ame     -29.556  16.178  21.206  0.00  0.00     0.028 H 
ATOM     97  H25 non d ame     -29.916  15.195  19.767  0.00  0.00     0.028 H 
ATOM     98  H26 non d ame     -31.216  15.608  20.911  0.00  0.00     0.028 H 
ENDBRANCH  93  95
BRANCH  93  99
ATOM     99  C19 non d ame     -28.570  14.211  22.443  0.00  0.00    -0.073 C 
ATOM    100  H27 non d ame     -28.602  15.146  23.003  0.00  0.00     0.028 H 
ATOM    101  H28 non d ame     -28.476  13.375  23.137  0.00  0.00     0.028 H 
ATOM    102  H29 non d ame     -27.713  14.220  21.769  0.00  0.00     0.028 H 
ENDBRANCH  93  99
ENDBRANCH  90  93
ENDBRANCH   1  90
TORSDOF 26
ENDMDL
MODEL 15
REMARK VINA RESULT:      -6.1      3.258      7.687
REMARK  26 active torsions:
REMARK  status: ('A' for Active; 'I' for Inactive)
REMARK    1  A    between atoms: C2_2  and  C3_3 
REMARK    2  A    between atoms: C4_6  and  C5_7 
REMARK       I    between atoms: C5_7  and  N2_9 
REMARK    3  A    between atoms: N2_9  and  C6_10 
REMARK    4  A    between atoms: C6_10  and  C7_11 
REMARK    5  A    between atoms: C6_10  and  C8_13 
REMARK       I    between atoms: C7_11  and  N3_14 
REMARK    6  A    between atoms: N3_14  and  C9_15 
REMARK    7  A    between atoms: C9_15  and  C10_16 
REMARK    8  A    between atoms: C9_15  and  C11_18 
REMARK       I    between atoms: C10_16  and  N4_21 
REMARK    9  A    between atoms: C11_18  and  C12_19 
REMARK   10  A    between atoms: C11_18  and  C13_20 
REMARK   11  A    between atoms: N4_21  and  C14_22 
REMARK   12  A    between atoms: C14_22  and  C15_23 
REMARK   13  A    between atoms: C14_22  and  C16_25 
REMARK       I    between atoms: C15_23  and  N6_40 
REMARK   14  A    between atoms: C16_25  and  C17_26 
REMARK   15  A    between atoms: C17_26  and  C18_27 
REMARK   16  A    between atoms: C17_26  and  C19_28 
REMARK   17  A    between atoms: C20_29  and  C21_30 
REMARK   18  A    between atoms: C20_29  and  C24_33 
REMARK   19  A    between atoms: C20_29  and  N6_40 
REMARK   20  A    between atoms: C21_30  and  C22_31 
REMARK   21  A    between atoms: C22_31  and  C23_32 
REMARK   22  A    between atoms: C23_32  and  O8_43 
REMARK   23  A    between atoms: C24_33  and  C25_34 
REMARK   24  A    between atoms: C28_38  and  O6_39 
REMARK   25  A    between atoms: C29_42  and  O8_43 
REMARK   26  A    between atoms: C29_42  and  C35_49 
ROOT
ATOM      1  C14 non d ame     -33.002   9.274  27.494  0.00  0.00     0.089 C 
ATOM      2  H20 non d ame     -31.993   8.863  27.470  0.00  0.00     0.087 H 
ENDROOT
BRANCH   1   3
ATOM      3  N4  non d ame     -32.893  10.684  27.841  0.00  0.00    -0.346 N 
ATOM      4  C10 non d ame     -31.826  11.543  27.210  0.00  0.00     0.241 C 
ATOM      5  O4  non d ame     -31.065  11.077  26.428  0.00  0.00    -0.271 OA
ATOM      6  H19 non d ame     -33.549  11.060  28.511  0.00  0.00     0.163 HD
BRANCH   4   7
ATOM      7  C9  non d ame     -31.731  13.001  27.576  0.00  0.00     0.092 C 
ATOM      8  H11 non d ame     -30.690  13.317  27.521  0.00  0.00     0.088 H 
BRANCH   7   9
ATOM      9  N3  non d ame     -32.480  13.799  26.602  0.00  0.00    -0.346 N 
ATOM     10  C7  non d ame     -31.799  14.377  25.469  0.00  0.00     0.240 C 
ATOM     11  O3  non d ame     -30.650  14.210  25.327  0.00  0.00    -0.271 OA
ATOM     12  H10 non d ame     -33.472  13.954  26.712  0.00  0.00     0.163 HD
BRANCH  10  13
ATOM     13  C6  non d ame     -32.601  15.229  24.436  0.00  0.00     0.086 C 
ATOM     14  H6  non d ame     -33.504  14.728  24.088  0.00  0.00     0.086 H 
BRANCH  13  15
ATOM     15  N2  non d ame     -33.029  16.463  25.074  0.00  0.00    -0.343 N 
ATOM     16  C5  non d ame     -34.441  16.647  25.413  0.00  0.00     0.273 C 
ATOM     17  O2  non d ame     -35.226  15.799  25.166  0.00  0.00    -0.266 OA
ATOM     18  H5  non d ame     -32.352  17.184  25.279  0.00  0.00     0.163 HD
BRANCH  16  19
ATOM     19  C4  non d ame     -34.907  17.946  26.089  0.00  0.00     0.154 A 
ATOM     20  C1  non d ame     -35.844  18.899  25.577  0.00  0.00    -0.017 A 
ATOM     21  C2  non d ame     -35.924  19.900  26.571  0.00  0.00     0.077 A 
ATOM     22  H1  non d ame     -36.383  18.869  24.630  0.00  0.00     0.091 H 
ATOM     23  O1  non d ame     -35.125  19.552  27.537  0.00  0.00    -0.218 OA
ATOM     24  N1  non d ame     -34.520  18.416  27.278  0.00  0.00    -0.123 NA
BRANCH  21  25
ATOM     25  C3  non d ame     -36.788  21.153  26.522  0.00  0.00    -0.029 C 
ATOM     26  H2  non d ame     -37.831  20.871  26.380  0.00  0.00     0.036 H 
ATOM     27  H3  non d ame     -36.685  21.702  27.457  0.00  0.00     0.036 H 
ATOM     28  H4  non d ame     -36.467  21.784  25.693  0.00  0.00     0.036 H 
ENDBRANCH  21  25
ENDBRANCH  16  19
ENDBRANCH  13  15
BRANCH  13  29
ATOM     29  C8  non d ame     -31.726  15.538  23.248  0.00  0.00    -0.049 C 
ATOM     30  H7  non d ame     -30.699  15.684  23.582  0.00  0.00     0.030 H 
ATOM     31  H8  non d ame     -31.764  14.707  22.544  0.00  0.00     0.030 H 
ATOM     32  H9  non d ame     -32.082  16.445  22.760  0.00  0.00     0.030 H 
ENDBRANCH  13  29
ENDBRANCH  10  13
ENDBRANCH   7   9
BRANCH   7  33
ATOM     33  C11 non d ame     -32.335  13.219  28.995  0.00  0.00    -0.033 C 
ATOM     34  H12 non d ame     -33.161  12.518  29.112  0.00  0.00     0.042 H 
BRANCH  33  35
ATOM     35  C12 non d ame     -31.291  12.905  30.111  0.00  0.00    -0.071 C 
ATOM     36  H13 non d ame     -31.809  12.578  31.013  0.00  0.00     0.028 H 
ATOM     37  H14 non d ame     -30.621  12.116  29.771  0.00  0.00     0.028 H 
ATOM     38  H15 non d ame     -30.713  13.803  30.331  0.00  0.00     0.028 H 
ENDBRANCH  33  35
BRANCH  33  39
ATOM     39  C13 non d ame     -32.905  14.667  29.143  0.00  0.00    -0.071 C 
ATOM     40  H16 non d ame     -33.287  15.007  28.181  0.00  0.00     0.028 H 
ATOM     41  H17 non d ame     -33.712  14.666  29.876  0.00  0.00     0.028 H 
ATOM     42  H18 non d ame     -32.113  15.336  29.478  0.00  0.00     0.028 H 
ENDBRANCH  33  39
ENDBRANCH   7  33
ENDBRANCH   4   7
ENDBRANCH   1   3
BRANCH   1  43
ATOM     43  C15 non d ame     -33.718   9.157  26.118  0.00  0.00     0.240 C 
ATOM     44  O5  non d ame     -34.713   9.773  25.915  0.00  0.00    -0.271 OA
ATOM     45  N6  non d ame     -33.156   8.282  25.049  0.00  0.00    -0.355 N 
ATOM     46  H46 non d ame     -32.308   7.758  25.208  0.00  0.00     0.162 HD
BRANCH  45  47
ATOM     47  C20 non d ame     -33.847   8.182  23.746  0.00  0.00     0.013 C 
ATOM     48  H30 non d ame     -34.742   8.803  23.792  0.00  0.00     0.072 H 
BRANCH  47  49
ATOM     49  C21 non d ame     -34.230   6.742  23.492  0.00  0.00    -0.038 C 
ATOM     50  H31 non d ame     -35.314   6.741  23.375  0.00  0.00     0.036 H 
ATOM     51  H32 non d ame     -33.593   6.408  22.674  0.00  0.00     0.036 H 
BRANCH  49  52
ATOM     52  C22 non d ame     -33.921   5.819  24.691  0.00  0.00     0.018 C 
ATOM     53  H33 non d ame     -33.045   5.240  24.400  0.00  0.00     0.048 H 
ATOM     54  H34 non d ame     -33.877   6.473  25.563  0.00  0.00     0.048 H 
BRANCH  52  55
ATOM     55  C23 non d ame     -35.040   4.783  24.990  0.00  0.00     0.259 C 
ATOM     56  O7  non d ame     -35.679   4.314  24.105  0.00  0.00    -0.265 OA
BRANCH  55  57
ATOM     57  O8  non d ame     -35.302   4.409  26.337  0.00  0.00    -0.317 OA
BRANCH  57  58
ATOM     58  C29 non d ame     -34.265   4.771  27.254  0.00  0.00     0.052 C 
ATOM     59  H47 non d ame     -33.679   3.865  27.409  0.00  0.00     0.082 H 
ATOM     60  H48 non d ame     -33.795   5.659  26.832  0.00  0.00     0.082 H 
BRANCH  58  61
ATOM     61  C35 non d ame     -34.931   5.162  28.600  0.00  0.00    -0.034 A 
ATOM     62  C30 non d ame     -34.217   5.053  29.788  0.00  0.00    -0.075 A 
ATOM     63  C31 non d ame     -34.815   5.403  30.998  0.00  0.00    -0.082 A 
ATOM     64  H49 non d ame     -33.188   4.693  29.773  0.00  0.00     0.084 H 
ATOM     65  C32 non d ame     -36.135   5.862  31.016  0.00  0.00    -0.083 A 
ATOM     66  H50 non d ame     -34.252   5.318  31.927  0.00  0.00     0.083 H 
ATOM     67  C33 non d ame     -36.845   5.965  29.828  0.00  0.00    -0.082 A 
ATOM     68  H51 non d ame     -36.610   6.138  31.957  0.00  0.00     0.083 H 
ATOM     69  C34 non d ame     -36.251   5.618  28.617  0.00  0.00    -0.075 A 
ATOM     70  H52 non d ame     -37.876   6.321  29.846  0.00  0.00     0.083 H 
ATOM     71  H53 non d ame     -36.815   5.704  27.688  0.00  0.00     0.084 H 
ENDBRANCH  58  61
ENDBRANCH  57  58
ENDBRANCH  55  57
ENDBRANCH  52  55
ENDBRANCH  49  52
ENDBRANCH  47  49
BRANCH  47  72
ATOM     72  C24 non d ame     -32.922   8.668  22.632  0.00  0.00    -0.039 C 
ATOM     73  H35 non d ame     -33.022   7.934  21.832  0.00  0.00     0.036 H 
ATOM     74  H36 non d ame     -33.200   9.707  22.456  0.00  0.00     0.036 H 
BRANCH  72  75
ATOM     75  C25 non d ame     -31.387   8.661  23.091  0.00  0.00    -0.001 C 
ATOM     76  C26 non d ame     -30.800  10.197  23.107  0.00  0.00    -0.035 C 
ATOM     77  C27 non d ame     -29.647  10.230  22.399  0.00  0.00     0.085 C 
ATOM     78  H38 non d ame     -31.463  10.856  22.547  0.00  0.00     0.036 H 
ATOM     79  H39 non d ame     -30.488  10.467  24.116  0.00  0.00     0.036 H 
ATOM     80  N5  non d ame     -29.563   8.935  21.629  0.00  0.00    -0.049 N 
ATOM     81  H40 non d ame     -29.761  11.055  21.696  0.00  0.00     0.075 H 
ATOM     82  H41 non d ame     -28.850  10.254  23.141  0.00  0.00     0.075 H 
ATOM     83  C28 non d ame     -30.663   7.954  22.289  0.00  0.00     0.193 C 
ATOM     84  H42 non d ame     -29.847   9.145  20.683  0.00  0.00     0.280 HD
ATOM     85  H43 non d ame     -28.644   8.555  21.808  0.00  0.00     0.280 HD
ATOM     86  H44 non d ame     -30.356   7.148  22.957  0.00  0.00     0.129 H 
ATOM     87  H37 non d ame     -31.227   8.059  23.986  0.00  0.00     0.046 H 
BRANCH  83  88
ATOM     88  O6  non d ame     -31.442   7.329  21.268  0.00  0.00    -0.369 OA
ATOM     89  H45 non d ame     -30.880   7.121  20.518  0.00  0.00     0.212 HD
ENDBRANCH  83  88
ENDBRANCH  72  75
ENDBRANCH  47  72
ENDBRANCH  45  47
ENDBRANCH   1  43
BRANCH   1  90
ATOM     90  C16 non d ame     -33.822   8.564  28.559  0.00  0.00    -0.035 C 
ATOM     91  H21 non d ame     -34.559   7.977  28.012  0.00  0.00     0.037 H 
ATOM     92  H22 non d ame     -33.094   8.065  29.199  0.00  0.00     0.037 H 
BRANCH  90  93
ATOM     93  C17 non d ame     -34.628   9.534  29.481  0.00  0.00    -0.059 C 
ATOM     94  H23 non d ame     -34.224  10.536  29.340  0.00  0.00     0.038 H 
BRANCH  93  95
ATOM     95  C18 non d ame     -36.145   9.576  29.109  0.00  0.00    -0.073 C 
ATOM     96  H24 non d ame     -36.254   9.818  28.053  0.00  0.00     0.028 H 
ATOM     97  H25 non d ame     -36.595   8.603  29.306  0.00  0.00     0.028 H 
ATOM     98  H26 non d ame     -36.645  10.335  29.710  0.00  0.00     0.028 H 
ENDBRANCH  93  95
BRANCH  93  99
ATOM     99  C19 non d ame     -34.439   9.170  30.956  0.00  0.00    -0.073 C 
ATOM    100  H27 non d ame     -34.049   8.154  31.033  0.00  0.00     0.028 H 
ATOM    101  H28 non d ame     -33.734   9.864  31.414  0.00  0.00     0.028 H 
ATOM    102  H29 non d ame     -35.396   9.233  31.471  0.00  0.00     0.028 H 
ENDBRANCH  93  99
ENDBRANCH  90  93
ENDBRANCH   1  90
TORSDOF 26
ENDMDL
MODEL 16
REMARK VINA RESULT:      -6.1      2.401      7.650
REMARK  26 active torsions:
REMARK  status: ('A' for Active; 'I' for Inactive)
REMARK    1  A    between atoms: C2_2  and  C3_3 
REMARK    2  A    between atoms: C4_6  and  C5_7 
REMARK       I    between atoms: C5_7  and  N2_9 
REMARK    3  A    between atoms: N2_9  and  C6_10 
REMARK    4  A    between atoms: C6_10  and  C7_11 
REMARK    5  A    between atoms: C6_10  and  C8_13 
REMARK       I    between atoms: C7_11  and  N3_14 
REMARK    6  A    between atoms: N3_14  and  C9_15 
REMARK    7  A    between atoms: C9_15  and  C10_16 
REMARK    8  A    between atoms: C9_15  and  C11_18 
REMARK       I    between atoms: C10_16  and  N4_21 
REMARK    9  A    between atoms: C11_18  and  C12_19 
REMARK   10  A    between atoms: C11_18  and  C13_20 
REMARK   11  A    between atoms: N4_21  and  C14_22 
REMARK   12  A    between atoms: C14_22  and  C15_23 
REMARK   13  A    between atoms: C14_22  and  C16_25 
REMARK       I    between atoms: C15_23  and  N6_40 
REMARK   14  A    between atoms: C16_25  and  C17_26 
REMARK   15  A    between atoms: C17_26  and  C18_27 
REMARK   16  A    between atoms: C17_26  and  C19_28 
REMARK   17  A    between atoms: C20_29  and  C21_30 
REMARK   18  A    between atoms: C20_29  and  C24_33 
REMARK   19  A    between atoms: C20_29  and  N6_40 
REMARK   20  A    between atoms: C21_30  and  C22_31 
REMARK   21  A    between atoms: C22_31  and  C23_32 
REMARK   22  A    between atoms: C23_32  and  O8_43 
REMARK   23  A    between atoms: C24_33  and  C25_34 
REMARK   24  A    between atoms: C28_38  and  O6_39 
REMARK   25  A    between atoms: C29_42  and  O8_43 
REMARK   26  A    between atoms: C29_42  and  C35_49 
ROOT
ATOM      1  C14 non d ame     -32.927  12.461  29.207  0.00  0.00     0.089 C 
ATOM      2  H20 non d ame     -32.843  12.748  30.256  0.00  0.00     0.087 H 
ENDROOT
BRANCH   1   3
ATOM      3  N4  non d ame     -33.825  11.318  29.136  0.00  0.00    -0.346 N 
ATOM      4  C10 non d ame     -33.807  10.267  30.217  0.00  0.00     0.241 C 
ATOM      5  O4  non d ame     -33.059  10.362  31.134  0.00  0.00    -0.271 OA
ATOM      6  H19 non d ame     -34.452  11.254  28.346  0.00  0.00     0.163 HD
BRANCH   4   7
ATOM      7  C9  non d ame     -34.747   9.093  30.131  0.00  0.00     0.092 C 
ATOM      8  H11 non d ame     -35.710   9.433  29.749  0.00  0.00     0.088 H 
BRANCH   7   9
ATOM      9  N3  non d ame     -34.221   8.116  29.172  0.00  0.00    -0.346 N 
ATOM     10  C7  non d ame     -34.667   8.140  27.801  0.00  0.00     0.240 C 
ATOM     11  O3  non d ame     -35.449   8.938  27.452  0.00  0.00    -0.271 OA
ATOM     12  H10 non d ame     -33.548   7.421  29.459  0.00  0.00     0.163 HD
BRANCH  10  13
ATOM     13  C6  non d ame     -34.107   7.096  26.787  0.00  0.00     0.086 C 
ATOM     14  H6  non d ame     -34.849   6.780  26.053  0.00  0.00     0.086 H 
BRANCH  13  15
ATOM     15  N2  non d ame     -33.016   7.701  26.041  0.00  0.00    -0.343 N 
ATOM     16  C5  non d ame     -33.286   8.316  24.739  0.00  0.00     0.273 C 
ATOM     17  O2  non d ame     -34.384   8.316  24.300  0.00  0.00    -0.266 OA
ATOM     18  H5  non d ame     -32.081   7.694  26.422  0.00  0.00     0.163 HD
BRANCH  16  19
ATOM     19  C4  non d ame     -32.143   8.961  23.940  0.00  0.00     0.154 A 
ATOM     20  C1  non d ame     -31.198   8.299  23.095  0.00  0.00    -0.017 A 
ATOM     21  C2  non d ame     -30.367   9.329  22.601  0.00  0.00     0.077 A 
ATOM     22  H1  non d ame     -31.125   7.233  22.874  0.00  0.00     0.091 H 
ATOM     23  O1  non d ame     -30.795  10.448  23.108  0.00  0.00    -0.218 OA
ATOM     24  N1  non d ame     -31.830  10.259  23.893  0.00  0.00    -0.123 NA
BRANCH  21  25
ATOM     25  C3  non d ame     -29.190   9.160  21.650  0.00  0.00    -0.029 C 
ATOM     26  H2  non d ame     -28.862  10.138  21.300  0.00  0.00     0.036 H 
ATOM     27  H3  non d ame     -28.370   8.667  22.171  0.00  0.00     0.036 H 
ATOM     28  H4  non d ame     -29.495   8.553  20.798  0.00  0.00     0.036 H 
ENDBRANCH  21  25
ENDBRANCH  16  19
ENDBRANCH  13  15
BRANCH  13  29
ATOM     29  C8  non d ame     -33.612   5.883  27.532  0.00  0.00    -0.049 C 
ATOM     30  H7  non d ame     -32.540   5.769  27.370  0.00  0.00     0.030 H 
ATOM     31  H8  non d ame     -33.807   6.006  28.597  0.00  0.00     0.030 H 
ATOM     32  H9  non d ame     -34.130   4.995  27.168  0.00  0.00     0.030 H 
ENDBRANCH  13  29
ENDBRANCH  10  13
ENDBRANCH   7   9
BRANCH   7  33
ATOM     33  C11 non d ame     -34.874   8.426  31.531  0.00  0.00    -0.033 C 
ATOM     34  H12 non d ame     -33.911   8.528  32.032  0.00  0.00     0.042 H 
BRANCH  33  35
ATOM     35  C12 non d ame     -35.939   9.150  32.412  0.00  0.00    -0.071 C 
ATOM     36  H13 non d ame     -36.191   8.523  33.267  0.00  0.00     0.028 H 
ATOM     37  H14 non d ame     -35.536  10.099  32.763  0.00  0.00     0.028 H 
ATOM     38  H15 non d ame     -36.836   9.333  31.820  0.00  0.00     0.028 H 
ENDBRANCH  33  35
BRANCH  33  39
ATOM     39  C13 non d ame     -35.190   6.902  31.398  0.00  0.00    -0.071 C 
ATOM     40  H16 non d ame     -36.077   6.662  31.984  0.00  0.00     0.028 H 
ATOM     41  H17 non d ame     -35.370   6.658  30.350  0.00  0.00     0.028 H 
ATOM     42  H18 non d ame     -34.344   6.321  31.765  0.00  0.00     0.028 H 
ENDBRANCH  33  39
ENDBRANCH   7  33
ENDBRANCH   4   7
ENDBRANCH   1   3
BRANCH   1  43
ATOM     43  C15 non d ame     -33.513  13.606  28.331  0.00  0.00     0.240 C 
ATOM     44  O5  non d ame     -33.429  14.733  28.698  0.00  0.00    -0.271 OA
ATOM     45  N6  non d ame     -34.170  13.297  27.029  0.00  0.00    -0.355 N 
ATOM     46  H46 non d ame     -34.243  12.344  26.705  0.00  0.00     0.162 HD
BRANCH  45  47
ATOM     47  C20 non d ame     -34.721  14.397  26.207  0.00  0.00     0.013 C 
ATOM     48  H30 non d ame     -34.712  15.304  26.812  0.00  0.00     0.072 H 
BRANCH  47  49
ATOM     49  C21 non d ame     -36.138  14.058  25.804  0.00  0.00    -0.038 C 
ATOM     50  H31 non d ame     -36.049  13.422  24.923  0.00  0.00     0.036 H 
ATOM     51  H32 non d ame     -36.617  13.676  26.706  0.00  0.00     0.036 H 
BRANCH  49  52
ATOM     52  C22 non d ame     -36.950  15.297  25.368  0.00  0.00     0.018 C 
ATOM     53  H33 non d ame     -36.234  15.966  24.892  0.00  0.00     0.048 H 
ATOM     54  H34 non d ame     -37.797  14.910  24.801  0.00  0.00     0.048 H 
BRANCH  52  55
ATOM     55  C23 non d ame     -37.558  16.096  26.555  0.00  0.00     0.259 C 
ATOM     56  O7  non d ame     -38.423  15.624  27.218  0.00  0.00    -0.265 OA
BRANCH  55  57
ATOM     57  O8  non d ame     -37.077  17.405  26.832  0.00  0.00    -0.317 OA
BRANCH  57  58
ATOM     58  C29 non d ame     -36.064  17.451  27.842  0.00  0.00     0.052 C 
ATOM     59  H47 non d ame     -36.470  18.074  28.639  0.00  0.00     0.082 H 
ATOM     60  H48 non d ame     -35.799  16.413  28.042  0.00  0.00     0.082 H 
BRANCH  58  61
ATOM     61  C35 non d ame     -34.824  18.167  27.243  0.00  0.00    -0.034 A 
ATOM     62  C30 non d ame     -34.853  18.632  25.932  0.00  0.00    -0.075 A 
ATOM     63  C31 non d ame     -33.739  19.274  25.394  0.00  0.00    -0.082 A 
ATOM     64  H49 non d ame     -35.748  18.492  25.326  0.00  0.00     0.084 H 
ATOM     65  C32 non d ame     -32.591  19.449  26.172  0.00  0.00    -0.083 A 
ATOM     66  H50 non d ame     -33.765  19.639  24.367  0.00  0.00     0.083 H 
ATOM     67  C33 non d ame     -32.565  18.980  27.478  0.00  0.00    -0.082 A 
ATOM     68  H51 non d ame     -31.715  19.951  25.759  0.00  0.00     0.083 H 
ATOM     69  C34 non d ame     -33.677  18.340  28.021  0.00  0.00    -0.075 A 
ATOM     70  H52 non d ame     -31.667  19.116  28.082  0.00  0.00     0.083 H 
ATOM     71  H53 non d ame     -33.650  17.975  29.048  0.00  0.00     0.084 H 
ENDBRANCH  58  61
ENDBRANCH  57  58
ENDBRANCH  55  57
ENDBRANCH  52  55
ENDBRANCH  49  52
ENDBRANCH  47  49
BRANCH  47  72
ATOM     72  C24 non d ame     -33.865  14.584  24.956  0.00  0.00    -0.039 C 
ATOM     73  H35 non d ame     -33.788  13.594  24.506  0.00  0.00     0.036 H 
ATOM     74  H36 non d ame     -34.334  15.399  24.404  0.00  0.00     0.036 H 
BRANCH  72  75
ATOM     75  C25 non d ame     -32.378  15.055  25.321  0.00  0.00    -0.001 C 
ATOM     76  C26 non d ame     -31.896  16.239  24.286  0.00  0.00    -0.035 C 
ATOM     77  C27 non d ame     -30.690  15.902  23.768  0.00  0.00     0.085 C 
ATOM     78  H38 non d ame     -32.550  16.263  23.415  0.00  0.00     0.036 H 
ATOM     79  H39 non d ame     -31.688  17.156  24.838  0.00  0.00     0.036 H 
ATOM     80  N5  non d ame     -30.458  14.448  24.101  0.00  0.00    -0.049 N 
ATOM     81  H40 non d ame     -30.798  16.006  22.689  0.00  0.00     0.075 H 
ATOM     82  H41 non d ame     -29.963  16.509  24.305  0.00  0.00     0.075 H 
ATOM     83  C28 non d ame     -31.543  14.073  25.236  0.00  0.00     0.193 C 
ATOM     84  H42 non d ame     -30.673  13.924  23.265  0.00  0.00     0.280 HD
ATOM     85  H43 non d ame     -29.535  14.392  24.508  0.00  0.00     0.280 HD
ATOM     86  H44 non d ame     -31.243  13.978  26.280  0.00  0.00     0.129 H 
ATOM     87  H37 non d ame     -32.255  15.247  26.387  0.00  0.00     0.046 H 
BRANCH  83  88
ATOM     88  O6  non d ame     -32.190  12.842  24.912  0.00  0.00    -0.369 OA
ATOM     89  H45 non d ame     -32.353  12.344  25.717  0.00  0.00     0.212 HD
ENDBRANCH  83  88
ENDBRANCH  72  75
ENDBRANCH  47  72
ENDBRANCH  45  47
ENDBRANCH   1  43
BRANCH   1  90
ATOM     90  C16 non d ame     -31.563  12.055  28.673  0.00  0.00    -0.035 C 
ATOM     91  H21 non d ame     -31.484  10.986  28.865  0.00  0.00     0.037 H 
ATOM     92  H22 non d ame     -31.531  12.429  27.649  0.00  0.00     0.037 H 
BRANCH  90  93
ATOM     93  C17 non d ame     -30.370  12.727  29.424  0.00  0.00    -0.059 C 
ATOM     94  H23 non d ame     -29.518  12.050  29.365  0.00  0.00     0.038 H 
BRANCH  93  95
ATOM     95  C18 non d ame     -29.949  14.082  28.770  0.00  0.00    -0.073 C 
ATOM     96  H24 non d ame     -30.386  14.156  27.774  0.00  0.00     0.028 H 
ATOM     97  H25 non d ame     -30.304  14.908  29.384  0.00  0.00     0.028 H 
ATOM     98  H26 non d ame     -28.863  14.126  28.694  0.00  0.00     0.028 H 
ENDBRANCH  93  95
BRANCH  93  99
ATOM     99  C19 non d ame     -30.697  12.918  30.908  0.00  0.00    -0.073 C 
ATOM    100  H27 non d ame     -31.779  12.933  31.043  0.00  0.00     0.028 H 
ATOM    101  H28 non d ame     -30.271  12.095  31.483  0.00  0.00     0.028 H 
ATOM    102  H29 non d ame     -30.273  13.860  31.255  0.00  0.00     0.028 H 
ENDBRANCH  93  99
ENDBRANCH  90  93
ENDBRANCH   1  90
TORSDOF 26
ENDMDL
MODEL 17
REMARK VINA RESULT:      -6.0      3.363      8.316
REMARK  26 active torsions:
REMARK  status: ('A' for Active; 'I' for Inactive)
REMARK    1  A    between atoms: C2_2  and  C3_3 
REMARK    2  A    between atoms: C4_6  and  C5_7 
REMARK       I    between atoms: C5_7  and  N2_9 
REMARK    3  A    between atoms: N2_9  and  C6_10 
REMARK    4  A    between atoms: C6_10  and  C7_11 
REMARK    5  A    between atoms: C6_10  and  C8_13 
REMARK       I    between atoms: C7_11  and  N3_14 
REMARK    6  A    between atoms: N3_14  and  C9_15 
REMARK    7  A    between atoms: C9_15  and  C10_16 
REMARK    8  A    between atoms: C9_15  and  C11_18 
REMARK       I    between atoms: C10_16  and  N4_21 
REMARK    9  A    between atoms: C11_18  and  C12_19 
REMARK   10  A    between atoms: C11_18  and  C13_20 
REMARK   11  A    between atoms: N4_21  and  C14_22 
REMARK   12  A    between atoms: C14_22  and  C15_23 
REMARK   13  A    between atoms: C14_22  and  C16_25 
REMARK       I    between atoms: C15_23  and  N6_40 
REMARK   14  A    between atoms: C16_25  and  C17_26 
REMARK   15  A    between atoms: C17_26  and  C18_27 
REMARK   16  A    between atoms: C17_26  and  C19_28 
REMARK   17  A    between atoms: C20_29  and  C21_30 
REMARK   18  A    between atoms: C20_29  and  C24_33 
REMARK   19  A    between atoms: C20_29  and  N6_40 
REMARK   20  A    between atoms: C21_30  and  C22_31 
REMARK   21  A    between atoms: C22_31  and  C23_32 
REMARK   22  A    between atoms: C23_32  and  O8_43 
REMARK   23  A    between atoms: C24_33  and  C25_34 
REMARK   24  A    between atoms: C28_38  and  O6_39 
REMARK   25  A    between atoms: C29_42  and  O8_43 
REMARK   26  A    between atoms: C29_42  and  C35_49 
ROOT
ATOM      1  C14 non d ame     -33.495  10.240  30.208  0.00  0.00     0.089 C 
ATOM      2  H20 non d ame     -32.470   9.967  29.954  0.00  0.00     0.087 H 
ENDROOT
BRANCH   1   3
ATOM      3  N4  non d ame     -34.214  10.450  28.961  0.00  0.00    -0.346 N 
ATOM      4  C10 non d ame     -33.659   9.922  27.662  0.00  0.00     0.241 C 
ATOM      5  O4  non d ame     -32.629   9.332  27.646  0.00  0.00    -0.271 OA
ATOM      6  H19 non d ame     -35.088  10.957  28.996  0.00  0.00     0.163 HD
BRANCH   4   7
ATOM      7  C9  non d ame     -34.420  10.144  26.382  0.00  0.00     0.092 C 
ATOM      8  H11 non d ame     -35.484   9.996  26.567  0.00  0.00     0.088 H 
BRANCH   7   9
ATOM      9  N3  non d ame     -34.246  11.532  25.944  0.00  0.00    -0.346 N 
ATOM     10  C7  non d ame     -35.152  12.554  26.410  0.00  0.00     0.240 C 
ATOM     11  O3  non d ame     -36.027  12.275  27.135  0.00  0.00    -0.271 OA
ATOM     12  H10 non d ame     -33.496  11.787  25.317  0.00  0.00     0.163 HD
BRANCH  10  13
ATOM     13  C6  non d ame     -34.963  14.029  25.938  0.00  0.00     0.086 C 
ATOM     14  H6  non d ame     -34.732  14.708  26.759  0.00  0.00     0.086 H 
BRANCH  13  15
ATOM     15  N2  non d ame     -33.839  14.090  25.019  0.00  0.00    -0.343 N 
ATOM     16  C5  non d ame     -32.615  14.786  25.421  0.00  0.00     0.273 C 
ATOM     17  O2  non d ame     -32.546  15.297  26.485  0.00  0.00    -0.266 OA
ATOM     18  H5  non d ame     -33.908  13.653  24.110  0.00  0.00     0.163 HD
BRANCH  16  19
ATOM     19  C4  non d ame     -31.419  14.857  24.460  0.00  0.00     0.154 A 
ATOM     20  C1  non d ame     -30.856  13.783  23.699  0.00  0.00    -0.017 A 
ATOM     21  C2  non d ame     -29.786  14.366  22.984  0.00  0.00     0.077 A 
ATOM     22  H1  non d ame     -31.175  12.741  23.670  0.00  0.00     0.091 H 
ATOM     23  O1  non d ame     -29.748  15.627  23.303  0.00  0.00    -0.218 OA
ATOM     24  N1  non d ame     -30.691  15.937  24.162  0.00  0.00    -0.123 NA
BRANCH  21  25
ATOM     25  C3  non d ame     -28.851  13.651  22.018  0.00  0.00    -0.029 C 
ATOM     26  H2  non d ame     -29.221  12.642  21.834  0.00  0.00     0.036 H 
ATOM     27  H3  non d ame     -28.811  14.200  21.078  0.00  0.00     0.036 H 
ATOM     28  H4  non d ame     -27.852  13.598  22.451  0.00  0.00     0.036 H 
ENDBRANCH  21  25
ENDBRANCH  16  19
ENDBRANCH  13  15
BRANCH  13  29
ATOM     29  C8  non d ame     -36.219  14.504  25.251  0.00  0.00    -0.049 C 
ATOM     30  H7  non d ame     -37.057  14.446  25.946  0.00  0.00     0.030 H 
ATOM     31  H8  non d ame     -36.087  15.536  24.928  0.00  0.00     0.030 H 
ATOM     32  H9  non d ame     -36.420  13.874  24.385  0.00  0.00     0.030 H 
ENDBRANCH  13  29
ENDBRANCH  10  13
ENDBRANCH   7   9
BRANCH   7  33
ATOM     33  C11 non d ame     -33.877   9.185  25.283  0.00  0.00    -0.033 C 
ATOM     34  H12 non d ame     -33.276   8.423  25.779  0.00  0.00     0.042 H 
BRANCH  33  35
ATOM     35  C12 non d ame     -35.040   8.454  24.541  0.00  0.00    -0.071 C 
ATOM     36  H13 non d ame     -34.755   8.278  23.504  0.00  0.00     0.028 H 
ATOM     37  H14 non d ame     -35.240   7.501  25.030  0.00  0.00     0.028 H 
ATOM     38  H15 non d ame     -35.936   9.074  24.571  0.00  0.00     0.028 H 
ENDBRANCH  33  35
BRANCH  33  39
ATOM     39  C13 non d ame     -32.957   9.949  24.278  0.00  0.00    -0.071 C 
ATOM     40  H16 non d ame     -32.250  10.568  24.831  0.00  0.00     0.028 H 
ATOM     41  H17 non d ame     -32.410   9.230  23.667  0.00  0.00     0.028 H 
ATOM     42  H18 non d ame     -33.568  10.581  23.634  0.00  0.00     0.028 H 
ENDBRANCH  33  39
ENDBRANCH   7  33
ENDBRANCH   4   7
ENDBRANCH   1   3
BRANCH   1  43
ATOM     43  C15 non d ame     -34.217   9.122  31.014  0.00  0.00     0.240 C 
ATOM     44  O5  non d ame     -34.434   9.275  32.172  0.00  0.00    -0.271 OA
ATOM     45  N6  non d ame     -34.645   7.864  30.339  0.00  0.00    -0.355 N 
ATOM     46  H46 non d ame     -34.470   7.724  29.355  0.00  0.00     0.162 HD
BRANCH  45  47
ATOM     47  C20 non d ame     -35.332   6.811  31.119  0.00  0.00     0.013 C 
ATOM     48  H30 non d ame     -35.012   6.901  32.157  0.00  0.00     0.072 H 
BRANCH  47  49
ATOM     49  C21 non d ame     -34.946   5.454  30.575  0.00  0.00    -0.038 C 
ATOM     50  H31 non d ame     -34.149   5.092  31.225  0.00  0.00     0.036 H 
ATOM     51  H32 non d ame     -35.878   4.895  30.491  0.00  0.00     0.036 H 
BRANCH  49  52
ATOM     52  C22 non d ame     -34.349   5.526  29.153  0.00  0.00     0.018 C 
ATOM     53  H33 non d ame     -34.237   6.587  28.933  0.00  0.00     0.048 H 
ATOM     54  H34 non d ame     -33.474   4.876  29.166  0.00  0.00     0.048 H 
BRANCH  52  55
ATOM     55  C23 non d ame     -35.287   4.959  28.051  0.00  0.00     0.259 C 
ATOM     56  O7  non d ame     -36.400   4.636  28.313  0.00  0.00    -0.265 OA
BRANCH  55  57
ATOM     57  O8  non d ame     -34.795   4.816  26.724  0.00  0.00    -0.317 OA
BRANCH  57  58
ATOM     58  C29 non d ame     -33.371   4.724  26.637  0.00  0.00     0.052 C 
ATOM     59  H47 non d ame     -32.985   5.369  27.427  0.00  0.00     0.082 H 
ATOM     60  H48 non d ame     -33.143   3.659  26.643  0.00  0.00     0.082 H 
BRANCH  58  61
ATOM     61  C35 non d ame     -32.935   5.311  25.268  0.00  0.00    -0.034 A 
ATOM     62  C30 non d ame     -33.652   4.999  24.117  0.00  0.00    -0.075 A 
ATOM     63  C31 non d ame     -33.261   5.526  22.887  0.00  0.00    -0.082 A 
ATOM     64  H49 non d ame     -34.519   4.342  24.178  0.00  0.00     0.084 H 
ATOM     65  C32 non d ame     -32.147   6.366  22.810  0.00  0.00    -0.083 A 
ATOM     66  H50 non d ame     -33.825   5.281  21.987  0.00  0.00     0.083 H 
ATOM     67  C33 non d ame     -31.433   6.672  23.961  0.00  0.00    -0.082 A 
ATOM     68  H51 non d ame     -31.835   6.783  21.852  0.00  0.00     0.083 H 
ATOM     69  C34 non d ame     -31.821   6.149  25.192  0.00  0.00    -0.075 A 
ATOM     70  H52 non d ame     -30.563   7.326  23.897  0.00  0.00     0.083 H 
ATOM     71  H53 non d ame     -31.256   6.395  26.092  0.00  0.00     0.084 H 
ENDBRANCH  58  61
ENDBRANCH  57  58
ENDBRANCH  55  57
ENDBRANCH  52  55
ENDBRANCH  49  52
ENDBRANCH  47  49
BRANCH  47  72
ATOM     72  C24 non d ame     -36.844   6.993  31.011  0.00  0.00    -0.039 C 
ATOM     73  H35 non d ame     -37.222   6.049  30.617  0.00  0.00     0.036 H 
ATOM     74  H36 non d ame     -37.165   7.341  31.993  0.00  0.00     0.036 H 
BRANCH  72  75
ATOM     75  C25 non d ame     -37.231   8.134  29.955  0.00  0.00    -0.001 C 
ATOM     76  C26 non d ame     -37.873   9.428  30.740  0.00  0.00    -0.035 C 
ATOM     77  C27 non d ame     -39.050   9.754  30.153  0.00  0.00     0.085 C 
ATOM     78  H38 non d ame     -38.162   9.146  31.752  0.00  0.00     0.036 H 
ATOM     79  H39 non d ame     -37.254  10.310  30.575  0.00  0.00     0.036 H 
ATOM     80  N5  non d ame     -39.428   8.603  29.253  0.00  0.00    -0.049 N 
ATOM     81  H40 non d ame     -39.772   9.821  30.967  0.00  0.00     0.075 H 
ATOM     82  H41 non d ame     -38.837  10.629  29.540  0.00  0.00     0.075 H 
ATOM     83  C28 non d ame     -38.096   7.704  29.098  0.00  0.00     0.193 C 
ATOM     84  H42 non d ame     -40.122   8.065  29.752  0.00  0.00     0.280 HD
ATOM     85  H43 non d ame     -39.651   9.005  28.354  0.00  0.00     0.280 HD
ATOM     86  H44 non d ame     -37.504   7.743  28.183  0.00  0.00     0.129 H 
ATOM     87  H37 non d ame     -36.425   8.332  29.248  0.00  0.00     0.046 H 
BRANCH  83  88
ATOM     88  O6  non d ame     -38.407   6.323  29.293  0.00  0.00    -0.369 OA
ATOM     89  H45 non d ame     -37.665   5.884  29.715  0.00  0.00     0.212 HD
ENDBRANCH  83  88
ENDBRANCH  72  75
ENDBRANCH  47  72
ENDBRANCH  45  47
ENDBRANCH   1  43
BRANCH   1  90
ATOM     90  C16 non d ame     -33.500  11.532  31.009  0.00  0.00    -0.035 C 
ATOM     91  H21 non d ame     -34.412  12.050  30.714  0.00  0.00     0.037 H 
ATOM     92  H22 non d ame     -33.357  11.229  32.046  0.00  0.00     0.037 H 
BRANCH  90  93
ATOM     93  C17 non d ame     -32.316  12.490  30.661  0.00  0.00    -0.059 C 
ATOM     94  H23 non d ame     -32.268  13.252  31.438  0.00  0.00     0.038 H 
BRANCH  93  95
ATOM     95  C18 non d ame     -30.943  11.745  30.638  0.00  0.00    -0.073 C 
ATOM     96  H24 non d ame     -31.002  10.855  31.264  0.00  0.00     0.028 H 
ATOM     97  H25 non d ame     -30.704  11.454  29.615  0.00  0.00     0.028 H 
ATOM     98  H26 non d ame     -30.165  12.407  31.018  0.00  0.00     0.028 H 
ENDBRANCH  93  95
BRANCH  93  99
ATOM     99  C19 non d ame     -32.568  13.209  29.333  0.00  0.00    -0.073 C 
ATOM    100  H27 non d ame     -33.141  14.119  29.515  0.00  0.00     0.028 H 
ATOM    101  H28 non d ame     -31.614  13.467  28.872  0.00  0.00     0.028 H 
ATOM    102  H29 non d ame     -33.127  12.555  28.665  0.00  0.00     0.028 H 
ENDBRANCH  93  99
ENDBRANCH  90  93
ENDBRANCH   1  90
TORSDOF 26
ENDMDL
MODEL 18
REMARK VINA RESULT:      -6.0      3.406      8.336
REMARK  26 active torsions:
REMARK  status: ('A' for Active; 'I' for Inactive)
REMARK    1  A    between atoms: C2_2  and  C3_3 
REMARK    2  A    between atoms: C4_6  and  C5_7 
REMARK       I    between atoms: C5_7  and  N2_9 
REMARK    3  A    between atoms: N2_9  and  C6_10 
REMARK    4  A    between atoms: C6_10  and  C7_11 
REMARK    5  A    between atoms: C6_10  and  C8_13 
REMARK       I    between atoms: C7_11  and  N3_14 
REMARK    6  A    between atoms: N3_14  and  C9_15 
REMARK    7  A    between atoms: C9_15  and  C10_16 
REMARK    8  A    between atoms: C9_15  and  C11_18 
REMARK       I    between atoms: C10_16  and  N4_21 
REMARK    9  A    between atoms: C11_18  and  C12_19 
REMARK   10  A    between atoms: C11_18  and  C13_20 
REMARK   11  A    between atoms: N4_21  and  C14_22 
REMARK   12  A    between atoms: C14_22  and  C15_23 
REMARK   13  A    between atoms: C14_22  and  C16_25 
REMARK       I    between atoms: C15_23  and  N6_40 
REMARK   14  A    between atoms: C16_25  and  C17_26 
REMARK   15  A    between atoms: C17_26  and  C18_27 
REMARK   16  A    between atoms: C17_26  and  C19_28 
REMARK   17  A    between atoms: C20_29  and  C21_30 
REMARK   18  A    between atoms: C20_29  and  C24_33 
REMARK   19  A    between atoms: C20_29  and  N6_40 
REMARK   20  A    between atoms: C21_30  and  C22_31 
REMARK   21  A    between atoms: C22_31  and  C23_32 
REMARK   22  A    between atoms: C23_32  and  O8_43 
REMARK   23  A    between atoms: C24_33  and  C25_34 
REMARK   24  A    between atoms: C28_38  and  O6_39 
REMARK   25  A    between atoms: C29_42  and  O8_43 
REMARK   26  A    between atoms: C29_42  and  C35_49 
ROOT
ATOM      1  C14 non d ame     -33.899  10.787  28.985  0.00  0.00     0.089 C 
ATOM      2  H20 non d ame     -34.254  11.181  29.938  0.00  0.00     0.087 H 
ENDROOT
BRANCH   1   3
ATOM      3  N4  non d ame     -34.510   9.479  28.797  0.00  0.00    -0.346 N 
ATOM      4  C10 non d ame     -34.751   8.574  29.978  0.00  0.00     0.241 C 
ATOM      5  O4  non d ame     -34.442   8.918  31.071  0.00  0.00    -0.271 OA
ATOM      6  H19 non d ame     -34.764   9.204  27.858  0.00  0.00     0.163 HD
BRANCH   4   7
ATOM      7  C9  non d ame     -35.390   7.226  29.766  0.00  0.00     0.092 C 
ATOM      8  H11 non d ame     -36.184   7.319  29.026  0.00  0.00     0.088 H 
BRANCH   7   9
ATOM      9  N3  non d ame     -34.397   6.295  29.222  0.00  0.00    -0.346 N 
ATOM     10  C7  non d ame     -34.619   5.674  27.939  0.00  0.00     0.240 C 
ATOM     11  O3  non d ame     -35.592   5.910  27.333  0.00  0.00    -0.271 OA
ATOM     12  H10 non d ame     -33.554   6.080  29.734  0.00  0.00     0.163 HD
BRANCH  10  13
ATOM     13  C6  non d ame     -33.560   4.681  27.366  0.00  0.00     0.086 C 
ATOM     14  H6  non d ame     -34.012   3.818  26.878  0.00  0.00     0.086 H 
BRANCH  13  15
ATOM     15  N2  non d ame     -32.771   5.365  26.356  0.00  0.00    -0.343 N 
ATOM     16  C5  non d ame     -32.985   5.054  24.941  0.00  0.00     0.273 C 
ATOM     17  O2  non d ame     -33.793   4.250  24.626  0.00  0.00    -0.266 OA
ATOM     18  H5  non d ame     -32.081   6.048  26.633  0.00  0.00     0.163 HD
BRANCH  16  19
ATOM     19  C4  non d ame     -32.159   5.770  23.861  0.00  0.00     0.154 A 
ATOM     20  C1  non d ame     -31.128   6.742  24.064  0.00  0.00    -0.017 A 
ATOM     21  C2  non d ame     -30.691   7.084  22.765  0.00  0.00     0.077 A 
ATOM     22  H1  non d ame     -30.755   7.137  25.009  0.00  0.00     0.091 H 
ATOM     23  O1  non d ame     -31.394   6.385  21.923  0.00  0.00    -0.218 OA
ATOM     24  N1  non d ame     -32.257   5.611  22.538  0.00  0.00    -0.123 NA
BRANCH  21  25
ATOM     25  C3  non d ame     -29.598   8.086  22.417  0.00  0.00    -0.029 C 
ATOM     26  H2  non d ame     -28.630   7.688  22.721  0.00  0.00     0.036 H 
ATOM     27  H3  non d ame     -29.596   8.262  21.341  0.00  0.00     0.036 H 
ATOM     28  H4  non d ame     -29.785   9.024  22.938  0.00  0.00     0.036 H 
ENDBRANCH  21  25
ENDBRANCH  16  19
ENDBRANCH  13  15
BRANCH  13  29
ATOM     29  C8  non d ame     -32.666   4.198  28.480  0.00  0.00    -0.049 C 
ATOM     30  H7  non d ame     -33.157   3.383  29.012  0.00  0.00     0.030 H 
ATOM     31  H8  non d ame     -31.725   3.843  28.062  0.00  0.00     0.030 H 
ATOM     32  H9  non d ame     -32.471   5.018  29.171  0.00  0.00     0.030 H 
ENDBRANCH  13  29
ENDBRANCH  10  13
ENDBRANCH   7   9
BRANCH   7  33
ATOM     33  C11 non d ame     -35.916   6.682  31.126  0.00  0.00    -0.033 C 
ATOM     34  H12 non d ame     -35.841   7.489  31.854  0.00  0.00     0.042 H 
BRANCH  33  35
ATOM     35  C12 non d ame     -37.420   6.275  31.031  0.00  0.00    -0.071 C 
ATOM     36  H13 non d ame     -37.755   5.893  31.995  0.00  0.00     0.028 H 
ATOM     37  H14 non d ame     -38.016   7.145  30.758  0.00  0.00     0.028 H 
ATOM     38  H15 non d ame     -37.539   5.500  30.273  0.00  0.00     0.028 H 
ENDBRANCH  33  35
BRANCH  33  39
ATOM     39  C13 non d ame     -35.038   5.492  31.630  0.00  0.00    -0.071 C 
ATOM     40  H16 non d ame     -34.719   4.890  30.779  0.00  0.00     0.028 H 
ATOM     41  H17 non d ame     -34.162   5.882  32.150  0.00  0.00     0.028 H 
ATOM     42  H18 non d ame     -35.620   4.876  32.315  0.00  0.00     0.028 H 
ENDBRANCH  33  39
ENDBRANCH   7  33
ENDBRANCH   4   7
ENDBRANCH   1   3
BRANCH   1  43
ATOM     43  C15 non d ame     -34.298  11.697  27.788  0.00  0.00     0.240 C 
ATOM     44  O5  non d ame     -34.930  11.246  26.887  0.00  0.00    -0.271 OA
ATOM     45  N6  non d ame     -33.901  13.133  27.769  0.00  0.00    -0.355 N 
ATOM     46  H46 non d ame     -33.368  13.529  28.530  0.00  0.00     0.162 HD
BRANCH  45  47
ATOM     47  C20 non d ame     -34.289  13.986  26.624  0.00  0.00     0.013 C 
ATOM     48  H30 non d ame     -35.214  13.588  26.208  0.00  0.00     0.072 H 
BRANCH  47  49
ATOM     49  C21 non d ame     -33.196  13.950  25.580  0.00  0.00    -0.038 C 
ATOM     50  H31 non d ame     -33.542  13.257  24.814  0.00  0.00     0.036 H 
ATOM     51  H32 non d ame     -32.999  14.991  25.325  0.00  0.00     0.036 H 
BRANCH  49  52
ATOM     52  C22 non d ame     -31.869  13.374  26.122  0.00  0.00     0.018 C 
ATOM     53  H33 non d ame     -31.123  14.152  25.962  0.00  0.00     0.048 H 
ATOM     54  H34 non d ame     -32.088  13.029  27.133  0.00  0.00     0.048 H 
BRANCH  52  55
ATOM     55  C23 non d ame     -31.363  12.128  25.344  0.00  0.00     0.259 C 
ATOM     56  O7  non d ame     -31.073  11.132  25.923  0.00  0.00    -0.265 OA
BRANCH  55  57
ATOM     57  O8  non d ame     -31.237  12.195  23.928  0.00  0.00    -0.317 OA
BRANCH  57  58
ATOM     58  C29 non d ame     -29.992  12.738  23.480  0.00  0.00     0.052 C 
ATOM     59  H47 non d ame     -29.461  13.043  24.382  0.00  0.00     0.082 H 
ATOM     60  H48 non d ame     -29.560  11.983  22.823  0.00  0.00     0.082 H 
BRANCH  58  61
ATOM     61  C35 non d ame     -30.298  14.005  22.637  0.00  0.00    -0.034 A 
ATOM     62  C30 non d ame     -30.026  14.016  21.273  0.00  0.00    -0.075 A 
ATOM     63  C31 non d ame     -30.300  15.154  20.515  0.00  0.00    -0.082 A 
ATOM     64  H49 non d ame     -29.597  13.134  20.797  0.00  0.00     0.084 H 
ATOM     65  C32 non d ame     -30.847  16.285  21.128  0.00  0.00    -0.083 A 
ATOM     66  H50 non d ame     -30.088  15.159  19.446  0.00  0.00     0.083 H 
ATOM     67  C33 non d ame     -31.114  16.270  22.491  0.00  0.00    -0.082 A 
ATOM     68  H51 non d ame     -31.065  17.178  20.544  0.00  0.00     0.083 H 
ATOM     69  C34 non d ame     -30.843  15.134  23.251  0.00  0.00    -0.075 A 
ATOM     70  H52 non d ame     -31.538  17.155  22.966  0.00  0.00     0.083 H 
ATOM     71  H53 non d ame     -31.056  15.130  24.320  0.00  0.00     0.084 H 
ENDBRANCH  58  61
ENDBRANCH  57  58
ENDBRANCH  55  57
ENDBRANCH  52  55
ENDBRANCH  49  52
ENDBRANCH  47  49
BRANCH  47  72
ATOM     72  C24 non d ame     -34.496  15.423  27.097  0.00  0.00    -0.039 C 
ATOM     73  H35 non d ame     -35.575  15.549  27.181  0.00  0.00     0.036 H 
ATOM     74  H36 non d ame     -33.864  15.532  27.979  0.00  0.00     0.036 H 
BRANCH  72  75
ATOM     75  C25 non d ame     -33.980  16.484  26.013  0.00  0.00    -0.001 C 
ATOM     76  C26 non d ame     -32.707  17.330  26.620  0.00  0.00    -0.035 C 
ATOM     77  C27 non d ame     -32.950  18.654  26.466  0.00  0.00     0.085 C 
ATOM     78  H38 non d ame     -32.655  17.204  27.701  0.00  0.00     0.036 H 
ATOM     79  H39 non d ame     -31.820  17.161  26.008  0.00  0.00     0.036 H 
ATOM     80  N5  non d ame     -34.410  18.796  26.110  0.00  0.00    -0.049 N 
ATOM     81  H40 non d ame     -32.778  19.097  27.447  0.00  0.00     0.075 H 
ATOM     82  H41 non d ame     -32.345  18.964  25.614  0.00  0.00     0.075 H 
ATOM     83  C28 non d ame     -34.912  17.319  25.696  0.00  0.00     0.193 C 
ATOM     84  H42 non d ame     -34.885  19.072  26.957  0.00  0.00     0.280 HD
ATOM     85  H43 non d ame     -34.448  19.390  25.294  0.00  0.00     0.280 HD
ATOM     86  H44 non d ame     -35.062  17.059  24.648  0.00  0.00     0.129 H 
ATOM     87  H37 non d ame     -33.854  16.038  25.027  0.00  0.00     0.046 H 
BRANCH  83  88
ATOM     88  O6  non d ame     -36.149  17.019  26.345  0.00  0.00    -0.369 OA
ATOM     89  H45 non d ame     -36.799  16.756  25.689  0.00  0.00     0.212 HD
ENDBRANCH  83  88
ENDBRANCH  72  75
ENDBRANCH  47  72
ENDBRANCH  45  47
ENDBRANCH   1  43
BRANCH   1  90
ATOM     90  C16 non d ame     -32.388  10.627  29.024  0.00  0.00    -0.035 C 
ATOM     91  H21 non d ame     -32.215   9.584  29.285  0.00  0.00     0.037 H 
ATOM     92  H22 non d ame     -32.032  11.016  28.070  0.00  0.00     0.037 H 
BRANCH  90  93
ATOM     93  C17 non d ame     -31.696  11.481  30.134  0.00  0.00    -0.059 C 
ATOM     94  H23 non d ame     -31.125  10.801  30.766  0.00  0.00     0.038 H 
BRANCH  93  95
ATOM     95  C18 non d ame     -30.701  12.527  29.539  0.00  0.00    -0.073 C 
ATOM     96  H24 non d ame     -31.150  13.002  28.667  0.00  0.00     0.028 H 
ATOM     97  H25 non d ame     -30.478  13.285  30.289  0.00  0.00     0.028 H 
ATOM     98  H26 non d ame     -29.779  12.025  29.245  0.00  0.00     0.028 H 
ENDBRANCH  93  95
BRANCH  93  99
ATOM     99  C19 non d ame     -32.736  12.164  31.026  0.00  0.00    -0.073 C 
ATOM    100  H27 non d ame     -32.469  13.213  31.159  0.00  0.00     0.028 H 
ATOM    101  H28 non d ame     -33.718  12.097  30.556  0.00  0.00     0.028 H 
ATOM    102  H29 non d ame     -32.764  11.670  31.996  0.00  0.00     0.028 H 
ENDBRANCH  93  99
ENDBRANCH  90  93
ENDBRANCH   1  90
TORSDOF 26
ENDMDL
MODEL 19
REMARK VINA RESULT:      -6.0      3.703      9.045
REMARK  26 active torsions:
REMARK  status: ('A' for Active; 'I' for Inactive)
REMARK    1  A    between atoms: C2_2  and  C3_3 
REMARK    2  A    between atoms: C4_6  and  C5_7 
REMARK       I    between atoms: C5_7  and  N2_9 
REMARK    3  A    between atoms: N2_9  and  C6_10 
REMARK    4  A    between atoms: C6_10  and  C7_11 
REMARK    5  A    between atoms: C6_10  and  C8_13 
REMARK       I    between atoms: C7_11  and  N3_14 
REMARK    6  A    between atoms: N3_14  and  C9_15 
REMARK    7  A    between atoms: C9_15  and  C10_16 
REMARK    8  A    between atoms: C9_15  and  C11_18 
REMARK       I    between atoms: C10_16  and  N4_21 
REMARK    9  A    between atoms: C11_18  and  C12_19 
REMARK   10  A    between atoms: C11_18  and  C13_20 
REMARK   11  A    between atoms: N4_21  and  C14_22 
REMARK   12  A    between atoms: C14_22  and  C15_23 
REMARK   13  A    between atoms: C14_22  and  C16_25 
REMARK       I    between atoms: C15_23  and  N6_40 
REMARK   14  A    between atoms: C16_25  and  C17_26 
REMARK   15  A    between atoms: C17_26  and  C18_27 
REMARK   16  A    between atoms: C17_26  and  C19_28 
REMARK   17  A    between atoms: C20_29  and  C21_30 
REMARK   18  A    between atoms: C20_29  and  C24_33 
REMARK   19  A    between atoms: C20_29  and  N6_40 
REMARK   20  A    between atoms: C21_30  and  C22_31 
REMARK   21  A    between atoms: C22_31  and  C23_32 
REMARK   22  A    between atoms: C23_32  and  O8_43 
REMARK   23  A    between atoms: C24_33  and  C25_34 
REMARK   24  A    between atoms: C28_38  and  O6_39 
REMARK   25  A    between atoms: C29_42  and  O8_43 
REMARK   26  A    between atoms: C29_42  and  C35_49 
ROOT
ATOM      1  C14 non d ame     -34.732   9.012  30.864  0.00  0.00     0.089 C 
ATOM      2  H20 non d ame     -33.896   9.357  31.472  0.00  0.00     0.087 H 
ENDROOT
BRANCH   1   3
ATOM      3  N4  non d ame     -34.587   9.604  29.542  0.00  0.00    -0.346 N 
ATOM      4  C10 non d ame     -33.384  10.452  29.216  0.00  0.00     0.241 C 
ATOM      5  O4  non d ame     -32.546  10.646  30.034  0.00  0.00    -0.271 OA
ATOM      6  H19 non d ame     -35.312   9.429  28.861  0.00  0.00     0.163 HD
BRANCH   4   7
ATOM      7  C9  non d ame     -33.247  11.053  27.841  0.00  0.00     0.092 C 
ATOM      8  H11 non d ame     -34.200  11.494  27.546  0.00  0.00     0.088 H 
BRANCH   7   9
ATOM      9  N3  non d ame     -32.261  12.137  27.877  0.00  0.00    -0.346 N 
ATOM     10  C7  non d ame     -32.650  13.477  27.511  0.00  0.00     0.240 C 
ATOM     11  O3  non d ame     -33.751  13.700  27.184  0.00  0.00    -0.271 OA
ATOM     12  H10 non d ame     -31.307  11.960  28.156  0.00  0.00     0.163 HD
BRANCH  10  13
ATOM     13  C6  non d ame     -31.595  14.626  27.549  0.00  0.00     0.086 C 
ATOM     14  H6  non d ame     -31.000  14.682  26.637  0.00  0.00     0.086 H 
BRANCH  13  15
ATOM     15  N2  non d ame     -32.287  15.898  27.671  0.00  0.00    -0.343 N 
ATOM     16  C5  non d ame     -32.189  16.880  26.589  0.00  0.00     0.273 C 
ATOM     17  O2  non d ame     -31.548  16.638  25.626  0.00  0.00    -0.266 OA
ATOM     18  H5  non d ame     -32.831  16.097  28.499  0.00  0.00     0.163 HD
BRANCH  16  19
ATOM     19  C4  non d ame     -32.917  18.228  26.704  0.00  0.00     0.154 A 
ATOM     20  C1  non d ame     -34.331  18.450  26.710  0.00  0.00    -0.017 A 
ATOM     21  C2  non d ame     -34.479  19.849  26.836  0.00  0.00     0.077 A 
ATOM     22  H1  non d ame     -35.127  17.709  26.633  0.00  0.00     0.091 H 
ATOM     23  O1  non d ame     -33.285  20.361  26.898  0.00  0.00    -0.218 OA
ATOM     24  N1  non d ame     -32.357  19.435  26.822  0.00  0.00    -0.123 NA
BRANCH  21  25
ATOM     25  C3  non d ame     -35.794  20.615  26.892  0.00  0.00    -0.029 C 
ATOM     26  H2  non d ame     -35.601  21.680  26.768  0.00  0.00     0.036 H 
ATOM     27  H3  non d ame     -36.450  20.270  26.093  0.00  0.00     0.036 H 
ATOM     28  H4  non d ame     -36.275  20.443  27.855  0.00  0.00     0.036 H 
ENDBRANCH  21  25
ENDBRANCH  16  19
ENDBRANCH  13  15
BRANCH  13  29
ATOM     29  C8  non d ame     -30.671  14.426  28.723  0.00  0.00    -0.049 C 
ATOM     30  H7  non d ame     -30.666  15.325  29.339  0.00  0.00     0.030 H 
ATOM     31  H8  non d ame     -31.016  13.580  29.317  0.00  0.00     0.030 H 
ATOM     32  H9  non d ame     -29.661  14.228  28.361  0.00  0.00     0.030 H 
ENDBRANCH  13  29
ENDBRANCH  10  13
ENDBRANCH   7   9
BRANCH   7  33
ATOM     33  C11 non d ame     -32.774   9.958  26.841  0.00  0.00    -0.033 C 
ATOM     34  H12 non d ame     -32.374   9.129  27.426  0.00  0.00     0.042 H 
BRANCH  33  35
ATOM     35  C12 non d ame     -33.965   9.405  25.998  0.00  0.00    -0.071 C 
ATOM     36  H13 non d ame     -33.701   8.428  25.594  0.00  0.00     0.028 H 
ATOM     37  H14 non d ame     -34.846   9.310  26.633  0.00  0.00     0.028 H 
ATOM     38  H15 non d ame     -34.179  10.091  25.179  0.00  0.00     0.028 H 
ENDBRANCH  33  35
BRANCH  33  39
ATOM     39  C13 non d ame     -31.631  10.496  25.922  0.00  0.00    -0.071 C 
ATOM     40  H16 non d ame     -31.102   9.656  25.470  0.00  0.00     0.028 H 
ATOM     41  H17 non d ame     -32.059  11.121  25.138  0.00  0.00     0.028 H 
ATOM     42  H18 non d ame     -30.935  11.088  26.516  0.00  0.00     0.028 H 
ENDBRANCH  33  39
ENDBRANCH   7  33
ENDBRANCH   4   7
ENDBRANCH   1   3
BRANCH   1  43
ATOM     43  C15 non d ame     -34.750   7.464  30.713  0.00  0.00     0.240 C 
ATOM     44  O5  non d ame     -34.891   6.778  31.674  0.00  0.00    -0.271 OA
ATOM     45  N6  non d ame     -34.600   6.836  29.369  0.00  0.00    -0.355 N 
ATOM     46  H46 non d ame     -34.484   7.408  28.546  0.00  0.00     0.162 HD
BRANCH  45  47
ATOM     47  C20 non d ame     -34.620   5.362  29.243  0.00  0.00     0.013 C 
ATOM     48  H30 non d ame     -34.652   4.940  30.247  0.00  0.00     0.072 H 
BRANCH  47  49
ATOM     49  C21 non d ame     -33.368   4.905  28.529  0.00  0.00    -0.038 C 
ATOM     50  H31 non d ame     -32.658   4.647  29.316  0.00  0.00     0.036 H 
ATOM     51  H32 non d ame     -33.695   4.145  27.819  0.00  0.00     0.036 H 
BRANCH  49  52
ATOM     52  C22 non d ame     -32.709   6.026  27.697  0.00  0.00     0.018 C 
ATOM     53  H33 non d ame     -33.299   6.922  27.888  0.00  0.00     0.048 H 
ATOM     54  H34 non d ame     -31.650   6.005  27.959  0.00  0.00     0.048 H 
BRANCH  52  55
ATOM     55  C23 non d ame     -32.775   5.789  26.163  0.00  0.00     0.259 C 
ATOM     56  O7  non d ame     -33.737   5.295  25.670  0.00  0.00    -0.265 OA
BRANCH  55  57
ATOM     57  O8  non d ame     -31.666   6.157  25.352  0.00  0.00    -0.317 OA
BRANCH  57  58
ATOM     58  C29 non d ame     -31.947   6.164  23.949  0.00  0.00     0.052 C 
ATOM     59  H47 non d ame     -31.651   5.180  23.585  0.00  0.00     0.082 H 
ATOM     60  H48 non d ame     -32.982   6.490  23.857  0.00  0.00     0.082 H 
BRANCH  58  61
ATOM     61  C35 non d ame     -31.035   7.229  23.284  0.00  0.00    -0.034 A 
ATOM     62  C30 non d ame     -29.712   6.923  22.983  0.00  0.00    -0.075 A 
ATOM     63  C31 non d ame     -28.893   7.880  22.385  0.00  0.00    -0.082 A 
ATOM     64  H49 non d ame     -29.316   5.934  23.215  0.00  0.00     0.084 H 
ATOM     65  C32 non d ame     -29.401   9.148  22.090  0.00  0.00    -0.083 A 
ATOM     66  H50 non d ame     -27.856   7.636  22.149  0.00  0.00     0.083 H 
ATOM     67  C33 non d ame     -30.721   9.449  22.395  0.00  0.00    -0.082 A 
ATOM     68  H51 non d ame     -28.768   9.901  21.622  0.00  0.00     0.083 H 
ATOM     69  C34 non d ame     -31.544   8.495  22.991  0.00  0.00    -0.075 A 
ATOM     70  H52 non d ame     -31.114  10.440  22.166  0.00  0.00     0.083 H 
ATOM     71  H53 non d ame     -32.580   8.739  23.227  0.00  0.00     0.084 H 
ENDBRANCH  58  61
ENDBRANCH  57  58
ENDBRANCH  55  57
ENDBRANCH  52  55
ENDBRANCH  49  52
ENDBRANCH  47  49
BRANCH  47  72
ATOM     72  C24 non d ame     -35.848   4.929  28.445  0.00  0.00    -0.039 C 
ATOM     73  H35 non d ame     -35.537   4.945  27.401  0.00  0.00     0.036 H 
ATOM     74  H36 non d ame     -36.176   3.995  28.901  0.00  0.00     0.036 H 
BRANCH  72  75
ATOM     75  C25 non d ame     -37.052   5.976  28.596  0.00  0.00    -0.001 C 
ATOM     76  C26 non d ame     -38.331   5.256  29.337  0.00  0.00    -0.035 C 
ATOM     77  C27 non d ame     -39.442   5.466  28.591  0.00  0.00     0.085 C 
ATOM     78  H38 non d ame     -38.213   4.173  29.318  0.00  0.00     0.036 H 
ATOM     79  H39 non d ame     -38.554   5.763  30.275  0.00  0.00     0.036 H 
ATOM     80  N5  non d ame     -38.982   5.981  27.249  0.00  0.00    -0.049 N 
ATOM     81  H40 non d ame     -39.894   4.483  28.460  0.00  0.00     0.075 H 
ATOM     82  H41 non d ame     -39.992   6.254  29.104  0.00  0.00     0.075 H 
ATOM     83  C28 non d ame     -37.439   6.412  27.444  0.00  0.00     0.193 C 
ATOM     84  H42 non d ame     -39.019   5.196  26.613  0.00  0.00     0.280 HD
ATOM     85  H43 non d ame     -39.527   6.810  27.059  0.00  0.00     0.280 HD
ATOM     86  H44 non d ame     -37.164   7.464  27.527  0.00  0.00     0.129 H 
ATOM     87  H37 non d ame     -36.719   6.932  28.999  0.00  0.00     0.046 H 
BRANCH  83  88
ATOM     88  O6  non d ame     -36.644   5.893  26.376  0.00  0.00    -0.369 OA
ATOM     89  H45 non d ame     -36.382   4.992  26.581  0.00  0.00     0.212 HD
ENDBRANCH  83  88
ENDBRANCH  72  75
ENDBRANCH  47  72
ENDBRANCH  45  47
ENDBRANCH   1  43
BRANCH   1  90
ATOM     90  C16 non d ame     -36.042   9.481  31.476  0.00  0.00    -0.035 C 
ATOM     91  H21 non d ame     -36.144   8.919  32.404  0.00  0.00     0.037 H 
ATOM     92  H22 non d ame     -35.976  10.569  31.503  0.00  0.00     0.037 H 
BRANCH  90  93
ATOM     93  C17 non d ame     -37.297   9.136  30.613  0.00  0.00    -0.059 C 
ATOM     94  H23 non d ame     -36.957   8.563  29.750  0.00  0.00     0.038 H 
BRANCH  93  95
ATOM     95  C18 non d ame     -38.326   8.257  31.393  0.00  0.00    -0.073 C 
ATOM     96  H24 non d ame     -38.368   7.264  30.948  0.00  0.00     0.028 H 
ATOM     97  H25 non d ame     -38.018   8.175  32.435  0.00  0.00     0.028 H 
ATOM     98  H26 non d ame     -39.312   8.720  31.341  0.00  0.00     0.028 H 
ENDBRANCH  93  95
BRANCH  93  99
ATOM     99  C19 non d ame     -37.960  10.409  30.080  0.00  0.00    -0.073 C 
ATOM    100  H27 non d ame     -37.212  11.196  29.984  0.00  0.00     0.028 H 
ATOM    101  H28 non d ame     -38.403  10.207  29.104  0.00  0.00     0.028 H 
ATOM    102  H29 non d ame     -38.739  10.729  30.772  0.00  0.00     0.028 H 
ENDBRANCH  93  99
ENDBRANCH  90  93
ENDBRANCH   1  90
TORSDOF 26
ENDMDL
MODEL 20
REMARK VINA RESULT:      -6.0      2.292      7.716
REMARK  26 active torsions:
REMARK  status: ('A' for Active; 'I' for Inactive)
REMARK    1  A    between atoms: C2_2  and  C3_3 
REMARK    2  A    between atoms: C4_6  and  C5_7 
REMARK       I    between atoms: C5_7  and  N2_9 
REMARK    3  A    between atoms: N2_9  and  C6_10 
REMARK    4  A    between atoms: C6_10  and  C7_11 
REMARK    5  A    between atoms: C6_10  and  C8_13 
REMARK       I    between atoms: C7_11  and  N3_14 
REMARK    6  A    between atoms: N3_14  and  C9_15 
REMARK    7  A    between atoms: C9_15  and  C10_16 
REMARK    8  A    between atoms: C9_15  and  C11_18 
REMARK       I    between atoms: C10_16  and  N4_21 
REMARK    9  A    between atoms: C11_18  and  C12_19 
REMARK   10  A    between atoms: C11_18  and  C13_20 
REMARK   11  A    between atoms: N4_21  and  C14_22 
REMARK   12  A    between atoms: C14_22  and  C15_23 
REMARK   13  A    between atoms: C14_22  and  C16_25 
REMARK       I    between atoms: C15_23  and  N6_40 
REMARK   14  A    between atoms: C16_25  and  C17_26 
REMARK   15  A    between atoms: C17_26  and  C18_27 
REMARK   16  A    between atoms: C17_26  and  C19_28 
REMARK   17  A    between atoms: C20_29  and  C21_30 
REMARK   18  A    between atoms: C20_29  and  C24_33 
REMARK   19  A    between atoms: C20_29  and  N6_40 
REMARK   20  A    between atoms: C21_30  and  C22_31 
REMARK   21  A    between atoms: C22_31  and  C23_32 
REMARK   22  A    between atoms: C23_32  and  O8_43 
REMARK   23  A    between atoms: C24_33  and  C25_34 
REMARK   24  A    between atoms: C28_38  and  O6_39 
REMARK   25  A    between atoms: C29_42  and  O8_43 
REMARK   26  A    between atoms: C29_42  and  C35_49 
ROOT
ATOM      1  C14 non d ame     -36.105  13.452  25.965  0.00  0.00     0.089 C 
ATOM      2  H20 non d ame     -36.830  13.259  26.756  0.00  0.00     0.087 H 
ENDROOT
BRANCH   1   3
ATOM      3  N4  non d ame     -35.913  14.892  25.888  0.00  0.00    -0.346 N 
ATOM      4  C10 non d ame     -36.929  15.830  26.490  0.00  0.00     0.241 C 
ATOM      5  O4  non d ame     -37.896  15.401  27.028  0.00  0.00    -0.271 OA
ATOM      6  H19 non d ame     -35.085  15.237  25.424  0.00  0.00     0.163 HD
BRANCH   4   7
ATOM      7  C9  non d ame     -36.712  17.318  26.406  0.00  0.00     0.092 C 
ATOM      8  H11 non d ame     -36.974  17.772  27.362  0.00  0.00     0.088 H 
BRANCH   7   9
ATOM      9  N3  non d ame     -35.291  17.592  26.172  0.00  0.00    -0.346 N 
ATOM     10  C7  non d ame     -34.410  17.836  27.288  0.00  0.00     0.240 C 
ATOM     11  O3  non d ame     -34.829  17.817  28.381  0.00  0.00    -0.271 OA
ATOM     12  H10 non d ame     -34.916  17.613  25.234  0.00  0.00     0.163 HD
BRANCH  10  13
ATOM     13  C6  non d ame     -32.900  18.130  27.032  0.00  0.00     0.086 C 
ATOM     14  H6  non d ame     -32.251  17.700  27.795  0.00  0.00     0.086 H 
BRANCH  13  15
ATOM     15  N2  non d ame     -32.510  17.528  25.767  0.00  0.00    -0.343 N 
ATOM     16  C5  non d ame     -31.808  16.242  25.767  0.00  0.00     0.273 C 
ATOM     17  O2  non d ame     -31.559  15.702  26.788  0.00  0.00    -0.266 OA
ATOM     18  H5  non d ame     -32.724  17.998  24.899  0.00  0.00     0.163 HD
BRANCH  16  19
ATOM     19  C4  non d ame     -31.392  15.593  24.438  0.00  0.00     0.154 A 
ATOM     20  C1  non d ame     -31.353  16.212  23.148  0.00  0.00    -0.017 A 
ATOM     21  C2  non d ame     -30.906  15.198  22.271  0.00  0.00     0.077 A 
ATOM     22  H1  non d ame     -31.609  17.240  22.888  0.00  0.00     0.091 H 
ATOM     23  O1  non d ame     -30.713  14.128  22.984  0.00  0.00    -0.218 OA
ATOM     24  N1  non d ame     -30.990  14.333  24.251  0.00  0.00    -0.123 NA
BRANCH  21  25
ATOM     25  C3  non d ame     -30.690  15.335  20.770  0.00  0.00    -0.029 C 
ATOM     26  H2  non d ame     -30.398  16.359  20.536  0.00  0.00     0.036 H 
ATOM     27  H3  non d ame     -29.902  14.652  20.453  0.00  0.00     0.036 H 
ATOM     28  H4  non d ame     -31.614  15.092  20.246  0.00  0.00     0.036 H 
ENDBRANCH  21  25
ENDBRANCH  16  19
ENDBRANCH  13  15
BRANCH  13  29
ATOM     29  C8  non d ame     -32.676  19.620  26.985  0.00  0.00    -0.049 C 
ATOM     30  H7  non d ame     -31.699  19.827  26.548  0.00  0.00     0.030 H 
ATOM     31  H8  non d ame     -33.451  20.085  26.376  0.00  0.00     0.030 H 
ATOM     32  H9  non d ame     -32.715  20.026  27.996  0.00  0.00     0.030 H 
ENDBRANCH  13  29
ENDBRANCH  10  13
ENDBRANCH   7   9
BRANCH   7  33
ATOM     33  C11 non d ame     -37.550  17.899  25.231  0.00  0.00    -0.033 C 
ATOM     34  H12 non d ame     -38.593  17.914  25.547  0.00  0.00     0.042 H 
BRANCH  33  35
ATOM     35  C12 non d ame     -37.137  19.369  24.910  0.00  0.00    -0.071 C 
ATOM     36  H13 non d ame     -36.176  19.373  24.395  0.00  0.00     0.028 H 
ATOM     37  H14 non d ame     -37.892  19.829  24.274  0.00  0.00     0.028 H 
ATOM     38  H15 non d ame     -37.051  19.933  25.839  0.00  0.00     0.028 H 
ENDBRANCH  33  35
BRANCH  33  39
ATOM     39  C13 non d ame     -37.442  16.991  23.964  0.00  0.00    -0.071 C 
ATOM     40  H16 non d ame     -37.007  16.031  24.241  0.00  0.00     0.028 H 
ATOM     41  H17 non d ame     -38.436  16.833  23.544  0.00  0.00     0.028 H 
ATOM     42  H18 non d ame     -36.808  17.477  23.222  0.00  0.00     0.028 H 
ENDBRANCH  33  39
ENDBRANCH   7  33
ENDBRANCH   4   7
ENDBRANCH   1   3
BRANCH   1  43
ATOM     43  C15 non d ame     -34.730  12.783  26.253  0.00  0.00     0.240 C 
ATOM     44  O5  non d ame     -33.731  13.420  26.155  0.00  0.00    -0.271 OA
ATOM     45  N6  non d ame     -34.659  11.351  26.660  0.00  0.00    -0.355 N 
ATOM     46  H46 non d ame     -35.501  10.801  26.751  0.00  0.00     0.162 HD
BRANCH  45  47
ATOM     47  C20 non d ame     -33.345  10.731  26.932  0.00  0.00     0.013 C 
ATOM     48  H30 non d ame     -32.575  11.476  26.734  0.00  0.00     0.072 H 
BRANCH  47  49
ATOM     49  C21 non d ame     -33.156   9.539  26.020  0.00  0.00    -0.038 C 
ATOM     50  H31 non d ame     -32.145   9.180  26.210  0.00  0.00     0.036 H 
ATOM     51  H32 non d ame     -34.011   8.888  26.207  0.00  0.00     0.036 H 
BRANCH  49  52
ATOM     52  C22 non d ame     -33.212   9.915  24.524  0.00  0.00     0.018 C 
ATOM     53  H33 non d ame     -33.734   9.094  24.033  0.00  0.00     0.048 H 
ATOM     54  H34 non d ame     -33.626  10.923  24.488  0.00  0.00     0.048 H 
BRANCH  52  55
ATOM     55  C23 non d ame     -31.816  10.000  23.847  0.00  0.00     0.259 C 
ATOM     56  O7  non d ame     -30.934  10.611  24.358  0.00  0.00    -0.265 OA
BRANCH  55  57
ATOM     57  O8  non d ame     -31.606   9.350  22.599  0.00  0.00    -0.317 OA
BRANCH  57  58
ATOM     58  C29 non d ame     -30.775   8.188  22.681  0.00  0.00     0.052 C 
ATOM     59  H47 non d ame     -30.477   7.966  21.656  0.00  0.00     0.082 H 
ATOM     60  H48 non d ame     -30.018   8.419  23.430  0.00  0.00     0.082 H 
BRANCH  58  61
ATOM     61  C35 non d ame     -31.644   7.014  23.206  0.00  0.00    -0.034 A 
ATOM     62  C30 non d ame     -32.619   6.450  22.390  0.00  0.00    -0.075 A 
ATOM     63  C31 non d ame     -33.399   5.396  22.861  0.00  0.00    -0.082 A 
ATOM     64  H49 non d ame     -32.772   6.834  21.381  0.00  0.00     0.084 H 
ATOM     65  C32 non d ame     -33.203   4.907  24.156  0.00  0.00    -0.083 A 
ATOM     66  H50 non d ame     -34.162   4.954  22.219  0.00  0.00     0.083 H 
ATOM     67  C33 non d ame     -32.231   5.475  24.968  0.00  0.00    -0.082 A 
ATOM     68  H51 non d ame     -33.809   4.082  24.532  0.00  0.00     0.083 H 
ATOM     69  C34 non d ame     -31.447   6.528  24.500  0.00  0.00    -0.075 A 
ATOM     70  H52 non d ame     -32.082   5.093  25.978  0.00  0.00     0.083 H 
ATOM     71  H53 non d ame     -30.685   6.968  25.143  0.00  0.00     0.084 H 
ENDBRANCH  58  61
ENDBRANCH  57  58
ENDBRANCH  55  57
ENDBRANCH  52  55
ENDBRANCH  49  52
ENDBRANCH  47  49
BRANCH  47  72
ATOM     72  C24 non d ame     -33.280  10.274  28.388  0.00  0.00    -0.039 C 
ATOM     73  H35 non d ame     -34.290   9.943  28.633  0.00  0.00     0.036 H 
ATOM     74  H36 non d ame     -32.450   9.570  28.435  0.00  0.00     0.036 H 
BRANCH  72  75
ATOM     75  C25 non d ame     -32.928  11.486  29.374  0.00  0.00    -0.001 C 
ATOM     76  C26 non d ame     -31.543  12.224  28.882  0.00  0.00    -0.035 C 
ATOM     77  C27 non d ame     -30.697  12.313  29.936  0.00  0.00     0.085 C 
ATOM     78  H38 non d ame     -31.008  11.585  28.179  0.00  0.00     0.036 H 
ATOM     79  H39 non d ame     -31.743  13.265  28.628  0.00  0.00     0.036 H 
ATOM     80  N5  non d ame     -31.245  11.413  31.018  0.00  0.00    -0.049 N 
ATOM     81  H40 non d ame     -29.749  11.908  29.583  0.00  0.00     0.075 H 
ATOM     82  H41 non d ame     -30.757  13.348  30.271  0.00  0.00     0.075 H 
ATOM     83  C28 non d ame     -32.762  11.071  30.585  0.00  0.00     0.193 C 
ATOM     84  H42 non d ame     -30.701  10.563  30.985  0.00  0.00     0.280 HD
ATOM     85  H43 non d ame     -31.268  11.965  31.864  0.00  0.00     0.280 HD
ATOM     86  H44 non d ame     -33.602  11.559  31.079  0.00  0.00     0.129 H 
ATOM     87  H37 non d ame     -33.789  12.126  29.566  0.00  0.00     0.046 H 
BRANCH  83  88
ATOM     88  O6  non d ame     -33.006   9.669  30.712  0.00  0.00    -0.369 OA
ATOM     89  H45 non d ame     -33.306   9.475  31.604  0.00  0.00     0.212 HD
ENDBRANCH  83  88
ENDBRANCH  72  75
ENDBRANCH  47  72
ENDBRANCH  45  47
ENDBRANCH   1  43
BRANCH   1  90
ATOM     90  C16 non d ame     -36.647  12.952  24.635  0.00  0.00    -0.035 C 
ATOM     91  H21 non d ame     -36.276  13.655  23.890  0.00  0.00     0.037 H 
ATOM     92  H22 non d ame     -36.362  11.901  24.584  0.00  0.00     0.037 H 
BRANCH  90  93
ATOM     93  C17 non d ame     -38.206  12.992  24.540  0.00  0.00    -0.059 C 
ATOM     94  H23 non d ame     -38.556  13.799  25.183  0.00  0.00     0.038 H 
BRANCH  93  95
ATOM     95  C18 non d ame     -38.700  13.290  23.088  0.00  0.00    -0.073 C 
ATOM     96  H24 non d ame     -38.132  12.688  22.380  0.00  0.00     0.028 H 
ATOM     97  H25 non d ame     -39.758  13.043  23.007  0.00  0.00     0.028 H 
ATOM     98  H26 non d ame     -38.555  14.347  22.865  0.00  0.00     0.028 H 
ENDBRANCH  93  95
BRANCH  93  99
ATOM     99  C19 non d ame     -38.819  11.692  25.068  0.00  0.00    -0.073 C 
ATOM    100  H27 non d ame     -39.906  11.771  25.055  0.00  0.00     0.028 H 
ATOM    101  H28 non d ame     -38.508  10.860  24.436  0.00  0.00     0.028 H 
ATOM    102  H29 non d ame     -38.479  11.518  26.089  0.00  0.00     0.028 H 
ENDBRANCH  93  99
ENDBRANCH  90  93
ENDBRANCH   1  90
TORSDOF 26
ENDMDL
