MODEL 1
REMARK VINA RESULT:      -6.7      0.000      0.000
REMARK  26 active torsions:
REMARK  status: ('A' for Active; 'I' for Inactive)
REMARK    1  A    between atoms: C2_2  and  C3_3 
REMARK    2  A    between atoms: C4_6  and  C5_7 
REMARK       I    between atoms: C5_7  and  N2_9 
REMARK    3  A    between atoms: N2_9  and  C6_10 
REMARK    4  A    between atoms: C6_10  and  C7_11 
REMARK    5  A    between atoms: C6_10  and  C8_13 
REMARK       I    between atoms: C7_11  and  N3_14 
REMARK    6  A    between atoms: N3_14  and  C9_15 
REMARK    7  A    between atoms: C9_15  and  C10_16 
REMARK    8  A    between atoms: C9_15  and  C11_18 
REMARK       I    between atoms: C10_16  and  N4_21 
REMARK    9  A    between atoms: C11_18  and  C12_19 
REMARK   10  A    between atoms: C11_18  and  C13_20 
REMARK   11  A    between atoms: N4_21  and  C14_22 
REMARK   12  A    between atoms: C14_22  and  C15_23 
REMARK   13  A    between atoms: C14_22  and  C16_25 
REMARK       I    between atoms: C15_23  and  N6_40 
REMARK   14  A    between atoms: C16_25  and  C17_26 
REMARK   15  A    between atoms: C17_26  and  C18_27 
REMARK   16  A    between atoms: C17_26  and  C19_28 
REMARK   17  A    between atoms: C20_29  and  C21_30 
REMARK   18  A    between atoms: C20_29  and  C24_33 
REMARK   19  A    between atoms: C20_29  and  N6_40 
REMARK   20  A    between atoms: C21_30  and  C22_31 
REMARK   21  A    between atoms: C22_31  and  C23_32 
REMARK   22  A    between atoms: C23_32  and  O8_43 
REMARK   23  A    between atoms: C24_33  and  C25_34 
REMARK   24  A    between atoms: C28_38  and  O6_39 
REMARK   25  A    between atoms: C29_42  and  O8_43 
REMARK   26  A    between atoms: C29_42  and  C35_49 
ROOT
ATOM      1  C14 non d ame     -33.427  10.948  25.849  0.00  0.00     0.089 C 
ATOM      2  H20 non d ame     -34.121  11.131  25.028  0.00  0.00     0.087 H 
ENDROOT
BRANCH   1   3
ATOM      3  N4  non d ame     -33.081   9.534  25.823  0.00  0.00    -0.346 N 
ATOM      4  C10 non d ame     -33.075   8.775  24.520  0.00  0.00     0.241 C 
ATOM      5  O4  non d ame     -33.355   9.323  23.505  0.00  0.00    -0.271 OA
ATOM      6  H19 non d ame     -32.848   9.086  26.698  0.00  0.00     0.163 HD
BRANCH   4   7
ATOM      7  C9  non d ame     -32.709   7.314  24.511  0.00  0.00     0.092 C 
ATOM      8  H11 non d ame     -31.649   7.209  24.742  0.00  0.00     0.088 H 
BRANCH   7   9
ATOM      9  N3  non d ame     -33.454   6.617  25.563  0.00  0.00    -0.346 N 
ATOM     10  C7  non d ame     -32.845   6.398  26.852  0.00  0.00     0.240 C 
ATOM     11  O3  non d ame     -31.756   6.775  27.059  0.00  0.00    -0.271 OA
ATOM     12  H10 non d ame     -34.393   6.285  25.399  0.00  0.00     0.163 HD
BRANCH  10  13
ATOM     13  C6  non d ame     -33.641   5.653  27.968  0.00  0.00     0.086 C 
ATOM     14  H6  non d ame     -33.047   4.892  28.474  0.00  0.00     0.086 H 
BRANCH  13  15
ATOM     15  N2  non d ame     -34.041   6.613  28.984  0.00  0.00    -0.343 N 
ATOM     16  C5  non d ame     -34.877   7.755  28.608  0.00  0.00     0.273 C 
ATOM     17  O2  non d ame     -35.221   7.893  27.486  0.00  0.00    -0.266 OA
ATOM     18  H5  non d ame     -33.740   6.488  29.940  0.00  0.00     0.163 HD
BRANCH  16  19
ATOM     19  C4  non d ame     -35.308   8.776  29.672  0.00  0.00     0.154 A 
ATOM     20  C1  non d ame     -34.586   9.158  30.847  0.00  0.00    -0.017 A 
ATOM     21  C2  non d ame     -35.405  10.119  31.481  0.00  0.00     0.077 A 
ATOM     22  H1  non d ame     -33.616   8.794  31.187  0.00  0.00     0.091 H 
ATOM     23  O1  non d ame     -36.469  10.265  30.747  0.00  0.00    -0.218 OA
ATOM     24  N1  non d ame     -36.436   9.492  29.686  0.00  0.00    -0.123 NA
BRANCH  21  25
ATOM     25  C3  non d ame     -35.098  10.848  32.782  0.00  0.00    -0.029 C 
ATOM     26  H2  non d ame     -35.913  10.693  33.487  0.00  0.00     0.036 H 
ATOM     27  H3  non d ame     -34.172  10.459  33.206  0.00  0.00     0.036 H 
ATOM     28  H4  non d ame     -34.986  11.914  32.584  0.00  0.00     0.036 H 
ENDBRANCH  21  25
ENDBRANCH  16  19
ENDBRANCH  13  15
BRANCH  13  29
ATOM     29  C8  non d ame     -34.860   4.999  27.368  0.00  0.00    -0.049 C 
ATOM     30  H7  non d ame     -35.088   5.466  26.410  0.00  0.00     0.030 H 
ATOM     31  H8  non d ame     -34.665   3.937  27.217  0.00  0.00     0.030 H 
ATOM     32  H9  non d ame     -35.708   5.121  28.042  0.00  0.00     0.030 H 
ENDBRANCH  13  29
ENDBRANCH  10  13
ENDBRANCH   7   9
BRANCH   7  33
ATOM     33  C11 non d ame     -33.071   6.698  23.128  0.00  0.00    -0.033 C 
ATOM     34  H12 non d ame     -33.163   7.518  22.416  0.00  0.00     0.042 H 
BRANCH  33  35
ATOM     35  C12 non d ame     -31.941   5.754  22.613  0.00  0.00    -0.071 C 
ATOM     36  H13 non d ame     -31.392   5.346  23.462  0.00  0.00     0.028 H 
ATOM     37  H14 non d ame     -32.381   4.938  22.040  0.00  0.00     0.028 H 
ATOM     38  H15 non d ame     -31.258   6.318  21.977  0.00  0.00     0.028 H 
ENDBRANCH  33  35
BRANCH  33  39
ATOM     39  C13 non d ame     -34.445   5.956  23.189  0.00  0.00    -0.071 C 
ATOM     40  H16 non d ame     -35.029   6.340  24.025  0.00  0.00     0.028 H 
ATOM     41  H17 non d ame     -34.989   6.122  22.258  0.00  0.00     0.028 H 
ATOM     42  H18 non d ame     -34.275   4.887  23.323  0.00  0.00     0.028 H 
ENDBRANCH  33  39
ENDBRANCH   7  33
ENDBRANCH   4   7
ENDBRANCH   1   3
BRANCH   1  43
ATOM     43  C15 non d ame     -32.120  11.780  25.710  0.00  0.00     0.240 C 
ATOM     44  O5  non d ame     -31.105  11.369  26.173  0.00  0.00    -0.271 OA
ATOM     45  N6  non d ame     -32.131  13.085  24.990  0.00  0.00    -0.355 N 
ATOM     46  H46 non d ame     -32.985  13.442  24.587  0.00  0.00     0.162 HD
BRANCH  45  47
ATOM     47  C20 non d ame     -30.880  13.864  24.864  0.00  0.00     0.013 C 
ATOM     48  H30 non d ame     -30.121  13.381  25.481  0.00  0.00     0.072 H 
BRANCH  47  49
ATOM     49  C21 non d ame     -31.119  15.275  25.350  0.00  0.00    -0.038 C 
ATOM     50  H31 non d ame     -30.479  15.399  26.224  0.00  0.00     0.036 H 
ATOM     51  H32 non d ame     -30.980  15.914  24.478  0.00  0.00     0.036 H 
BRANCH  49  52
ATOM     52  C22 non d ame     -32.567  15.505  25.834  0.00  0.00     0.018 C 
ATOM     53  H33 non d ame     -33.088  15.968  24.997  0.00  0.00     0.048 H 
ATOM     54  H34 non d ame     -32.905  14.544  26.223  0.00  0.00     0.048 H 
BRANCH  52  55
ATOM     55  C23 non d ame     -32.681  16.508  27.015  0.00  0.00     0.259 C 
ATOM     56  O7  non d ame     -32.812  17.671  26.809  0.00  0.00    -0.265 OA
BRANCH  55  57
ATOM     57  O8  non d ame     -32.614  16.023  28.351  0.00  0.00    -0.317 OA
BRANCH  57  58
ATOM     58  C29 non d ame     -33.365  14.826  28.573  0.00  0.00     0.052 C 
ATOM     59  H47 non d ame     -34.129  15.088  29.305  0.00  0.00     0.082 H 
ATOM     60  H48 non d ame     -33.657  14.472  27.584  0.00  0.00     0.082 H 
BRANCH  58  61
ATOM     61  C35 non d ame     -32.416  13.776  29.209  0.00  0.00    -0.034 A 
ATOM     62  C30 non d ame     -31.083  13.714  28.816  0.00  0.00    -0.075 A 
ATOM     63  C31 non d ame     -30.229  12.771  29.386  0.00  0.00    -0.082 A 
ATOM     64  H49 non d ame     -30.706  14.403  28.060  0.00  0.00     0.084 H 
ATOM     65  C32 non d ame     -30.714  11.885  30.353  0.00  0.00    -0.083 A 
ATOM     66  H50 non d ame     -29.185  12.725  29.077  0.00  0.00     0.083 H 
ATOM     67  C33 non d ame     -32.046  11.949  30.740  0.00  0.00    -0.082 A 
ATOM     68  H51 non d ame     -30.054  11.145  30.805  0.00  0.00     0.083 H 
ATOM     69  C34 non d ame     -32.902  12.892  30.174  0.00  0.00    -0.075 A 
ATOM     70  H52 non d ame     -32.422  11.256  31.493  0.00  0.00     0.083 H 
ATOM     71  H53 non d ame     -33.946  12.936  30.484  0.00  0.00     0.084 H 
ENDBRANCH  58  61
ENDBRANCH  57  58
ENDBRANCH  55  57
ENDBRANCH  52  55
ENDBRANCH  49  52
ENDBRANCH  47  49
BRANCH  47  72
ATOM     72  C24 non d ame     -30.435  13.896  23.404  0.00  0.00    -0.039 C 
ATOM     73  H35 non d ame     -29.493  13.348  23.375  0.00  0.00     0.036 H 
ATOM     74  H36 non d ame     -31.291  13.537  22.832  0.00  0.00     0.036 H 
BRANCH  72  75
ATOM     75  C25 non d ame     -30.129  15.388  22.910  0.00  0.00    -0.001 C 
ATOM     76  C26 non d ame     -31.271  15.866  21.828  0.00  0.00    -0.035 C 
ATOM     77  C27 non d ame     -30.652  16.341  20.720  0.00  0.00     0.085 C 
ATOM     78  H38 non d ame     -31.823  15.001  21.460  0.00  0.00     0.036 H 
ATOM     79  H39 non d ame     -31.810  16.733  22.210  0.00  0.00     0.036 H 
ATOM     80  N5  non d ame     -29.203  15.929  20.814  0.00  0.00    -0.049 N 
ATOM     81  H40 non d ame     -31.116  15.821  19.882  0.00  0.00     0.075 H 
ATOM     82  H41 non d ame     -30.719  17.426  20.793  0.00  0.00     0.075 H 
ATOM     83  C28 non d ame     -28.971  15.465  22.343  0.00  0.00     0.193 C 
ATOM     84  H42 non d ame     -29.094  15.125  20.214  0.00  0.00     0.280 HD
ATOM     85  H43 non d ame     -28.658  16.763  20.645  0.00  0.00     0.280 HD
ATOM     86  H44 non d ame     -28.449  16.115  23.046  0.00  0.00     0.129 H 
ATOM     87  H37 non d ame     -29.920  16.063  23.740  0.00  0.00     0.046 H 
BRANCH  83  88
ATOM     88  O6  non d ame     -28.270  14.221  22.380  0.00  0.00    -0.369 OA
ATOM     89  H45 non d ame     -28.635  13.668  23.075  0.00  0.00     0.212 HD
ENDBRANCH  83  88
ENDBRANCH  72  75
ENDBRANCH  47  72
ENDBRANCH  45  47
ENDBRANCH   1  43
BRANCH   1  90
ATOM     90  C16 non d ame     -34.099  11.270  27.174  0.00  0.00    -0.035 C 
ATOM     91  H21 non d ame     -34.198  10.314  27.687  0.00  0.00     0.037 H 
ATOM     92  H22 non d ame     -33.499  12.066  27.616  0.00  0.00     0.037 H 
BRANCH  90  93
ATOM     93  C17 non d ame     -35.545  11.839  27.021  0.00  0.00    -0.059 C 
ATOM     94  H23 non d ame     -35.958  11.965  28.021  0.00  0.00     0.038 H 
BRANCH  93  95
ATOM     95  C18 non d ame     -35.557  13.236  26.320  0.00  0.00    -0.073 C 
ATOM     96  H24 non d ame     -35.375  13.109  25.254  0.00  0.00     0.028 H 
ATOM     97  H25 non d ame     -36.528  13.708  26.469  0.00  0.00     0.028 H 
ATOM     98  H26 non d ame     -34.777  13.864  26.750  0.00  0.00     0.028 H 
ENDBRANCH  93  95
BRANCH  93  99
ATOM     99  C19 non d ame     -36.446  10.849  26.278  0.00  0.00    -0.073 C 
ATOM    100  H27 non d ame     -37.310  10.609  26.898  0.00  0.00     0.028 H 
ATOM    101  H28 non d ame     -36.784  11.296  25.343  0.00  0.00     0.028 H 
ATOM    102  H29 non d ame     -35.887   9.939  26.064  0.00  0.00     0.028 H 
ENDBRANCH  93  99
ENDBRANCH  90  93
ENDBRANCH   1  90
TORSDOF 26
ENDMDL
MODEL 2
REMARK VINA RESULT:      -6.5      3.102      9.381
REMARK  26 active torsions:
REMARK  status: ('A' for Active; 'I' for Inactive)
REMARK    1  A    between atoms: C2_2  and  C3_3 
REMARK    2  A    between atoms: C4_6  and  C5_7 
REMARK       I    between atoms: C5_7  and  N2_9 
REMARK    3  A    between atoms: N2_9  and  C6_10 
REMARK    4  A    between atoms: C6_10  and  C7_11 
REMARK    5  A    between atoms: C6_10  and  C8_13 
REMARK       I    between atoms: C7_11  and  N3_14 
REMARK    6  A    between atoms: N3_14  and  C9_15 
REMARK    7  A    between atoms: C9_15  and  C10_16 
REMARK    8  A    between atoms: C9_15  and  C11_18 
REMARK       I    between atoms: C10_16  and  N4_21 
REMARK    9  A    between atoms: C11_18  and  C12_19 
REMARK   10  A    between atoms: C11_18  and  C13_20 
REMARK   11  A    between atoms: N4_21  and  C14_22 
REMARK   12  A    between atoms: C14_22  and  C15_23 
REMARK   13  A    between atoms: C14_22  and  C16_25 
REMARK       I    between atoms: C15_23  and  N6_40 
REMARK   14  A    between atoms: C16_25  and  C17_26 
REMARK   15  A    between atoms: C17_26  and  C18_27 
REMARK   16  A    between atoms: C17_26  and  C19_28 
REMARK   17  A    between atoms: C20_29  and  C21_30 
REMARK   18  A    between atoms: C20_29  and  C24_33 
REMARK   19  A    between atoms: C20_29  and  N6_40 
REMARK   20  A    between atoms: C21_30  and  C22_31 
REMARK   21  A    between atoms: C22_31  and  C23_32 
REMARK   22  A    between atoms: C23_32  and  O8_43 
REMARK   23  A    between atoms: C24_33  and  C25_34 
REMARK   24  A    between atoms: C28_38  and  O6_39 
REMARK   25  A    between atoms: C29_42  and  O8_43 
REMARK   26  A    between atoms: C29_42  and  C35_49 
ROOT
ATOM      1  C14 non d ame     -36.183  13.521  26.134  0.00  0.00     0.089 C 
ATOM      2  H20 non d ame     -36.939  13.371  26.905  0.00  0.00     0.087 H 
ENDROOT
BRANCH   1   3
ATOM      3  N4  non d ame     -35.913  14.949  26.057  0.00  0.00    -0.346 N 
ATOM      4  C10 non d ame     -36.909  15.943  26.598  0.00  0.00     0.241 C 
ATOM      5  O4  non d ame     -37.923  15.570  27.089  0.00  0.00    -0.271 OA
ATOM      6  H19 non d ame     -35.045  15.247  25.633  0.00  0.00     0.163 HD
BRANCH   4   7
ATOM      7  C9  non d ame     -36.611  17.417  26.515  0.00  0.00     0.092 C 
ATOM      8  H11 non d ame     -36.848  17.885  27.471  0.00  0.00     0.088 H 
BRANCH   7   9
ATOM      9  N3  non d ame     -35.178  17.614  26.280  0.00  0.00    -0.346 N 
ATOM     10  C7  non d ame     -34.276  17.750  27.397  0.00  0.00     0.240 C 
ATOM     11  O3  non d ame     -34.687  17.706  28.492  0.00  0.00    -0.271 OA
ATOM     12  H10 non d ame     -34.808  17.655  25.341  0.00  0.00     0.163 HD
BRANCH  10  13
ATOM     13  C6  non d ame     -32.752  17.962  27.140  0.00  0.00     0.086 C 
ATOM     14  H6  non d ame     -32.126  17.470  27.885  0.00  0.00     0.086 H 
BRANCH  13  15
ATOM     15  N2  non d ame     -32.405  17.379  25.855  0.00  0.00    -0.343 N 
ATOM     16  C5  non d ame     -31.777  16.057  25.809  0.00  0.00     0.273 C 
ATOM     17  O2  non d ame     -31.552  15.472  26.811  0.00  0.00    -0.266 OA
ATOM     18  H5  non d ame     -32.598  17.887  25.003  0.00  0.00     0.163 HD
BRANCH  16  19
ATOM     19  C4  non d ame     -31.406  15.427  24.457  0.00  0.00     0.154 A 
ATOM     20  C1  non d ame     -31.338  16.083  23.187  0.00  0.00    -0.017 A 
ATOM     21  C2  non d ame     -30.956  15.073  22.276  0.00  0.00     0.077 A 
ATOM     22  H1  non d ame     -31.534  17.132  22.961  0.00  0.00     0.091 H 
ATOM     23  O1  non d ame     -30.823  13.971  22.953  0.00  0.00    -0.218 OA
ATOM     24  N1  non d ame     -31.080  14.152  24.228  0.00  0.00    -0.123 NA
BRANCH  21  25
ATOM     25  C3  non d ame     -30.740  15.245  20.778  0.00  0.00    -0.029 C 
ATOM     26  H2  non d ame     -30.361  14.315  20.356  0.00  0.00     0.036 H 
ATOM     27  H3  non d ame     -31.687  15.500  20.302  0.00  0.00     0.036 H 
ATOM     28  H4  non d ame     -30.020  16.044  20.604  0.00  0.00     0.036 H 
ENDBRANCH  21  25
ENDBRANCH  16  19
ENDBRANCH  13  15
BRANCH  13  29
ATOM     29  C8  non d ame     -32.440  19.437  27.139  0.00  0.00    -0.049 C 
ATOM     30  H7  non d ame     -31.452  19.600  27.571  0.00  0.00     0.030 H 
ATOM     31  H8  non d ame     -32.454  19.810  26.115  0.00  0.00     0.030 H 
ATOM     32  H9  non d ame     -33.187  19.967  27.730  0.00  0.00     0.030 H 
ENDBRANCH  13  29
ENDBRANCH  10  13
ENDBRANCH   7   9
BRANCH   7  33
ATOM     33  C11 non d ame     -37.418  18.044  25.341  0.00  0.00    -0.033 C 
ATOM     34  H12 non d ame     -38.450  18.156  25.674  0.00  0.00     0.042 H 
BRANCH  33  35
ATOM     35  C12 non d ame     -36.884  19.466  24.980  0.00  0.00    -0.071 C 
ATOM     36  H13 non d ame     -37.724  20.124  24.760  0.00  0.00     0.028 H 
ATOM     37  H14 non d ame     -36.319  19.866  25.821  0.00  0.00     0.028 H 
ATOM     38  H15 non d ame     -36.237  19.399  24.105  0.00  0.00     0.028 H 
ENDBRANCH  33  35
BRANCH  33  39
ATOM     39  C13 non d ame     -37.412  17.103  24.093  0.00  0.00    -0.071 C 
ATOM     40  H16 non d ame     -38.266  17.338  23.458  0.00  0.00     0.028 H 
ATOM     41  H17 non d ame     -36.489  17.250  23.532  0.00  0.00     0.028 H 
ATOM     42  H18 non d ame     -37.476  16.066  24.421  0.00  0.00     0.028 H 
ENDBRANCH  33  39
ENDBRANCH   7  33
ENDBRANCH   4   7
ENDBRANCH   1   3
BRANCH   1  43
ATOM     43  C15 non d ame     -34.854  12.783  26.462  0.00  0.00     0.240 C 
ATOM     44  O5  non d ame     -33.820  13.232  26.086  0.00  0.00    -0.271 OA
ATOM     45  N6  non d ame     -34.869  11.520  27.255  0.00  0.00    -0.355 N 
ATOM     46  H46 non d ame     -35.741  11.132  27.585  0.00  0.00     0.162 HD
BRANCH  45  47
ATOM     47  C20 non d ame     -33.597  10.831  27.560  0.00  0.00     0.013 C 
ATOM     48  H30 non d ame     -32.787  11.412  27.119  0.00  0.00     0.072 H 
BRANCH  47  49
ATOM     49  C21 non d ame     -33.624   9.444  26.961  0.00  0.00    -0.038 C 
ATOM     50  H31 non d ame     -34.473   9.434  26.277  0.00  0.00     0.036 H 
ATOM     51  H32 non d ame     -32.617   9.267  26.582  0.00  0.00     0.036 H 
BRANCH  49  52
ATOM     52  C22 non d ame     -33.895   8.343  28.009  0.00  0.00     0.018 C 
ATOM     53  H33 non d ame     -33.379   8.663  28.913  0.00  0.00     0.048 H 
ATOM     54  H34 non d ame     -34.977   8.204  28.018  0.00  0.00     0.048 H 
BRANCH  52  55
ATOM     55  C23 non d ame     -33.289   6.961  27.637  0.00  0.00     0.259 C 
ATOM     56  O7  non d ame     -32.295   6.893  26.990  0.00  0.00    -0.265 OA
BRANCH  55  57
ATOM     57  O8  non d ame     -33.945   5.774  28.068  0.00  0.00    -0.317 OA
BRANCH  57  58
ATOM     58  C29 non d ame     -33.055   4.700  28.384  0.00  0.00     0.052 C 
ATOM     59  H47 non d ame     -33.410   3.844  27.810  0.00  0.00     0.082 H 
ATOM     60  H48 non d ame     -32.051   5.089  28.217  0.00  0.00     0.082 H 
BRANCH  58  61
ATOM     61  C35 non d ame     -33.211   4.377  29.894  0.00  0.00    -0.034 A 
ATOM     62  C30 non d ame     -34.250   4.947  30.624  0.00  0.00    -0.075 A 
ATOM     63  C31 non d ame     -34.390   4.657  31.981  0.00  0.00    -0.082 A 
ATOM     64  H49 non d ame     -34.953   5.620  30.134  0.00  0.00     0.084 H 
ATOM     65  C32 non d ame     -33.485   3.796  32.608  0.00  0.00    -0.083 A 
ATOM     66  H50 non d ame     -35.206   5.104  32.550  0.00  0.00     0.083 H 
ATOM     67  C33 non d ame     -32.449   3.233  31.876  0.00  0.00    -0.082 A 
ATOM     68  H51 non d ame     -33.589   3.564  33.668  0.00  0.00     0.083 H 
ATOM     69  C34 non d ame     -32.306   3.518  30.520  0.00  0.00    -0.075 A 
ATOM     70  H52 non d ame     -31.743   2.564  32.369  0.00  0.00     0.083 H 
ATOM     71  H53 non d ame     -31.490   3.071  29.952  0.00  0.00     0.084 H 
ENDBRANCH  58  61
ENDBRANCH  57  58
ENDBRANCH  55  57
ENDBRANCH  52  55
ENDBRANCH  49  52
ENDBRANCH  47  49
BRANCH  47  72
ATOM     72  C24 non d ame     -33.415  10.729  29.073  0.00  0.00    -0.039 C 
ATOM     73  H35 non d ame     -34.423  10.675  29.484  0.00  0.00     0.036 H 
ATOM     74  H36 non d ame     -32.719   9.904  29.227  0.00  0.00     0.036 H 
BRANCH  72  75
ATOM     75  C25 non d ame     -32.729  12.045  29.677  0.00  0.00    -0.001 C 
ATOM     76  C26 non d ame     -31.401  12.441  28.792  0.00  0.00    -0.035 C 
ATOM     77  C27 non d ame     -30.350  12.606  29.630  0.00  0.00     0.085 C 
ATOM     78  H38 non d ame     -31.101  11.597  28.170  0.00  0.00     0.036 H 
ATOM     79  H39 non d ame     -31.529  13.428  28.346  0.00  0.00     0.036 H 
ATOM     80  N5  non d ame     -30.760  12.041  30.969  0.00  0.00    -0.049 N 
ATOM     81  H40 non d ame     -29.548  11.995  29.216  0.00  0.00     0.075 H 
ATOM     82  H41 non d ame     -30.220  13.684  29.725  0.00  0.00     0.075 H 
ATOM     83  C28 non d ame     -32.363  11.861  30.902  0.00  0.00     0.193 C 
ATOM     84  H42 non d ame     -30.337  11.127  31.035  0.00  0.00     0.280 HD
ATOM     85  H43 non d ame     -30.544  12.749  31.656  0.00  0.00     0.280 HD
ATOM     86  H44 non d ame     -33.021  12.565  31.413  0.00  0.00     0.129 H 
ATOM     87  H37 non d ame     -33.452  12.838  29.868  0.00  0.00     0.046 H 
BRANCH  83  88
ATOM     88  O6  non d ame     -32.735  10.570  31.388  0.00  0.00    -0.369 OA
ATOM     89  H45 non d ame     -33.503  10.651  31.958  0.00  0.00     0.212 HD
ENDBRANCH  83  88
ENDBRANCH  72  75
ENDBRANCH  47  72
ENDBRANCH  45  47
ENDBRANCH   1  43
BRANCH   1  90
ATOM     90  C16 non d ame     -36.714  13.044  24.792  0.00  0.00    -0.035 C 
ATOM     91  H21 non d ame     -36.661  13.912  24.135  0.00  0.00     0.037 H 
ATOM     92  H22 non d ame     -36.141  12.147  24.557  0.00  0.00     0.037 H 
BRANCH  90  93
ATOM     93  C17 non d ame     -38.215  12.612  24.830  0.00  0.00    -0.059 C 
ATOM     94  H23 non d ame     -38.325  11.740  24.186  0.00  0.00     0.038 H 
BRANCH  93  95
ATOM     95  C18 non d ame     -38.674  12.203  26.267  0.00  0.00    -0.073 C 
ATOM     96  H24 non d ame     -39.500  12.841  26.579  0.00  0.00     0.028 H 
ATOM     97  H25 non d ame     -39.000  11.164  26.262  0.00  0.00     0.028 H 
ATOM     98  H26 non d ame     -37.842  12.320  26.961  0.00  0.00     0.028 H 
ENDBRANCH  93  95
BRANCH  93  99
ATOM     99  C19 non d ame     -39.115  13.712  24.263  0.00  0.00    -0.073 C 
ATOM    100  H27 non d ame     -39.999  13.262  23.809  0.00  0.00     0.028 H 
ATOM    101  H28 non d ame     -39.422  14.382  25.067  0.00  0.00     0.028 H 
ATOM    102  H29 non d ame     -38.568  14.278  23.510  0.00  0.00     0.028 H 
ENDBRANCH  93  99
ENDBRANCH  90  93
ENDBRANCH   1  90
TORSDOF 26
ENDMDL
MODEL 3
REMARK VINA RESULT:      -6.4      3.258      9.338
REMARK  26 active torsions:
REMARK  status: ('A' for Active; 'I' for Inactive)
REMARK    1  A    between atoms: C2_2  and  C3_3 
REMARK    2  A    between atoms: C4_6  and  C5_7 
REMARK       I    between atoms: C5_7  and  N2_9 
REMARK    3  A    between atoms: N2_9  and  C6_10 
REMARK    4  A    between atoms: C6_10  and  C7_11 
REMARK    5  A    between atoms: C6_10  and  C8_13 
REMARK       I    between atoms: C7_11  and  N3_14 
REMARK    6  A    between atoms: N3_14  and  C9_15 
REMARK    7  A    between atoms: C9_15  and  C10_16 
REMARK    8  A    between atoms: C9_15  and  C11_18 
REMARK       I    between atoms: C10_16  and  N4_21 
REMARK    9  A    between atoms: C11_18  and  C12_19 
REMARK   10  A    between atoms: C11_18  and  C13_20 
REMARK   11  A    between atoms: N4_21  and  C14_22 
REMARK   12  A    between atoms: C14_22  and  C15_23 
REMARK   13  A    between atoms: C14_22  and  C16_25 
REMARK       I    between atoms: C15_23  and  N6_40 
REMARK   14  A    between atoms: C16_25  and  C17_26 
REMARK   15  A    between atoms: C17_26  and  C18_27 
REMARK   16  A    between atoms: C17_26  and  C19_28 
REMARK   17  A    between atoms: C20_29  and  C21_30 
REMARK   18  A    between atoms: C20_29  and  C24_33 
REMARK   19  A    between atoms: C20_29  and  N6_40 
REMARK   20  A    between atoms: C21_30  and  C22_31 
REMARK   21  A    between atoms: C22_31  and  C23_32 
REMARK   22  A    between atoms: C23_32  and  O8_43 
REMARK   23  A    between atoms: C24_33  and  C25_34 
REMARK   24  A    between atoms: C28_38  and  O6_39 
REMARK   25  A    between atoms: C29_42  and  O8_43 
REMARK   26  A    between atoms: C29_42  and  C35_49 
ROOT
ATOM      1  C14 non d ame     -36.745  13.952  26.491  0.00  0.00     0.089 C 
ATOM      2  H20 non d ame     -37.294  13.966  27.433  0.00  0.00     0.087 H 
ENDROOT
BRANCH   1   3
ATOM      3  N4  non d ame     -36.388  15.327  26.172  0.00  0.00    -0.346 N 
ATOM      4  C10 non d ame     -37.139  16.474  26.799  0.00  0.00     0.241 C 
ATOM      5  O4  non d ame     -38.030  16.266  27.555  0.00  0.00    -0.271 OA
ATOM      6  H19 non d ame     -35.628  15.482  25.524  0.00  0.00     0.163 HD
BRANCH   4   7
ATOM      7  C9  non d ame     -36.752  17.890  26.462  0.00  0.00     0.092 C 
ATOM      8  H11 non d ame     -37.136  18.560  27.231  0.00  0.00     0.088 H 
BRANCH   7   9
ATOM      9  N3  non d ame     -35.291  18.013  26.470  0.00  0.00    -0.346 N 
ATOM     10  C7  non d ame     -34.591  18.201  27.717  0.00  0.00     0.240 C 
ATOM     11  O3  non d ame     -35.187  18.257  28.722  0.00  0.00    -0.271 OA
ATOM     12  H10 non d ame     -34.764  17.969  25.610  0.00  0.00     0.163 HD
BRANCH  10  13
ATOM     13  C6  non d ame     -33.037  18.335  27.718  0.00  0.00     0.086 C 
ATOM     14  H6  non d ame     -32.565  17.756  28.512  0.00  0.00     0.086 H 
BRANCH  13  15
ATOM     15  N2  non d ame     -32.518  17.820  26.462  0.00  0.00    -0.343 N 
ATOM     16  C5  non d ame     -32.143  16.407  26.362  0.00  0.00     0.273 C 
ATOM     17  O2  non d ame     -32.259  15.695  27.298  0.00  0.00    -0.266 OA
ATOM     18  H5  non d ame     -32.419  18.436  25.668  0.00  0.00     0.163 HD
BRANCH  16  19
ATOM     19  C4  non d ame     -31.594  15.849  25.040  0.00  0.00     0.154 A 
ATOM     20  C1  non d ame     -31.056  14.543  24.810  0.00  0.00    -0.017 A 
ATOM     21  C2  non d ame     -30.698  14.532  23.443  0.00  0.00     0.077 A 
ATOM     22  H1  non d ame     -30.943  13.728  25.525  0.00  0.00     0.091 H 
ATOM     23  O1  non d ame     -31.000  15.700  22.955  0.00  0.00    -0.218 OA
ATOM     24  N1  non d ame     -31.524  16.485  23.867  0.00  0.00    -0.123 NA
BRANCH  21  25
ATOM     25  C3  non d ame     -30.074  13.369  22.684  0.00  0.00    -0.029 C 
ATOM     26  H2  non d ame     -29.685  12.639  23.392  0.00  0.00     0.036 H 
ATOM     27  H3  non d ame     -30.830  12.899  22.055  0.00  0.00     0.036 H 
ATOM     28  H4  non d ame     -29.260  13.738  22.059  0.00  0.00     0.036 H 
ENDBRANCH  21  25
ENDBRANCH  16  19
ENDBRANCH  13  15
BRANCH  13  29
ATOM     29  C8  non d ame     -32.654  19.784  27.879  0.00  0.00    -0.049 C 
ATOM     30  H7  non d ame     -32.452  19.992  28.930  0.00  0.00     0.030 H 
ATOM     31  H8  non d ame     -31.761  19.992  27.290  0.00  0.00     0.030 H 
ATOM     32  H9  non d ame     -33.472  20.417  27.535  0.00  0.00     0.030 H 
ENDBRANCH  13  29
ENDBRANCH  10  13
ENDBRANCH   7   9
BRANCH   7  33
ATOM     33  C11 non d ame     -37.293  18.253  25.048  0.00  0.00    -0.033 C 
ATOM     34  H12 non d ame     -37.033  17.434  24.377  0.00  0.00     0.042 H 
BRANCH  33  35
ATOM     35  C12 non d ame     -38.848  18.382  25.049  0.00  0.00    -0.071 C 
ATOM     36  H13 non d ame     -39.212  18.377  26.077  0.00  0.00     0.028 H 
ATOM     37  H14 non d ame     -39.135  19.316  24.567  0.00  0.00     0.028 H 
ATOM     38  H15 non d ame     -39.283  17.543  24.506  0.00  0.00     0.028 H 
ENDBRANCH  33  35
BRANCH  33  39
ATOM     39  C13 non d ame     -36.617  19.553  24.507  0.00  0.00    -0.071 C 
ATOM     40  H16 non d ame     -37.294  20.054  23.814  0.00  0.00     0.028 H 
ATOM     41  H17 non d ame     -36.391  20.219  25.340  0.00  0.00     0.028 H 
ATOM     42  H18 non d ame     -35.693  19.294  23.989  0.00  0.00     0.028 H 
ENDBRANCH  33  39
ENDBRANCH   7  33
ENDBRANCH   4   7
ENDBRANCH   1   3
BRANCH   1  43
ATOM     43  C15 non d ame     -35.440  13.111  26.585  0.00  0.00     0.240 C 
ATOM     44  O5  non d ame     -34.551  13.312  25.823  0.00  0.00    -0.271 OA
ATOM     45  N6  non d ame     -35.295  12.059  27.632  0.00  0.00    -0.355 N 
ATOM     46  H46 non d ame     -36.042  11.883  28.289  0.00  0.00     0.162 HD
BRANCH  45  47
ATOM     47  C20 non d ame     -34.048  11.269  27.709  0.00  0.00     0.013 C 
ATOM     48  H30 non d ame     -33.254  11.848  27.238  0.00  0.00     0.072 H 
BRANCH  47  49
ATOM     49  C21 non d ame     -34.239   9.961  26.975  0.00  0.00    -0.038 C 
ATOM     50  H31 non d ame     -34.379   9.206  27.749  0.00  0.00     0.036 H 
ATOM     51  H32 non d ame     -35.028  10.146  26.245  0.00  0.00     0.036 H 
BRANCH  49  52
ATOM     52  C22 non d ame     -32.991   9.536  26.172  0.00  0.00     0.018 C 
ATOM     53  H33 non d ame     -33.270   9.626  25.122  0.00  0.00     0.048 H 
ATOM     54  H34 non d ame     -32.168  10.130  26.569  0.00  0.00     0.048 H 
BRANCH  52  55
ATOM     55  C23 non d ame     -32.587   8.050  26.381  0.00  0.00     0.259 C 
ATOM     56  O7  non d ame     -32.390   7.627  27.474  0.00  0.00    -0.265 OA
BRANCH  55  57
ATOM     57  O8  non d ame     -32.441   7.202  25.249  0.00  0.00    -0.317 OA
BRANCH  57  58
ATOM     58  C29 non d ame     -32.678   7.854  23.998  0.00  0.00     0.052 C 
ATOM     59  H47 non d ame     -33.221   7.133  23.387  0.00  0.00     0.082 H 
ATOM     60  H48 non d ame     -33.135   8.812  24.246  0.00  0.00     0.082 H 
BRANCH  58  61
ATOM     61  C35 non d ame     -31.303   8.125  23.331  0.00  0.00    -0.034 A 
ATOM     62  C30 non d ame     -30.984   9.404  22.886  0.00  0.00    -0.075 A 
ATOM     63  C31 non d ame     -29.749   9.647  22.287  0.00  0.00    -0.082 A 
ATOM     64  H49 non d ame     -31.702  10.215  23.005  0.00  0.00     0.084 H 
ATOM     65  C32 non d ame     -28.831   8.605  22.131  0.00  0.00    -0.083 A 
ATOM     66  H50 non d ame     -29.502  10.651  21.940  0.00  0.00     0.083 H 
ATOM     67  C33 non d ame     -29.155   7.330  22.575  0.00  0.00    -0.082 A 
ATOM     68  H51 non d ame     -27.863   8.787  21.665  0.00  0.00     0.083 H 
ATOM     69  C34 non d ame     -30.387   7.082  23.176  0.00  0.00    -0.075 A 
ATOM     70  H52 non d ame     -28.438   6.518  22.450  0.00  0.00     0.083 H 
ATOM     71  H53 non d ame     -30.634   6.078  23.522  0.00  0.00     0.084 H 
ENDBRANCH  58  61
ENDBRANCH  57  58
ENDBRANCH  55  57
ENDBRANCH  52  55
ENDBRANCH  49  52
ENDBRANCH  47  49
BRANCH  47  72
ATOM     72  C24 non d ame     -33.704  10.988  29.170  0.00  0.00    -0.039 C 
ATOM     73  H35 non d ame     -34.661  10.949  29.692  0.00  0.00     0.036 H 
ATOM     74  H36 non d ame     -33.057  10.110  29.153  0.00  0.00     0.036 H 
BRANCH  72  75
ATOM     75  C25 non d ame     -32.860  12.183  29.821  0.00  0.00    -0.001 C 
ATOM     76  C26 non d ame     -31.596  12.573  28.844  0.00  0.00    -0.035 C 
ATOM     77  C27 non d ame     -30.459  12.578  29.581  0.00  0.00     0.085 C 
ATOM     78  H38 non d ame     -31.425  11.778  28.119  0.00  0.00     0.036 H 
ATOM     79  H39 non d ame     -31.687  13.606  28.509  0.00  0.00     0.036 H 
ATOM     80  N5  non d ame     -30.783  11.911  30.896  0.00  0.00    -0.049 N 
ATOM     81  H40 non d ame     -29.753  11.957  29.031  0.00  0.00     0.075 H 
ATOM     82  H41 non d ame     -30.235  13.629  29.763  0.00  0.00     0.075 H 
ATOM     83  C28 non d ame     -32.394  11.851  30.979  0.00  0.00     0.193 C 
ATOM     84  H42 non d ame     -30.430  10.967  30.832  0.00  0.00     0.280 HD
ATOM     85  H43 non d ame     -30.446  12.528  31.621  0.00  0.00     0.280 HD
ATOM     86  H44 non d ame     -32.942  12.544  31.619  0.00  0.00     0.129 H 
ATOM     87  H37 non d ame     -33.496  13.002  30.159  0.00  0.00     0.046 H 
BRANCH  83  88
ATOM     88  O6  non d ame     -32.820  10.547  31.377  0.00  0.00    -0.369 OA
ATOM     89  H45 non d ame     -33.396  10.617  32.142  0.00  0.00     0.212 HD
ENDBRANCH  83  88
ENDBRANCH  72  75
ENDBRANCH  47  72
ENDBRANCH  45  47
ENDBRANCH   1  43
BRANCH   1  90
ATOM     90  C16 non d ame     -37.630  13.401  25.386  0.00  0.00    -0.035 C 
ATOM     91  H21 non d ame     -37.086  12.549  24.978  0.00  0.00     0.037 H 
ATOM     92  H22 non d ame     -38.608  13.253  25.846  0.00  0.00     0.037 H 
BRANCH  90  93
ATOM     93  C17 non d ame     -37.846  14.395  24.201  0.00  0.00    -0.059 C 
ATOM     94  H23 non d ame     -37.274  15.297  24.418  0.00  0.00     0.038 H 
BRANCH  93  95
ATOM     95  C18 non d ame     -37.327  13.817  22.845  0.00  0.00    -0.073 C 
ATOM     96  H24 non d ame     -37.466  12.736  22.833  0.00  0.00     0.028 H 
ATOM     97  H25 non d ame     -37.885  14.263  22.022  0.00  0.00     0.028 H 
ATOM     98  H26 non d ame     -36.268  14.047  22.734  0.00  0.00     0.028 H 
ENDBRANCH  93  95
BRANCH  93  99
ATOM     99  C19 non d ame     -39.317  14.804  24.091  0.00  0.00    -0.073 C 
ATOM    100  H27 non d ame     -39.708  15.026  25.084  0.00  0.00     0.028 H 
ATOM    101  H28 non d ame     -39.402  15.689  23.460  0.00  0.00     0.028 H 
ATOM    102  H29 non d ame     -39.889  13.988  23.649  0.00  0.00     0.028 H 
ENDBRANCH  93  99
ENDBRANCH  90  93
ENDBRANCH   1  90
TORSDOF 26
ENDMDL
MODEL 4
REMARK VINA RESULT:      -6.4      2.630      8.896
REMARK  26 active torsions:
REMARK  status: ('A' for Active; 'I' for Inactive)
REMARK    1  A    between atoms: C2_2  and  C3_3 
REMARK    2  A    between atoms: C4_6  and  C5_7 
REMARK       I    between atoms: C5_7  and  N2_9 
REMARK    3  A    between atoms: N2_9  and  C6_10 
REMARK    4  A    between atoms: C6_10  and  C7_11 
REMARK    5  A    between atoms: C6_10  and  C8_13 
REMARK       I    between atoms: C7_11  and  N3_14 
REMARK    6  A    between atoms: N3_14  and  C9_15 
REMARK    7  A    between atoms: C9_15  and  C10_16 
REMARK    8  A    between atoms: C9_15  and  C11_18 
REMARK       I    between atoms: C10_16  and  N4_21 
REMARK    9  A    between atoms: C11_18  and  C12_19 
REMARK   10  A    between atoms: C11_18  and  C13_20 
REMARK   11  A    between atoms: N4_21  and  C14_22 
REMARK   12  A    between atoms: C14_22  and  C15_23 
REMARK   13  A    between atoms: C14_22  and  C16_25 
REMARK       I    between atoms: C15_23  and  N6_40 
REMARK   14  A    between atoms: C16_25  and  C17_26 
REMARK   15  A    between atoms: C17_26  and  C18_27 
REMARK   16  A    between atoms: C17_26  and  C19_28 
REMARK   17  A    between atoms: C20_29  and  C21_30 
REMARK   18  A    between atoms: C20_29  and  C24_33 
REMARK   19  A    between atoms: C20_29  and  N6_40 
REMARK   20  A    between atoms: C21_30  and  C22_31 
REMARK   21  A    between atoms: C22_31  and  C23_32 
REMARK   22  A    between atoms: C23_32  and  O8_43 
REMARK   23  A    between atoms: C24_33  and  C25_34 
REMARK   24  A    between atoms: C28_38  and  O6_39 
REMARK   25  A    between atoms: C29_42  and  O8_43 
REMARK   26  A    between atoms: C29_42  and  C35_49 
ROOT
ATOM      1  C14 non d ame     -35.480  14.379  26.877  0.00  0.00     0.089 C 
ATOM      2  H20 non d ame     -35.766  14.669  27.889  0.00  0.00     0.087 H 
ENDROOT
BRANCH   1   3
ATOM      3  N4  non d ame     -34.427  15.285  26.443  0.00  0.00    -0.346 N 
ATOM      4  C10 non d ame     -33.795  16.243  27.420  0.00  0.00     0.241 C 
ATOM      5  O4  non d ame     -34.153  16.269  28.551  0.00  0.00    -0.271 OA
ATOM      6  H19 non d ame     -34.138  15.248  25.475  0.00  0.00     0.163 HD
BRANCH   4   7
ATOM      7  C9  non d ame     -32.702  17.169  26.954  0.00  0.00     0.092 C 
ATOM      8  H11 non d ame     -31.860  17.105  27.644  0.00  0.00     0.088 H 
BRANCH   7   9
ATOM      9  N3  non d ame     -32.220  16.734  25.640  0.00  0.00    -0.346 N 
ATOM     10  C7  non d ame     -31.395  15.556  25.528  0.00  0.00     0.240 C 
ATOM     11  O3  non d ame     -31.108  14.947  26.486  0.00  0.00    -0.271 OA
ATOM     12  H10 non d ame     -32.458  17.250  24.805  0.00  0.00     0.163 HD
BRANCH  10  13
ATOM     13  C6  non d ame     -30.883  15.101  24.127  0.00  0.00     0.086 C 
ATOM     14  H6  non d ame     -29.810  15.245  24.003  0.00  0.00     0.086 H 
BRANCH  13  15
ATOM     15  N2  non d ame     -31.131  13.676  23.974  0.00  0.00    -0.343 N 
ATOM     16  C5  non d ame     -30.223  12.870  23.155  0.00  0.00     0.273 C 
ATOM     17  O2  non d ame     -29.299  13.377  22.620  0.00  0.00    -0.266 OA
ATOM     18  H5  non d ame     -31.924  13.252  24.433  0.00  0.00     0.163 HD
BRANCH  16  19
ATOM     19  C4  non d ame     -30.472  11.363  22.987  0.00  0.00     0.154 A 
ATOM     20  C1  non d ame     -31.456  10.569  23.657  0.00  0.00    -0.017 A 
ATOM     21  C2  non d ame     -31.272   9.262  23.154  0.00  0.00     0.077 A 
ATOM     22  H1  non d ame     -32.191  10.892  24.395  0.00  0.00     0.091 H 
ATOM     23  O1  non d ame     -30.296   9.311  22.295  0.00  0.00    -0.218 OA
ATOM     24  N1  non d ame     -29.813  10.526  22.181  0.00  0.00    -0.123 NA
BRANCH  21  25
ATOM     25  C3  non d ame     -32.070   8.025  23.545  0.00  0.00    -0.029 C 
ATOM     26  H2  non d ame     -33.136   8.250  23.500  0.00  0.00     0.036 H 
ATOM     27  H3  non d ame     -31.843   7.213  22.855  0.00  0.00     0.036 H 
ATOM     28  H4  non d ame     -31.804   7.725  24.558  0.00  0.00     0.036 H 
ENDBRANCH  21  25
ENDBRANCH  16  19
ENDBRANCH  13  15
BRANCH  13  29
ATOM     29  C8  non d ame     -31.606  15.869  23.050  0.00  0.00    -0.049 C 
ATOM     30  H7  non d ame     -30.931  16.605  22.613  0.00  0.00     0.030 H 
ATOM     31  H8  non d ame     -31.941  15.180  22.275  0.00  0.00     0.030 H 
ATOM     32  H9  non d ame     -32.468  16.377  23.483  0.00  0.00     0.030 H 
ENDBRANCH  13  29
ENDBRANCH  10  13
ENDBRANCH   7   9
BRANCH   7  33
ATOM     33  C11 non d ame     -33.261  18.618  26.846  0.00  0.00    -0.033 C 
ATOM     34  H12 non d ame     -34.298  18.596  27.180  0.00  0.00     0.042 H 
BRANCH  33  35
ATOM     35  C12 non d ame     -32.487  19.597  27.782  0.00  0.00    -0.071 C 
ATOM     36  H13 non d ame     -32.634  20.621  27.438  0.00  0.00     0.028 H 
ATOM     37  H14 non d ame     -32.861  19.499  28.801  0.00  0.00     0.028 H 
ATOM     38  H15 non d ame     -31.424  19.357  27.761  0.00  0.00     0.028 H 
ENDBRANCH  33  35
BRANCH  33  39
ATOM     39  C13 non d ame     -33.241  19.115  25.365  0.00  0.00    -0.071 C 
ATOM     40  H16 non d ame     -32.240  19.465  25.112  0.00  0.00     0.028 H 
ATOM     41  H17 non d ame     -33.518  18.295  24.702  0.00  0.00     0.028 H 
ATOM     42  H18 non d ame     -33.953  19.932  25.247  0.00  0.00     0.028 H 
ENDBRANCH  33  39
ENDBRANCH   7  33
ENDBRANCH   4   7
ENDBRANCH   1   3
BRANCH   1  43
ATOM     43  C15 non d ame     -34.939  12.922  26.814  0.00  0.00     0.240 C 
ATOM     44  O5  non d ame     -34.613  12.457  25.770  0.00  0.00    -0.271 OA
ATOM     45  N6  non d ame     -34.818  12.109  28.058  0.00  0.00    -0.355 N 
ATOM     46  H46 non d ame     -35.086  12.495  28.951  0.00  0.00     0.162 HD
BRANCH  45  47
ATOM     47  C20 non d ame     -34.299  10.726  27.981  0.00  0.00     0.013 C 
ATOM     48  H30 non d ame     -33.919  10.566  26.973  0.00  0.00     0.072 H 
BRANCH  47  49
ATOM     49  C21 non d ame     -35.422   9.756  28.271  0.00  0.00    -0.038 C 
ATOM     50  H31 non d ame     -36.342  10.333  28.180  0.00  0.00     0.036 H 
ATOM     51  H32 non d ame     -35.247   8.901  27.617  0.00  0.00     0.036 H 
BRANCH  49  52
ATOM     52  C22 non d ame     -35.388   9.214  29.717  0.00  0.00     0.018 C 
ATOM     53  H33 non d ame     -34.631   8.430  29.720  0.00  0.00     0.048 H 
ATOM     54  H34 non d ame     -35.269  10.088  30.357  0.00  0.00     0.048 H 
BRANCH  52  55
ATOM     55  C23 non d ame     -36.712   8.533  30.162  0.00  0.00     0.259 C 
ATOM     56  O7  non d ame     -37.540   9.151  30.749  0.00  0.00    -0.265 OA
BRANCH  55  57
ATOM     57  O8  non d ame     -36.919   7.156  29.871  0.00  0.00    -0.317 OA
BRANCH  57  58
ATOM     58  C29 non d ame     -36.661   6.283  30.974  0.00  0.00     0.052 C 
ATOM     59  H47 non d ame     -36.495   6.933  31.833  0.00  0.00     0.082 H 
ATOM     60  H48 non d ame     -37.482   5.567  30.983  0.00  0.00     0.082 H 
BRANCH  58  61
ATOM     61  C35 non d ame     -35.345   5.515  30.678  0.00  0.00    -0.034 A 
ATOM     62  C30 non d ame     -34.592   4.994  31.726  0.00  0.00    -0.075 A 
ATOM     63  C31 non d ame     -33.409   4.305  31.461  0.00  0.00    -0.082 A 
ATOM     64  H49 non d ame     -34.928   5.126  32.755  0.00  0.00     0.084 H 
ATOM     65  C32 non d ame     -32.979   4.139  30.141  0.00  0.00    -0.083 A 
ATOM     66  H50 non d ame     -32.822   3.896  32.284  0.00  0.00     0.083 H 
ATOM     67  C33 non d ame     -33.732   4.664  29.100  0.00  0.00    -0.082 A 
ATOM     68  H51 non d ame     -32.056   3.601  29.925  0.00  0.00     0.083 H 
ATOM     69  C34 non d ame     -34.915   5.352  29.360  0.00  0.00    -0.075 A 
ATOM     70  H52 non d ame     -33.392   4.535  28.071  0.00  0.00     0.083 H 
ATOM     71  H53 non d ame     -35.502   5.760  28.536  0.00  0.00     0.084 H 
ENDBRANCH  58  61
ENDBRANCH  57  58
ENDBRANCH  55  57
ENDBRANCH  52  55
ENDBRANCH  49  52
ENDBRANCH  47  49
BRANCH  47  72
ATOM     72  C24 non d ame     -33.183  10.536  29.006  0.00  0.00    -0.039 C 
ATOM     73  H35 non d ame     -33.641  10.001  29.838  0.00  0.00     0.036 H 
ATOM     74  H36 non d ame     -32.359  10.082  28.455  0.00  0.00     0.036 H 
BRANCH  72  75
ATOM     75  C25 non d ame     -32.657  11.937  29.577  0.00  0.00    -0.001 C 
ATOM     76  C26 non d ame     -31.297  12.394  28.772  0.00  0.00    -0.035 C 
ATOM     77  C27 non d ame     -30.335  12.696  29.677  0.00  0.00     0.085 C 
ATOM     78  H38 non d ame     -30.881  11.546  28.230  0.00  0.00     0.036 H 
ATOM     79  H39 non d ame     -31.468  13.339  28.257  0.00  0.00     0.036 H 
ATOM     80  N5  non d ame     -30.806  12.174  31.013  0.00  0.00    -0.049 N 
ATOM     81  H40 non d ame     -29.456  12.132  29.365  0.00  0.00     0.075 H 
ATOM     82  H41 non d ame     -30.301  13.784  29.713  0.00  0.00     0.075 H 
ATOM     83  C28 non d ame     -32.379  11.854  30.835  0.00  0.00     0.193 C 
ATOM     84  H42 non d ame     -30.317  11.304  31.169  0.00  0.00     0.280 HD
ATOM     85  H43 non d ame     -30.705  12.936  31.668  0.00  0.00     0.280 HD
ATOM     86  H44 non d ame     -33.131  12.527  31.248  0.00  0.00     0.129 H 
ATOM     87  H37 non d ame     -33.455  12.674  29.661  0.00  0.00     0.046 H 
BRANCH  83  88
ATOM     88  O6  non d ame     -32.683  10.566  31.371  0.00  0.00    -0.369 OA
ATOM     89  H45 non d ame     -32.997   9.992  30.667  0.00  0.00     0.212 HD
ENDBRANCH  83  88
ENDBRANCH  72  75
ENDBRANCH  47  72
ENDBRANCH  45  47
ENDBRANCH   1  43
BRANCH   1  90
ATOM     90  C16 non d ame     -36.673  14.522  25.945  0.00  0.00    -0.035 C 
ATOM     91  H21 non d ame     -36.406  13.966  25.047  0.00  0.00     0.037 H 
ATOM     92  H22 non d ame     -37.538  14.221  26.536  0.00  0.00     0.037 H 
BRANCH  90  93
ATOM     93  C17 non d ame     -36.940  15.992  25.490  0.00  0.00    -0.059 C 
ATOM     94  H23 non d ame     -35.976  16.498  25.423  0.00  0.00     0.038 H 
BRANCH  93  95
ATOM     95  C18 non d ame     -37.612  16.060  24.081  0.00  0.00    -0.073 C 
ATOM     96  H24 non d ame     -36.864  16.323  23.334  0.00  0.00     0.028 H 
ATOM     97  H25 non d ame     -38.042  15.089  23.836  0.00  0.00     0.028 H 
ATOM     98  H26 non d ame     -38.398  16.814  24.089  0.00  0.00     0.028 H 
ENDBRANCH  93  95
BRANCH  93  99
ATOM     99  C19 non d ame     -37.776  16.743  26.529  0.00  0.00    -0.073 C 
ATOM    100  H27 non d ame     -38.457  17.427  26.022  0.00  0.00     0.028 H 
ATOM    101  H28 non d ame     -38.352  16.029  27.118  0.00  0.00     0.028 H 
ATOM    102  H29 non d ame     -37.117  17.308  27.187  0.00  0.00     0.028 H 
ENDBRANCH  93  99
ENDBRANCH  90  93
ENDBRANCH   1  90
TORSDOF 26
ENDMDL
MODEL 5
REMARK VINA RESULT:      -6.3      2.022      9.551
REMARK  26 active torsions:
REMARK  status: ('A' for Active; 'I' for Inactive)
REMARK    1  A    between atoms: C2_2  and  C3_3 
REMARK    2  A    between atoms: C4_6  and  C5_7 
REMARK       I    between atoms: C5_7  and  N2_9 
REMARK    3  A    between atoms: N2_9  and  C6_10 
REMARK    4  A    between atoms: C6_10  and  C7_11 
REMARK    5  A    between atoms: C6_10  and  C8_13 
REMARK       I    between atoms: C7_11  and  N3_14 
REMARK    6  A    between atoms: N3_14  and  C9_15 
REMARK    7  A    between atoms: C9_15  and  C10_16 
REMARK    8  A    between atoms: C9_15  and  C11_18 
REMARK       I    between atoms: C10_16  and  N4_21 
REMARK    9  A    between atoms: C11_18  and  C12_19 
REMARK   10  A    between atoms: C11_18  and  C13_20 
REMARK   11  A    between atoms: N4_21  and  C14_22 
REMARK   12  A    between atoms: C14_22  and  C15_23 
REMARK   13  A    between atoms: C14_22  and  C16_25 
REMARK       I    between atoms: C15_23  and  N6_40 
REMARK   14  A    between atoms: C16_25  and  C17_26 
REMARK   15  A    between atoms: C17_26  and  C18_27 
REMARK   16  A    between atoms: C17_26  and  C19_28 
REMARK   17  A    between atoms: C20_29  and  C21_30 
REMARK   18  A    between atoms: C20_29  and  C24_33 
REMARK   19  A    between atoms: C20_29  and  N6_40 
REMARK   20  A    between atoms: C21_30  and  C22_31 
REMARK   21  A    between atoms: C22_31  and  C23_32 
REMARK   22  A    between atoms: C23_32  and  O8_43 
REMARK   23  A    between atoms: C24_33  and  C25_34 
REMARK   24  A    between atoms: C28_38  and  O6_39 
REMARK   25  A    between atoms: C29_42  and  O8_43 
REMARK   26  A    between atoms: C29_42  and  C35_49 
ROOT
ATOM      1  C14 non d ame     -33.153  10.396  30.089  0.00  0.00     0.089 C 
ATOM      2  H20 non d ame     -32.150   9.989  29.959  0.00  0.00     0.087 H 
ENDROOT
BRANCH   1   3
ATOM      3  N4  non d ame     -33.628  10.819  28.780  0.00  0.00    -0.346 N 
ATOM      4  C10 non d ame     -32.956  10.315  27.527  0.00  0.00     0.241 C 
ATOM      5  O4  non d ame     -32.034   9.572  27.598  0.00  0.00    -0.271 OA
ATOM      6  H19 non d ame     -34.412  11.454  28.741  0.00  0.00     0.163 HD
BRANCH   4   7
ATOM      7  C9  non d ame     -33.464  10.759  26.180  0.00  0.00     0.092 C 
ATOM      8  H11 non d ame     -34.554  10.770  26.194  0.00  0.00     0.088 H 
BRANCH   7   9
ATOM      9  N3  non d ame     -33.020  12.131  25.918  0.00  0.00    -0.346 N 
ATOM     10  C7  non d ame     -33.844  13.245  26.320  0.00  0.00     0.240 C 
ATOM     11  O3  non d ame     -34.868  13.055  26.854  0.00  0.00    -0.271 OA
ATOM     12  H10 non d ame     -32.139  12.311  25.457  0.00  0.00     0.163 HD
BRANCH  10  13
ATOM     13  C6  non d ame     -33.367  14.703  26.035  0.00  0.00     0.086 C 
ATOM     14  H6  non d ame     -32.624  15.051  26.753  0.00  0.00     0.086 H 
BRANCH  13  15
ATOM     15  N2  non d ame     -32.733  14.745  24.728  0.00  0.00    -0.343 N 
ATOM     16  C5  non d ame     -31.491  15.501  24.552  0.00  0.00     0.273 C 
ATOM     17  O2  non d ame     -31.011  16.073  25.468  0.00  0.00    -0.266 OA
ATOM     18  H5  non d ame     -33.152  14.255  23.950  0.00  0.00     0.163 HD
BRANCH  16  19
ATOM     19  C4  non d ame     -30.809  15.552  23.176  0.00  0.00     0.154 A 
ATOM     20  C1  non d ame     -31.447  15.570  21.895  0.00  0.00    -0.017 A 
ATOM     21  C2  non d ame     -30.388  15.620  20.962  0.00  0.00     0.077 A 
ATOM     22  H1  non d ame     -32.515  15.549  21.677  0.00  0.00     0.091 H 
ATOM     23  O1  non d ame     -29.276  15.631  21.638  0.00  0.00    -0.218 OA
ATOM     24  N1  non d ame     -29.497  15.592  22.932  0.00  0.00    -0.123 NA
BRANCH  21  25
ATOM     25  C3  non d ame     -30.523  15.655  19.446  0.00  0.00    -0.029 C 
ATOM     26  H2  non d ame     -29.703  15.098  18.994  0.00  0.00     0.036 H 
ATOM     27  H3  non d ame     -31.472  15.205  19.155  0.00  0.00     0.036 H 
ATOM     28  H4  non d ame     -30.492  16.689  19.102  0.00  0.00     0.036 H 
ENDBRANCH  21  25
ENDBRANCH  16  19
ENDBRANCH  13  15
BRANCH  13  29
ATOM     29  C8  non d ame     -34.550  15.637  26.066  0.00  0.00    -0.049 C 
ATOM     30  H7  non d ame     -35.123  15.467  26.978  0.00  0.00     0.030 H 
ATOM     31  H8  non d ame     -34.199  16.668  26.044  0.00  0.00     0.030 H 
ATOM     32  H9  non d ame     -35.184  15.449  25.199  0.00  0.00     0.030 H 
ENDBRANCH  13  29
ENDBRANCH  10  13
ENDBRANCH   7   9
BRANCH   7  33
ATOM     33  C11 non d ame     -32.902   9.815  25.077  0.00  0.00    -0.033 C 
ATOM     34  H12 non d ame     -32.485   8.940  25.575  0.00  0.00     0.042 H 
BRANCH  33  35
ATOM     35  C12 non d ame     -34.033   9.318  24.124  0.00  0.00    -0.071 C 
ATOM     36  H13 non d ame     -33.693   8.432  23.588  0.00  0.00     0.028 H 
ATOM     37  H14 non d ame     -34.918   9.070  24.709  0.00  0.00     0.028 H 
ATOM     38  H15 non d ame     -34.278  10.103  23.409  0.00  0.00     0.028 H 
ENDBRANCH  33  35
BRANCH  33  39
ATOM     39  C13 non d ame     -31.753  10.510  24.278  0.00  0.00    -0.071 C 
ATOM     40  H16 non d ame     -31.817  11.590  24.416  0.00  0.00     0.028 H 
ATOM     41  H17 non d ame     -30.789  10.153  24.643  0.00  0.00     0.028 H 
ATOM     42  H18 non d ame     -31.851  10.272  23.219  0.00  0.00     0.028 H 
ENDBRANCH  33  39
ENDBRANCH   7  33
ENDBRANCH   4   7
ENDBRANCH   1   3
BRANCH   1  43
ATOM     43  C15 non d ame     -34.146   9.342  30.658  0.00  0.00     0.240 C 
ATOM     44  O5  non d ame     -34.679   9.535  31.703  0.00  0.00    -0.271 OA
ATOM     45  N6  non d ame     -34.438   8.094  29.897  0.00  0.00    -0.355 N 
ATOM     46  H46 non d ame     -33.995   7.920  29.006  0.00  0.00     0.162 HD
BRANCH  45  47
ATOM     47  C20 non d ame     -35.385   7.102  30.451  0.00  0.00     0.013 C 
ATOM     48  H30 non d ame     -35.657   7.423  31.456  0.00  0.00     0.072 H 
BRANCH  47  49
ATOM     49  C21 non d ame     -34.715   5.748  30.505  0.00  0.00    -0.038 C 
ATOM     50  H31 non d ame     -33.694   5.937  30.836  0.00  0.00     0.036 H 
ATOM     51  H32 non d ame     -35.375   5.117  31.102  0.00  0.00     0.036 H 
BRANCH  49  52
ATOM     52  C22 non d ame     -34.608   5.077  29.118  0.00  0.00     0.018 C 
ATOM     53  H33 non d ame     -35.325   4.257  29.131  0.00  0.00     0.048 H 
ATOM     54  H34 non d ame     -34.714   5.883  28.391  0.00  0.00     0.048 H 
BRANCH  52  55
ATOM     55  C23 non d ame     -33.223   4.430  28.841  0.00  0.00     0.259 C 
ATOM     56  O7  non d ame     -32.665   3.811  29.689  0.00  0.00    -0.265 OA
BRANCH  55  57
ATOM     57  O8  non d ame     -32.619   4.595  27.564  0.00  0.00    -0.317 OA
BRANCH  57  58
ATOM     58  C29 non d ame     -32.571   5.951  27.114  0.00  0.00     0.052 C 
ATOM     59  H47 non d ame     -33.491   6.414  27.472  0.00  0.00     0.082 H 
ATOM     60  H48 non d ame     -31.605   6.337  27.440  0.00  0.00     0.082 H 
BRANCH  58  61
ATOM     61  C35 non d ame     -32.598   5.942  25.562  0.00  0.00    -0.034 A 
ATOM     62  C30 non d ame     -33.718   5.468  24.887  0.00  0.00    -0.075 A 
ATOM     63  C31 non d ame     -33.742   5.459  23.493  0.00  0.00    -0.082 A 
ATOM     64  H49 non d ame     -34.577   5.102  25.450  0.00  0.00     0.084 H 
ATOM     65  C32 non d ame     -32.638   5.926  22.774  0.00  0.00    -0.083 A 
ATOM     66  H50 non d ame     -34.622   5.088  22.967  0.00  0.00     0.083 H 
ATOM     67  C33 non d ame     -31.521   6.395  23.451  0.00  0.00    -0.082 A 
ATOM     68  H51 non d ame     -32.649   5.923  21.684  0.00  0.00     0.083 H 
ATOM     69  C34 non d ame     -31.494   6.408  24.844  0.00  0.00    -0.075 A 
ATOM     70  H52 non d ame     -30.661   6.756  22.887  0.00  0.00     0.083 H 
ATOM     71  H53 non d ame     -30.614   6.779  25.369  0.00  0.00     0.084 H 
ENDBRANCH  58  61
ENDBRANCH  57  58
ENDBRANCH  55  57
ENDBRANCH  52  55
ENDBRANCH  49  52
ENDBRANCH  47  49
BRANCH  47  72
ATOM     72  C24 non d ame     -36.627   7.023  29.565  0.00  0.00    -0.039 C 
ATOM     73  H35 non d ame     -36.252   6.872  28.553  0.00  0.00     0.036 H 
ATOM     74  H36 non d ame     -37.265   6.269  30.027  0.00  0.00     0.036 H 
BRANCH  72  75
ATOM     75  C25 non d ame     -37.445   8.400  29.567  0.00  0.00    -0.001 C 
ATOM     76  C26 non d ame     -39.040   8.103  29.839  0.00  0.00    -0.035 C 
ATOM     77  C27 non d ame     -39.768   8.721  28.879  0.00  0.00     0.085 C 
ATOM     78  H38 non d ame     -39.255   7.047  29.683  0.00  0.00     0.036 H 
ATOM     79  H39 non d ame     -39.360   8.595  30.758  0.00  0.00     0.036 H 
ATOM     80  N5  non d ame     -38.806   9.137  27.793  0.00  0.00    -0.049 N 
ATOM     81  H40 non d ame     -40.439   7.956  28.486  0.00  0.00     0.075 H 
ATOM     82  H41 non d ame     -40.177   9.613  29.352  0.00  0.00     0.075 H 
ATOM     83  C28 non d ame     -37.330   9.013  28.436  0.00  0.00     0.193 C 
ATOM     84  H42 non d ame     -38.893   8.452  27.055  0.00  0.00     0.280 HD
ATOM     85  H43 non d ame     -38.994  10.111  27.603  0.00  0.00     0.280 HD
ATOM     86  H44 non d ame     -36.786   9.904  28.749  0.00  0.00     0.129 H 
ATOM     87  H37 non d ame     -36.970   9.162  30.185  0.00  0.00     0.046 H 
BRANCH  83  88
ATOM     88  O6  non d ame     -36.457   8.327  27.538  0.00  0.00    -0.369 OA
ATOM     89  H45 non d ame     -36.488   7.385  27.717  0.00  0.00     0.212 HD
ENDBRANCH  83  88
ENDBRANCH  72  75
ENDBRANCH  47  72
ENDBRANCH  45  47
ENDBRANCH   1  43
BRANCH   1  90
ATOM     90  C16 non d ame     -33.104  11.602  31.013  0.00  0.00    -0.035 C 
ATOM     91  H21 non d ame     -33.982  12.195  30.761  0.00  0.00     0.037 H 
ATOM     92  H22 non d ame     -32.992  11.193  32.017  0.00  0.00     0.037 H 
BRANCH  90  93
ATOM     93  C17 non d ame     -31.867  12.525  30.772  0.00  0.00    -0.059 C 
ATOM     94  H23 non d ame     -31.692  13.089  31.688  0.00  0.00     0.038 H 
BRANCH  93  95
ATOM     95  C18 non d ame     -30.572  11.706  30.462  0.00  0.00    -0.073 C 
ATOM     96  H24 non d ame     -30.830  10.829  29.870  0.00  0.00     0.028 H 
ATOM     97  H25 non d ame     -29.874  12.329  29.903  0.00  0.00     0.028 H 
ATOM     98  H26 non d ame     -30.110  11.391  31.397  0.00  0.00     0.028 H 
ENDBRANCH  93  95
BRANCH  93  99
ATOM     99  C19 non d ame     -32.149  13.539  29.661  0.00  0.00    -0.073 C 
ATOM    100  H27 non d ame     -32.680  13.047  28.845  0.00  0.00     0.028 H 
ATOM    101  H28 non d ame     -32.761  14.350  30.055  0.00  0.00     0.028 H 
ATOM    102  H29 non d ame     -31.207  13.944  29.290  0.00  0.00     0.028 H 
ENDBRANCH  93  99
ENDBRANCH  90  93
ENDBRANCH   1  90
TORSDOF 26
ENDMDL
MODEL 6
REMARK VINA RESULT:      -6.3      2.486      7.802
REMARK  26 active torsions:
REMARK  status: ('A' for Active; 'I' for Inactive)
REMARK    1  A    between atoms: C2_2  and  C3_3 
REMARK    2  A    between atoms: C4_6  and  C5_7 
REMARK       I    between atoms: C5_7  and  N2_9 
REMARK    3  A    between atoms: N2_9  and  C6_10 
REMARK    4  A    between atoms: C6_10  and  C7_11 
REMARK    5  A    between atoms: C6_10  and  C8_13 
REMARK       I    between atoms: C7_11  and  N3_14 
REMARK    6  A    between atoms: N3_14  and  C9_15 
REMARK    7  A    between atoms: C9_15  and  C10_16 
REMARK    8  A    between atoms: C9_15  and  C11_18 
REMARK       I    between atoms: C10_16  and  N4_21 
REMARK    9  A    between atoms: C11_18  and  C12_19 
REMARK   10  A    between atoms: C11_18  and  C13_20 
REMARK   11  A    between atoms: N4_21  and  C14_22 
REMARK   12  A    between atoms: C14_22  and  C15_23 
REMARK   13  A    between atoms: C14_22  and  C16_25 
REMARK       I    between atoms: C15_23  and  N6_40 
REMARK   14  A    between atoms: C16_25  and  C17_26 
REMARK   15  A    between atoms: C17_26  and  C18_27 
REMARK   16  A    between atoms: C17_26  and  C19_28 
REMARK   17  A    between atoms: C20_29  and  C21_30 
REMARK   18  A    between atoms: C20_29  and  C24_33 
REMARK   19  A    between atoms: C20_29  and  N6_40 
REMARK   20  A    between atoms: C21_30  and  C22_31 
REMARK   21  A    between atoms: C22_31  and  C23_32 
REMARK   22  A    between atoms: C23_32  and  O8_43 
REMARK   23  A    between atoms: C24_33  and  C25_34 
REMARK   24  A    between atoms: C28_38  and  O6_39 
REMARK   25  A    between atoms: C29_42  and  O8_43 
REMARK   26  A    between atoms: C29_42  and  C35_49 
ROOT
ATOM      1  C14 non d ame     -34.553   5.909  28.841  0.00  0.00     0.089 C 
ATOM      2  H20 non d ame     -34.147   5.626  29.812  0.00  0.00     0.087 H 
ENDROOT
BRANCH   1   3
ATOM      3  N4  non d ame     -34.879   7.326  28.898  0.00  0.00    -0.346 N 
ATOM      4  C10 non d ame     -34.981   8.032  30.226  0.00  0.00     0.241 C 
ATOM      5  O4  non d ame     -34.800   7.437  31.237  0.00  0.00    -0.271 OA
ATOM      6  H19 non d ame     -35.032   7.814  28.026  0.00  0.00     0.163 HD
BRANCH   4   7
ATOM      7  C9  non d ame     -35.314   9.500  30.266  0.00  0.00     0.092 C 
ATOM      8  H11 non d ame     -35.422   9.815  31.304  0.00  0.00     0.088 H 
BRANCH   7   9
ATOM      9  N3  non d ame     -34.204  10.269  29.694  0.00  0.00    -0.346 N 
ATOM     10  C7  non d ame     -33.328  11.022  30.558  0.00  0.00     0.240 C 
ATOM     11  O3  non d ame     -33.503  11.022  31.715  0.00  0.00    -0.271 OA
ATOM     12  H10 non d ame     -34.041  10.279  28.697  0.00  0.00     0.163 HD
BRANCH  10  13
ATOM     13  C6  non d ame     -32.151  11.841  29.943  0.00  0.00     0.086 C 
ATOM     14  H6  non d ame     -31.800  11.429  28.997  0.00  0.00     0.086 H 
BRANCH  13  15
ATOM     15  N2  non d ame     -32.611  13.191  29.663  0.00  0.00    -0.343 N 
ATOM     16  C5  non d ame     -31.840  14.041  28.753  0.00  0.00     0.273 C 
ATOM     17  O2  non d ame     -30.851  13.631  28.254  0.00  0.00    -0.266 OA
ATOM     18  H5  non d ame     -33.456  13.534  30.097  0.00  0.00     0.163 HD
BRANCH  16  19
ATOM     19  C4  non d ame     -32.315  15.470  28.448  0.00  0.00     0.154 A 
ATOM     20  C1  non d ame     -32.635  16.020  27.165  0.00  0.00    -0.017 A 
ATOM     21  C2  non d ame     -33.015  17.355  27.427  0.00  0.00     0.077 A 
ATOM     22  H1  non d ame     -32.597  15.525  26.195  0.00  0.00     0.091 H 
ATOM     23  O1  non d ame     -32.923  17.540  28.711  0.00  0.00    -0.218 OA
ATOM     24  N1  non d ame     -32.516  16.455  29.328  0.00  0.00    -0.123 NA
BRANCH  21  25
ATOM     25  C3  non d ame     -33.453  18.386  26.395  0.00  0.00    -0.029 C 
ATOM     26  H2  non d ame     -32.726  19.196  26.359  0.00  0.00     0.036 H 
ATOM     27  H3  non d ame     -33.518  17.913  25.415  0.00  0.00     0.036 H 
ATOM     28  H4  non d ame     -34.429  18.785  26.671  0.00  0.00     0.036 H 
ENDBRANCH  21  25
ENDBRANCH  16  19
ENDBRANCH  13  15
BRANCH  13  29
ATOM     29  C8  non d ame     -30.999  11.878  30.915  0.00  0.00    -0.049 C 
ATOM     30  H7  non d ame     -30.064  11.992  30.367  0.00  0.00     0.030 H 
ATOM     31  H8  non d ame     -31.126  12.719  31.596  0.00  0.00     0.030 H 
ATOM     32  H9  non d ame     -30.975  10.949  31.485  0.00  0.00     0.030 H 
ENDBRANCH  13  29
ENDBRANCH  10  13
ENDBRANCH   7   9
BRANCH   7  33
ATOM     33  C11 non d ame     -36.604   9.763  29.437  0.00  0.00    -0.033 C 
ATOM     34  H12 non d ame     -37.012   8.794  29.148  0.00  0.00     0.042 H 
BRANCH  33  35
ATOM     35  C12 non d ame     -37.689  10.493  30.288  0.00  0.00    -0.071 C 
ATOM     36  H13 non d ame     -37.893   9.916  31.190  0.00  0.00     0.028 H 
ATOM     37  H14 non d ame     -37.327  11.483  30.564  0.00  0.00     0.028 H 
ATOM     38  H15 non d ame     -38.604  10.590  29.705  0.00  0.00     0.028 H 
ENDBRANCH  33  35
BRANCH  33  39
ATOM     39  C13 non d ame     -36.279  10.557  28.131  0.00  0.00    -0.071 C 
ATOM     40  H16 non d ame     -35.411  11.195  28.301  0.00  0.00     0.028 H 
ATOM     41  H17 non d ame     -36.062   9.857  27.324  0.00  0.00     0.028 H 
ATOM     42  H18 non d ame     -37.135  11.173  27.857  0.00  0.00     0.028 H 
ENDBRANCH  33  39
ENDBRANCH   7  33
ENDBRANCH   4   7
ENDBRANCH   1   3
BRANCH   1  43
ATOM     43  C15 non d ame     -33.533   5.681  27.689  0.00  0.00     0.240 C 
ATOM     44  O5  non d ame     -32.538   5.063  27.894  0.00  0.00    -0.271 OA
ATOM     45  N6  non d ame     -33.800   6.226  26.327  0.00  0.00    -0.355 N 
ATOM     46  H46 non d ame     -34.644   6.748  26.140  0.00  0.00     0.162 HD
BRANCH  45  47
ATOM     47  C20 non d ame     -32.821   5.999  25.242  0.00  0.00     0.013 C 
ATOM     48  H30 non d ame     -32.050   5.329  25.621  0.00  0.00     0.072 H 
BRANCH  47  49
ATOM     49  C21 non d ame     -32.205   7.321  24.841  0.00  0.00    -0.038 C 
ATOM     50  H31 non d ame     -31.254   7.375  25.371  0.00  0.00     0.036 H 
ATOM     51  H32 non d ame     -32.223   7.335  23.751  0.00  0.00     0.036 H 
BRANCH  49  52
ATOM     52  C22 non d ame     -33.036   8.535  25.308  0.00  0.00     0.018 C 
ATOM     53  H33 non d ame     -33.032   9.234  24.472  0.00  0.00     0.048 H 
ATOM     54  H34 non d ame     -33.978   8.126  25.673  0.00  0.00     0.048 H 
BRANCH  52  55
ATOM     55  C23 non d ame     -32.409   9.300  26.507  0.00  0.00     0.259 C 
ATOM     56  O7  non d ame     -32.738   9.049  27.621  0.00  0.00    -0.265 OA
BRANCH  55  57
ATOM     57  O8  non d ame     -31.443  10.314  26.258  0.00  0.00    -0.317 OA
BRANCH  57  58
ATOM     58  C29 non d ame     -32.000  11.549  25.799  0.00  0.00     0.052 C 
ATOM     59  H47 non d ame     -33.025  11.319  25.507  0.00  0.00     0.082 H 
ATOM     60  H48 non d ame     -31.808  12.272  26.591  0.00  0.00     0.082 H 
BRANCH  58  61
ATOM     61  C35 non d ame     -31.215  11.987  24.534  0.00  0.00    -0.034 A 
ATOM     62  C30 non d ame     -30.689  11.029  23.674  0.00  0.00    -0.075 A 
ATOM     63  C31 non d ame     -29.983  11.423  22.537  0.00  0.00    -0.082 A 
ATOM     64  H49 non d ame     -30.828   9.970  23.890  0.00  0.00     0.084 H 
ATOM     65  C32 non d ame     -29.803  12.781  22.264  0.00  0.00    -0.083 A 
ATOM     66  H50 non d ame     -29.573  10.669  21.864  0.00  0.00     0.083 H 
ATOM     67  C33 non d ame     -30.328  13.734  23.127  0.00  0.00    -0.082 A 
ATOM     68  H51 non d ame     -29.254  13.098  21.378  0.00  0.00     0.083 H 
ATOM     69  C34 non d ame     -31.035  13.345  24.263  0.00  0.00    -0.075 A 
ATOM     70  H52 non d ame     -30.183  14.793  22.912  0.00  0.00     0.083 H 
ATOM     71  H53 non d ame     -31.445  14.099  24.935  0.00  0.00     0.084 H 
ENDBRANCH  58  61
ENDBRANCH  57  58
ENDBRANCH  55  57
ENDBRANCH  52  55
ENDBRANCH  49  52
ENDBRANCH  47  49
BRANCH  47  72
ATOM     72  C24 non d ame     -33.521   5.376  24.037  0.00  0.00    -0.039 C 
ATOM     73  H35 non d ame     -33.385   4.300  24.147  0.00  0.00     0.036 H 
ATOM     74  H36 non d ame     -34.525   5.800  24.033  0.00  0.00     0.036 H 
BRANCH  72  75
ATOM     75  C25 non d ame     -32.822   5.802  22.660  0.00  0.00    -0.001 C 
ATOM     76  C26 non d ame     -33.803   6.826  21.827  0.00  0.00    -0.035 C 
ATOM     77  C27 non d ame     -33.944   6.363  20.562  0.00  0.00     0.085 C 
ATOM     78  H38 non d ame     -34.815   6.783  22.229  0.00  0.00     0.036 H 
ATOM     79  H39 non d ame     -33.310   7.789  21.692  0.00  0.00     0.036 H 
ATOM     80  N5  non d ame     -33.418   4.948  20.549  0.00  0.00    -0.049 N 
ATOM     81  H40 non d ame     -35.019   6.345  20.378  0.00  0.00     0.075 H 
ATOM     82  H41 non d ame     -33.297   6.989  19.949  0.00  0.00     0.075 H 
ATOM     83  C28 non d ame     -32.582   4.772  21.918  0.00  0.00     0.193 C 
ATOM     84  H42 non d ame     -34.225   4.342  20.584  0.00  0.00     0.280 HD
ATOM     85  H43 non d ame     -32.777   4.890  19.770  0.00  0.00     0.280 HD
ATOM     86  H44 non d ame     -31.492   4.785  21.907  0.00  0.00     0.129 H 
ATOM     87  H37 non d ame     -31.786   6.113  22.801  0.00  0.00     0.046 H 
BRANCH  83  88
ATOM     88  O6  non d ame     -32.943   3.549  22.562  0.00  0.00    -0.369 OA
ATOM     89  H45 non d ame     -32.554   3.522  23.440  0.00  0.00     0.212 HD
ENDBRANCH  83  88
ENDBRANCH  72  75
ENDBRANCH  47  72
ENDBRANCH  45  47
ENDBRANCH   1  43
BRANCH   1  90
ATOM     90  C16 non d ame     -35.822   5.119  28.564  0.00  0.00    -0.035 C 
ATOM     91  H21 non d ame     -35.753   4.820  27.518  0.00  0.00     0.037 H 
ATOM     92  H22 non d ame     -35.867   4.361  29.346  0.00  0.00     0.037 H 
BRANCH  90  93
ATOM     93  C17 non d ame     -37.128   5.966  28.694  0.00  0.00    -0.059 C 
ATOM     94  H23 non d ame     -36.837   7.013  28.779  0.00  0.00     0.038 H 
BRANCH  93  95
ATOM     95  C18 non d ame     -38.048   5.828  27.438  0.00  0.00    -0.073 C 
ATOM     96  H24 non d ame     -39.083   6.013  27.724  0.00  0.00     0.028 H 
ATOM     97  H25 non d ame     -37.744   6.554  26.684  0.00  0.00     0.028 H 
ATOM     98  H26 non d ame     -37.957   4.822  27.030  0.00  0.00     0.028 H 
ENDBRANCH  93  95
BRANCH  93  99
ATOM     99  C19 non d ame     -37.891   5.601  29.970  0.00  0.00    -0.073 C 
ATOM    100  H27 non d ame     -38.932   5.391  29.724  0.00  0.00     0.028 H 
ATOM    101  H28 non d ame     -37.440   4.718  30.424  0.00  0.00     0.028 H 
ATOM    102  H29 non d ame     -37.844   6.433  30.672  0.00  0.00     0.028 H 
ENDBRANCH  93  99
ENDBRANCH  90  93
ENDBRANCH   1  90
TORSDOF 26
ENDMDL
MODEL 7
REMARK VINA RESULT:      -6.3      2.423      8.326
REMARK  26 active torsions:
REMARK  status: ('A' for Active; 'I' for Inactive)
REMARK    1  A    between atoms: C2_2  and  C3_3 
REMARK    2  A    between atoms: C4_6  and  C5_7 
REMARK       I    between atoms: C5_7  and  N2_9 
REMARK    3  A    between atoms: N2_9  and  C6_10 
REMARK    4  A    between atoms: C6_10  and  C7_11 
REMARK    5  A    between atoms: C6_10  and  C8_13 
REMARK       I    between atoms: C7_11  and  N3_14 
REMARK    6  A    between atoms: N3_14  and  C9_15 
REMARK    7  A    between atoms: C9_15  and  C10_16 
REMARK    8  A    between atoms: C9_15  and  C11_18 
REMARK       I    between atoms: C10_16  and  N4_21 
REMARK    9  A    between atoms: C11_18  and  C12_19 
REMARK   10  A    between atoms: C11_18  and  C13_20 
REMARK   11  A    between atoms: N4_21  and  C14_22 
REMARK   12  A    between atoms: C14_22  and  C15_23 
REMARK   13  A    between atoms: C14_22  and  C16_25 
REMARK       I    between atoms: C15_23  and  N6_40 
REMARK   14  A    between atoms: C16_25  and  C17_26 
REMARK   15  A    between atoms: C17_26  and  C18_27 
REMARK   16  A    between atoms: C17_26  and  C19_28 
REMARK   17  A    between atoms: C20_29  and  C21_30 
REMARK   18  A    between atoms: C20_29  and  C24_33 
REMARK   19  A    between atoms: C20_29  and  N6_40 
REMARK   20  A    between atoms: C21_30  and  C22_31 
REMARK   21  A    between atoms: C22_31  and  C23_32 
REMARK   22  A    between atoms: C23_32  and  O8_43 
REMARK   23  A    between atoms: C24_33  and  C25_34 
REMARK   24  A    between atoms: C28_38  and  O6_39 
REMARK   25  A    between atoms: C29_42  and  O8_43 
REMARK   26  A    between atoms: C29_42  and  C35_49 
ROOT
ATOM      1  C14 non d ame     -35.721   9.496  27.936  0.00  0.00     0.089 C 
ATOM      2  H20 non d ame     -35.766   9.018  28.915  0.00  0.00     0.087 H 
ENDROOT
BRANCH   1   3
ATOM      3  N4  non d ame     -34.746  10.573  28.018  0.00  0.00    -0.346 N 
ATOM      4  C10 non d ame     -33.381  10.321  28.607  0.00  0.00     0.241 C 
ATOM      5  O4  non d ame     -33.091   9.243  29.012  0.00  0.00    -0.271 OA
ATOM      6  H19 non d ame     -35.012  11.483  27.670  0.00  0.00     0.163 HD
BRANCH   4   7
ATOM      7  C9  non d ame     -32.382  11.445  28.679  0.00  0.00     0.092 C 
ATOM      8  H11 non d ame     -31.376  11.039  28.572  0.00  0.00     0.088 H 
BRANCH   7   9
ATOM      9  N3  non d ame     -32.599  12.365  27.557  0.00  0.00    -0.346 N 
ATOM     10  C7  non d ame     -31.761  12.282  26.386  0.00  0.00     0.240 C 
ATOM     11  O3  non d ame     -30.907  11.484  26.330  0.00  0.00    -0.271 OA
ATOM     12  H10 non d ame     -33.330  13.060  27.592  0.00  0.00     0.163 HD
BRANCH  10  13
ATOM     13  C6  non d ame     -31.995  13.266  25.197  0.00  0.00     0.086 C 
ATOM     14  H6  non d ame     -32.971  13.139  24.731  0.00  0.00     0.086 H 
BRANCH  13  15
ATOM     15  N2  non d ame     -31.946  14.630  25.697  0.00  0.00    -0.343 N 
ATOM     16  C5  non d ame     -33.033  15.556  25.371  0.00  0.00     0.273 C 
ATOM     17  O2  non d ame     -33.940  15.195  24.704  0.00  0.00    -0.266 OA
ATOM     18  H5  non d ame     -31.166  14.930  26.264  0.00  0.00     0.163 HD
BRANCH  16  19
ATOM     19  C4  non d ame     -32.996  17.000  25.894  0.00  0.00     0.154 A 
ATOM     20  C1  non d ame     -34.109  17.879  26.087  0.00  0.00    -0.017 A 
ATOM     21  C2  non d ame     -33.545  19.077  26.580  0.00  0.00     0.077 A 
ATOM     22  H1  non d ame     -35.164  17.678  25.898  0.00  0.00     0.091 H 
ATOM     23  O1  non d ame     -32.259  18.896  26.659  0.00  0.00    -0.218 OA
ATOM     24  N1  non d ame     -31.915  17.692  26.264  0.00  0.00    -0.123 NA
BRANCH  21  25
ATOM     25  C3  non d ame     -34.304  20.344  26.951  0.00  0.00    -0.029 C 
ATOM     26  H2  non d ame     -33.951  20.710  27.915  0.00  0.00     0.036 H 
ATOM     27  H3  non d ame     -34.134  21.105  26.190  0.00  0.00     0.036 H 
ATOM     28  H4  non d ame     -35.369  20.125  27.013  0.00  0.00     0.036 H 
ENDBRANCH  21  25
ENDBRANCH  16  19
ENDBRANCH  13  15
BRANCH  13  29
ATOM     29  C8  non d ame     -30.926  13.060  24.154  0.00  0.00    -0.049 C 
ATOM     30  H7  non d ame     -29.971  12.869  24.644  0.00  0.00     0.030 H 
ATOM     31  H8  non d ame     -31.189  12.207  23.528  0.00  0.00     0.030 H 
ATOM     32  H9  non d ame     -30.845  13.954  23.535  0.00  0.00     0.030 H 
ENDBRANCH  13  29
ENDBRANCH  10  13
ENDBRANCH   7   9
BRANCH   7  33
ATOM     33  C11 non d ame     -32.563  12.215  30.020  0.00  0.00    -0.033 C 
ATOM     34  H12 non d ame     -33.131  13.121  29.805  0.00  0.00     0.042 H 
BRANCH  33  35
ATOM     35  C12 non d ame     -33.385  11.379  31.049  0.00  0.00    -0.071 C 
ATOM     36  H13 non d ame     -33.642  10.414  30.610  0.00  0.00     0.028 H 
ATOM     37  H14 non d ame     -32.790  11.222  31.948  0.00  0.00     0.028 H 
ATOM     38  H15 non d ame     -34.299  11.915  31.306  0.00  0.00     0.028 H 
ENDBRANCH  33  35
BRANCH  33  39
ATOM     39  C13 non d ame     -31.181  12.642  30.611  0.00  0.00    -0.071 C 
ATOM     40  H16 non d ame     -30.381  12.268  29.972  0.00  0.00     0.028 H 
ATOM     41  H17 non d ame     -31.128  13.730  30.663  0.00  0.00     0.028 H 
ATOM     42  H18 non d ame     -31.071  12.226  31.613  0.00  0.00     0.028 H 
ENDBRANCH  33  39
ENDBRANCH   7  33
ENDBRANCH   4   7
ENDBRANCH   1   3
BRANCH   1  43
ATOM     43  C15 non d ame     -35.275   8.507  26.820  0.00  0.00     0.240 C 
ATOM     44  O5  non d ame     -35.507   8.756  25.682  0.00  0.00    -0.271 OA
ATOM     45  N6  non d ame     -34.550   7.253  27.172  0.00  0.00    -0.355 N 
ATOM     46  H46 non d ame     -34.342   7.033  28.135  0.00  0.00     0.162 HD
BRANCH  45  47
ATOM     47  C20 non d ame     -34.131   6.324  26.100  0.00  0.00     0.013 C 
ATOM     48  H30 non d ame     -34.773   6.497  25.236  0.00  0.00     0.072 H 
BRANCH  47  49
ATOM     49  C21 non d ame     -34.288   4.900  26.583  0.00  0.00    -0.038 C 
ATOM     50  H31 non d ame     -35.175   4.900  27.217  0.00  0.00     0.036 H 
ATOM     51  H32 non d ame     -34.258   4.280  25.687  0.00  0.00     0.036 H 
BRANCH  49  52
ATOM     52  C22 non d ame     -33.114   4.437  27.473  0.00  0.00     0.018 C 
ATOM     53  H33 non d ame     -32.916   3.405  27.187  0.00  0.00     0.048 H 
ATOM     54  H34 non d ame     -32.339   5.194  27.357  0.00  0.00     0.048 H 
BRANCH  52  55
ATOM     55  C23 non d ame     -33.455   4.401  28.989  0.00  0.00     0.259 C 
ATOM     56  O7  non d ame     -32.755   3.816  29.751  0.00  0.00    -0.265 OA
BRANCH  55  57
ATOM     57  O8  non d ame     -34.621   5.067  29.457  0.00  0.00    -0.317 OA
BRANCH  57  58
ATOM     58  C29 non d ame     -34.581   5.405  30.847  0.00  0.00     0.052 C 
ATOM     59  H47 non d ame     -34.883   4.502  31.378  0.00  0.00     0.082 H 
ATOM     60  H48 non d ame     -33.594   5.833  31.018  0.00  0.00     0.082 H 
BRANCH  58  61
ATOM     61  C35 non d ame     -35.645   6.505  31.103  0.00  0.00    -0.034 A 
ATOM     62  C30 non d ame     -35.246   7.796  31.436  0.00  0.00    -0.075 A 
ATOM     63  C31 non d ame     -36.201   8.784  31.667  0.00  0.00    -0.082 A 
ATOM     64  H49 non d ame     -34.185   8.033  31.517  0.00  0.00     0.084 H 
ATOM     65  C32 non d ame     -37.561   8.478  31.566  0.00  0.00    -0.083 A 
ATOM     66  H50 non d ame     -35.885   9.795  31.927  0.00  0.00     0.083 H 
ATOM     67  C33 non d ame     -37.954   7.188  31.237  0.00  0.00    -0.082 A 
ATOM     68  H51 non d ame     -38.314   9.245  31.744  0.00  0.00     0.083 H 
ATOM     69  C34 non d ame     -37.003   6.197  31.003  0.00  0.00    -0.075 A 
ATOM     70  H52 non d ame     -39.016   6.952  31.161  0.00  0.00     0.083 H 
ATOM     71  H53 non d ame     -37.320   5.187  30.744  0.00  0.00     0.084 H 
ENDBRANCH  58  61
ENDBRANCH  57  58
ENDBRANCH  55  57
ENDBRANCH  52  55
ENDBRANCH  49  52
ENDBRANCH  47  49
BRANCH  47  72
ATOM     72  C24 non d ame     -32.670   6.581  25.735  0.00  0.00    -0.039 C 
ATOM     73  H35 non d ame     -32.294   7.257  26.503  0.00  0.00     0.036 H 
ATOM     74  H36 non d ame     -32.224   5.594  25.612  0.00  0.00     0.036 H 
BRANCH  72  75
ATOM     75  C25 non d ame     -32.535   7.339  24.331  0.00  0.00    -0.001 C 
ATOM     76  C26 non d ame     -31.448   6.559  23.375  0.00  0.00    -0.035 C 
ATOM     77  C27 non d ame     -30.543   7.458  22.919  0.00  0.00     0.085 C 
ATOM     78  H38 non d ame     -30.847   5.874  23.974  0.00  0.00     0.036 H 
ATOM     79  H39 non d ame     -31.935   6.204  22.466  0.00  0.00     0.036 H 
ATOM     80  N5  non d ame     -30.720   8.715  23.735  0.00  0.00    -0.049 N 
ATOM     81  H40 non d ame     -29.567   7.025  23.138  0.00  0.00     0.075 H 
ATOM     82  H41 non d ame     -30.829   7.661  21.888  0.00  0.00     0.075 H 
ATOM     83  C28 non d ame     -32.136   8.557  24.493  0.00  0.00     0.193 C 
ATOM     84  H42 non d ame     -29.983   8.714  24.426  0.00  0.00     0.280 HD
ATOM     85  H43 non d ame     -30.791   9.476  23.075  0.00  0.00     0.280 HD
ATOM     86  H44 non d ame     -33.014   9.101  24.145  0.00  0.00     0.129 H 
ATOM     87  H37 non d ame     -33.505   7.571  23.891  0.00  0.00     0.046 H 
BRANCH  83  88
ATOM     88  O6  non d ame     -31.997   8.898  25.874  0.00  0.00    -0.369 OA
ATOM     89  H45 non d ame     -32.302   8.167  26.417  0.00  0.00     0.212 HD
ENDBRANCH  83  88
ENDBRANCH  72  75
ENDBRANCH  47  72
ENDBRANCH  45  47
ENDBRANCH   1  43
BRANCH   1  90
ATOM     90  C16 non d ame     -37.079  10.082  27.585  0.00  0.00    -0.035 C 
ATOM     91  H21 non d ame     -37.027  11.129  27.883  0.00  0.00     0.037 H 
ATOM     92  H22 non d ame     -37.246   9.820  26.540  0.00  0.00     0.037 H 
BRANCH  90  93
ATOM     93  C17 non d ame     -38.260   9.453  28.392  0.00  0.00    -0.059 C 
ATOM     94  H23 non d ame     -37.853   9.066  29.326  0.00  0.00     0.038 H 
BRANCH  93  95
ATOM     95  C18 non d ame     -39.356  10.508  28.750  0.00  0.00    -0.073 C 
ATOM     96  H24 non d ame     -38.952  11.511  28.620  0.00  0.00     0.028 H 
ATOM     97  H25 non d ame     -40.216  10.375  28.095  0.00  0.00     0.028 H 
ATOM     98  H26 non d ame     -39.665  10.372  29.786  0.00  0.00     0.028 H 
ENDBRANCH  93  95
BRANCH  93  99
ATOM     99  C19 non d ame     -38.869   8.270  27.636  0.00  0.00    -0.073 C 
ATOM    100  H27 non d ame     -38.083   7.559  27.378  0.00  0.00     0.028 H 
ATOM    101  H28 non d ame     -39.611   7.778  28.266  0.00  0.00     0.028 H 
ATOM    102  H29 non d ame     -39.348   8.628  26.725  0.00  0.00     0.028 H 
ENDBRANCH  93  99
ENDBRANCH  90  93
ENDBRANCH   1  90
TORSDOF 26
ENDMDL
MODEL 8
REMARK VINA RESULT:      -6.3      2.876      9.152
REMARK  26 active torsions:
REMARK  status: ('A' for Active; 'I' for Inactive)
REMARK    1  A    between atoms: C2_2  and  C3_3 
REMARK    2  A    between atoms: C4_6  and  C5_7 
REMARK       I    between atoms: C5_7  and  N2_9 
REMARK    3  A    between atoms: N2_9  and  C6_10 
REMARK    4  A    between atoms: C6_10  and  C7_11 
REMARK    5  A    between atoms: C6_10  and  C8_13 
REMARK       I    between atoms: C7_11  and  N3_14 
REMARK    6  A    between atoms: N3_14  and  C9_15 
REMARK    7  A    between atoms: C9_15  and  C10_16 
REMARK    8  A    between atoms: C9_15  and  C11_18 
REMARK       I    between atoms: C10_16  and  N4_21 
REMARK    9  A    between atoms: C11_18  and  C12_19 
REMARK   10  A    between atoms: C11_18  and  C13_20 
REMARK   11  A    between atoms: N4_21  and  C14_22 
REMARK   12  A    between atoms: C14_22  and  C15_23 
REMARK   13  A    between atoms: C14_22  and  C16_25 
REMARK       I    between atoms: C15_23  and  N6_40 
REMARK   14  A    between atoms: C16_25  and  C17_26 
REMARK   15  A    between atoms: C17_26  and  C18_27 
REMARK   16  A    between atoms: C17_26  and  C19_28 
REMARK   17  A    between atoms: C20_29  and  C21_30 
REMARK   18  A    between atoms: C20_29  and  C24_33 
REMARK   19  A    between atoms: C20_29  and  N6_40 
REMARK   20  A    between atoms: C21_30  and  C22_31 
REMARK   21  A    between atoms: C22_31  and  C23_32 
REMARK   22  A    between atoms: C23_32  and  O8_43 
REMARK   23  A    between atoms: C24_33  and  C25_34 
REMARK   24  A    between atoms: C28_38  and  O6_39 
REMARK   25  A    between atoms: C29_42  and  O8_43 
REMARK   26  A    between atoms: C29_42  and  C35_49 
ROOT
ATOM      1  C14 non d ame     -36.269  13.605  26.375  0.00  0.00     0.089 C 
ATOM      2  H20 non d ame     -37.020  13.525  27.161  0.00  0.00     0.087 H 
ENDROOT
BRANCH   1   3
ATOM      3  N4  non d ame     -35.978  15.018  26.188  0.00  0.00    -0.346 N 
ATOM      4  C10 non d ame     -36.956  16.066  26.657  0.00  0.00     0.241 C 
ATOM      5  O4  non d ame     -37.972  15.747  27.180  0.00  0.00    -0.271 OA
ATOM      6  H19 non d ame     -35.108  15.269  25.738  0.00  0.00     0.163 HD
BRANCH   4   7
ATOM      7  C9  non d ame     -36.635  17.525  26.461  0.00  0.00     0.092 C 
ATOM      8  H11 non d ame     -36.866  18.069  27.377  0.00  0.00     0.088 H 
BRANCH   7   9
ATOM      9  N3  non d ame     -35.198  17.681  26.215  0.00  0.00    -0.346 N 
ATOM     10  C7  non d ame     -34.292  17.847  27.324  0.00  0.00     0.240 C 
ATOM     11  O3  non d ame     -34.701  17.859  28.420  0.00  0.00    -0.271 OA
ATOM     12  H10 non d ame     -34.831  17.674  25.274  0.00  0.00     0.163 HD
BRANCH  10  13
ATOM     13  C6  non d ame     -32.764  18.016  27.056  0.00  0.00     0.086 C 
ATOM     14  H6  non d ame     -32.147  17.509  27.797  0.00  0.00     0.086 H 
BRANCH  13  15
ATOM     15  N2  non d ame     -32.443  17.422  25.769  0.00  0.00    -0.343 N 
ATOM     16  C5  non d ame     -31.769  16.122  25.723  0.00  0.00     0.273 C 
ATOM     17  O2  non d ame     -31.487  15.565  26.727  0.00  0.00    -0.266 OA
ATOM     18  H5  non d ame     -32.685  17.906  24.916  0.00  0.00     0.163 HD
BRANCH  16  19
ATOM     19  C4  non d ame     -31.424  15.481  24.370  0.00  0.00     0.154 A 
ATOM     20  C1  non d ame     -31.343  16.134  23.099  0.00  0.00    -0.017 A 
ATOM     21  C2  non d ame     -30.997  15.112  22.187  0.00  0.00     0.077 A 
ATOM     22  H1  non d ame     -31.509  17.187  22.874  0.00  0.00     0.091 H 
ATOM     23  O1  non d ame     -30.893  14.007  22.865  0.00  0.00    -0.218 OA
ATOM     24  N1  non d ame     -31.138  14.196  24.141  0.00  0.00    -0.123 NA
BRANCH  21  25
ATOM     25  C3  non d ame     -30.784  15.276  20.688  0.00  0.00    -0.029 C 
ATOM     26  H2  non d ame     -31.750  15.346  20.189  0.00  0.00     0.036 H 
ATOM     27  H3  non d ame     -30.211  16.184  20.500  0.00  0.00     0.036 H 
ATOM     28  H4  non d ame     -30.237  14.416  20.302  0.00  0.00     0.036 H 
ENDBRANCH  21  25
ENDBRANCH  16  19
ENDBRANCH  13  15
BRANCH  13  29
ATOM     29  C8  non d ame     -32.411  19.482  27.050  0.00  0.00    -0.049 C 
ATOM     30  H7  non d ame     -32.639  19.907  26.072  0.00  0.00     0.030 H 
ATOM     31  H8  non d ame     -32.991  19.998  27.814  0.00  0.00     0.030 H 
ATOM     32  H9  non d ame     -31.348  19.601  27.258  0.00  0.00     0.030 H 
ENDBRANCH  13  29
ENDBRANCH  10  13
ENDBRANCH   7   9
BRANCH   7  33
ATOM     33  C11 non d ame     -37.430  18.070  25.239  0.00  0.00    -0.033 C 
ATOM     34  H12 non d ame     -38.467  18.198  25.551  0.00  0.00     0.042 H 
BRANCH  33  35
ATOM     35  C12 non d ame     -36.899  19.468  24.793  0.00  0.00    -0.071 C 
ATOM     36  H13 non d ame     -37.484  20.250  25.276  0.00  0.00     0.028 H 
ATOM     37  H14 non d ame     -35.852  19.567  25.080  0.00  0.00     0.028 H 
ATOM     38  H15 non d ame     -36.990  19.563  23.711  0.00  0.00     0.028 H 
ENDBRANCH  33  35
BRANCH  33  39
ATOM     39  C13 non d ame     -37.405  17.051  24.055  0.00  0.00    -0.071 C 
ATOM     40  H16 non d ame     -36.705  17.395  23.293  0.00  0.00     0.028 H 
ATOM     41  H17 non d ame     -37.091  16.074  24.423  0.00  0.00     0.028 H 
ATOM     42  H18 non d ame     -38.403  16.971  23.623  0.00  0.00     0.028 H 
ENDBRANCH  33  39
ENDBRANCH   7  33
ENDBRANCH   4   7
ENDBRANCH   1   3
BRANCH   1  43
ATOM     43  C15 non d ame     -34.949  12.872  26.747  0.00  0.00     0.240 C 
ATOM     44  O5  non d ame     -33.917  13.461  26.717  0.00  0.00    -0.271 OA
ATOM     45  N6  non d ame     -34.971  11.437  27.151  0.00  0.00    -0.355 N 
ATOM     46  H46 non d ame     -35.842  10.927  27.185  0.00  0.00     0.162 HD
BRANCH  45  47
ATOM     47  C20 non d ame     -33.708  10.755  27.504  0.00  0.00     0.013 C 
ATOM     48  H30 non d ame     -32.882  11.377  27.156  0.00  0.00     0.072 H 
BRANCH  47  49
ATOM     49  C21 non d ame     -33.660   9.406  26.822  0.00  0.00    -0.038 C 
ATOM     50  H31 non d ame     -34.693   9.172  26.560  0.00  0.00     0.036 H 
ATOM     51  H32 non d ame     -32.907   9.498  26.039  0.00  0.00     0.036 H 
BRANCH  49  52
ATOM     52  C22 non d ame     -33.180   8.277  27.759  0.00  0.00     0.018 C 
ATOM     53  H33 non d ame     -32.192   7.993  27.398  0.00  0.00     0.048 H 
ATOM     54  H34 non d ame     -33.300   8.663  28.772  0.00  0.00     0.048 H 
BRANCH  52  55
ATOM     55  C23 non d ame     -34.049   6.990  27.686  0.00  0.00     0.259 C 
ATOM     56  O7  non d ame     -34.243   6.452  26.645  0.00  0.00    -0.265 OA
BRANCH  55  57
ATOM     57  O8  non d ame     -34.622   6.468  28.879  0.00  0.00    -0.317 OA
BRANCH  57  58
ATOM     58  C29 non d ame     -36.043   6.613  28.954  0.00  0.00     0.052 C 
ATOM     59  H47 non d ame     -36.379   6.755  27.927  0.00  0.00     0.082 H 
ATOM     60  H48 non d ame     -36.396   5.759  29.531  0.00  0.00     0.082 H 
BRANCH  58  61
ATOM     61  C35 non d ame     -36.350   7.907  29.755  0.00  0.00    -0.034 A 
ATOM     62  C30 non d ame     -36.945   8.993  29.122  0.00  0.00    -0.075 A 
ATOM     63  C31 non d ame     -37.220  10.155  29.841  0.00  0.00    -0.082 A 
ATOM     64  H49 non d ame     -37.194   8.935  28.062  0.00  0.00     0.084 H 
ATOM     65  C32 non d ame     -36.896  10.230  31.198  0.00  0.00    -0.083 A 
ATOM     66  H50 non d ame     -37.688  11.005  29.342  0.00  0.00     0.083 H 
ATOM     67  C33 non d ame     -36.299   9.144  31.825  0.00  0.00    -0.082 A 
ATOM     68  H51 non d ame     -37.109  11.134  31.768  0.00  0.00     0.083 H 
ATOM     69  C34 non d ame     -36.024   7.980  31.111  0.00  0.00    -0.075 A 
ATOM     70  H52 non d ame     -36.046   9.206  32.883  0.00  0.00     0.083 H 
ATOM     71  H53 non d ame     -35.556   7.131  31.610  0.00  0.00     0.084 H 
ENDBRANCH  58  61
ENDBRANCH  57  58
ENDBRANCH  55  57
ENDBRANCH  52  55
ENDBRANCH  49  52
ENDBRANCH  47  49
BRANCH  47  72
ATOM     72  C24 non d ame     -33.628  10.564  29.017  0.00  0.00    -0.039 C 
ATOM     73  H35 non d ame     -34.663  10.544  29.361  0.00  0.00     0.036 H 
ATOM     74  H36 non d ame     -32.987   9.696  29.167  0.00  0.00     0.036 H 
BRANCH  72  75
ATOM     75  C25 non d ame     -32.916  11.807  29.734  0.00  0.00    -0.001 C 
ATOM     76  C26 non d ame     -31.537  12.202  28.930  0.00  0.00    -0.035 C 
ATOM     77  C27 non d ame     -30.517  12.268  29.820  0.00  0.00     0.085 C 
ATOM     78  H38 non d ame     -31.245  11.389  28.267  0.00  0.00     0.036 H 
ATOM     79  H39 non d ame     -31.606  13.220  28.547  0.00  0.00     0.036 H 
ATOM     80  N5  non d ame     -31.006  11.635  31.100  0.00  0.00    -0.049 N 
ATOM     81  H40 non d ame     -29.724  11.650  29.398  0.00  0.00     0.075 H 
ATOM     82  H41 non d ame     -30.348  13.330  29.991  0.00  0.00     0.075 H 
ATOM     83  C28 non d ame     -32.611  11.529  30.958  0.00  0.00     0.193 C 
ATOM     84  H42 non d ame     -30.623  10.701  31.122  0.00  0.00     0.280 HD
ATOM     85  H43 non d ame     -30.791  12.287  31.841  0.00  0.00     0.280 HD
ATOM     86  H44 non d ame     -33.261  12.226  31.487  0.00  0.00     0.129 H 
ATOM     87  H37 non d ame     -33.614  12.616  29.948  0.00  0.00     0.046 H 
BRANCH  83  88
ATOM     88  O6  non d ame     -33.055  10.226  31.341  0.00  0.00    -0.369 OA
ATOM     89  H45 non d ame     -32.300   9.696  31.608  0.00  0.00     0.212 HD
ENDBRANCH  83  88
ENDBRANCH  72  75
ENDBRANCH  47  72
ENDBRANCH  45  47
ENDBRANCH   1  43
BRANCH   1  90
ATOM     90  C16 non d ame     -36.821  13.036  25.077  0.00  0.00    -0.035 C 
ATOM     91  H21 non d ame     -36.754  13.849  24.354  0.00  0.00     0.037 H 
ATOM     92  H22 non d ame     -36.269  12.111  24.909  0.00  0.00     0.037 H 
BRANCH  90  93
ATOM     93  C17 non d ame     -38.330  12.641  25.157  0.00  0.00    -0.059 C 
ATOM     94  H23 non d ame     -38.474  11.758  24.535  0.00  0.00     0.038 H 
BRANCH  93  95
ATOM     95  C18 non d ame     -38.766  12.276  26.612  0.00  0.00    -0.073 C 
ATOM     96  H24 non d ame     -38.459  13.068  27.294  0.00  0.00     0.028 H 
ATOM     97  H25 non d ame     -39.850  12.166  26.649  0.00  0.00     0.028 H 
ATOM     98  H26 non d ame     -38.296  11.338  26.908  0.00  0.00     0.028 H 
ENDBRANCH  93  95
BRANCH  93  99
ATOM     99  C19 non d ame     -39.216  13.750  24.585  0.00  0.00    -0.073 C 
ATOM    100  H27 non d ame     -38.800  14.096  23.638  0.00  0.00     0.028 H 
ATOM    101  H28 non d ame     -40.222  13.363  24.420  0.00  0.00     0.028 H 
ATOM    102  H29 non d ame     -39.258  14.581  25.288  0.00  0.00     0.028 H 
ENDBRANCH  93  99
ENDBRANCH  90  93
ENDBRANCH   1  90
TORSDOF 26
ENDMDL
MODEL 9
REMARK VINA RESULT:      -6.2      2.738      5.623
REMARK  26 active torsions:
REMARK  status: ('A' for Active; 'I' for Inactive)
REMARK    1  A    between atoms: C2_2  and  C3_3 
REMARK    2  A    between atoms: C4_6  and  C5_7 
REMARK       I    between atoms: C5_7  and  N2_9 
REMARK    3  A    between atoms: N2_9  and  C6_10 
REMARK    4  A    between atoms: C6_10  and  C7_11 
REMARK    5  A    between atoms: C6_10  and  C8_13 
REMARK       I    between atoms: C7_11  and  N3_14 
REMARK    6  A    between atoms: N3_14  and  C9_15 
REMARK    7  A    between atoms: C9_15  and  C10_16 
REMARK    8  A    between atoms: C9_15  and  C11_18 
REMARK       I    between atoms: C10_16  and  N4_21 
REMARK    9  A    between atoms: C11_18  and  C12_19 
REMARK   10  A    between atoms: C11_18  and  C13_20 
REMARK   11  A    between atoms: N4_21  and  C14_22 
REMARK   12  A    between atoms: C14_22  and  C15_23 
REMARK   13  A    between atoms: C14_22  and  C16_25 
REMARK       I    between atoms: C15_23  and  N6_40 
REMARK   14  A    between atoms: C16_25  and  C17_26 
REMARK   15  A    between atoms: C17_26  and  C18_27 
REMARK   16  A    between atoms: C17_26  and  C19_28 
REMARK   17  A    between atoms: C20_29  and  C21_30 
REMARK   18  A    between atoms: C20_29  and  C24_33 
REMARK   19  A    between atoms: C20_29  and  N6_40 
REMARK   20  A    between atoms: C21_30  and  C22_31 
REMARK   21  A    between atoms: C22_31  and  C23_32 
REMARK   22  A    between atoms: C23_32  and  O8_43 
REMARK   23  A    between atoms: C24_33  and  C25_34 
REMARK   24  A    between atoms: C28_38  and  O6_39 
REMARK   25  A    between atoms: C29_42  and  O8_43 
REMARK   26  A    between atoms: C29_42  and  C35_49 
ROOT
ATOM      1  C14 non d ame     -34.791   8.918  29.809  0.00  0.00     0.089 C 
ATOM      2  H20 non d ame     -35.682   9.542  29.733  0.00  0.00     0.087 H 
ENDROOT
BRANCH   1   3
ATOM      3  N4  non d ame     -35.104   7.632  29.202  0.00  0.00    -0.346 N 
ATOM      4  C10 non d ame     -36.393   7.442  28.443  0.00  0.00     0.241 C 
ATOM      5  O4  non d ame     -37.164   8.338  28.336  0.00  0.00    -0.271 OA
ATOM      6  H19 non d ame     -34.435   6.882  29.307  0.00  0.00     0.163 HD
BRANCH   4   7
ATOM      7  C9  non d ame     -36.698   6.107  27.817  0.00  0.00     0.092 C 
ATOM      8  H11 non d ame     -37.012   6.258  26.784  0.00  0.00     0.088 H 
BRANCH   7   9
ATOM      9  N3  non d ame     -35.479   5.292  27.784  0.00  0.00    -0.346 N 
ATOM     10  C7  non d ame     -34.985   4.785  26.527  0.00  0.00     0.240 C 
ATOM     11  O3  non d ame     -35.556   5.021  25.534  0.00  0.00    -0.271 OA
ATOM     12  H10 non d ame     -34.977   5.078  28.634  0.00  0.00     0.163 HD
BRANCH  10  13
ATOM     13  C6  non d ame     -33.690   3.915  26.500  0.00  0.00     0.086 C 
ATOM     14  H6  non d ame     -32.806   4.485  26.213  0.00  0.00     0.086 H 
BRANCH  13  15
ATOM     15  N2  non d ame     -33.438   3.401  27.835  0.00  0.00    -0.343 N 
ATOM     16  C5  non d ame     -32.841   4.277  28.845  0.00  0.00     0.273 C 
ATOM     17  O2  non d ame     -32.563   5.393  28.572  0.00  0.00    -0.266 OA
ATOM     18  H5  non d ame     -33.676   2.445  28.060  0.00  0.00     0.163 HD
BRANCH  16  19
ATOM     19  C4  non d ame     -32.571   3.747  30.262  0.00  0.00     0.154 A 
ATOM     20  C1  non d ame     -31.811   2.589  30.622  0.00  0.00    -0.017 A 
ATOM     21  C2  non d ame     -31.866   2.542  32.033  0.00  0.00     0.077 A 
ATOM     22  H1  non d ame     -31.299   1.890  29.961  0.00  0.00     0.091 H 
ATOM     23  O1  non d ame     -32.575   3.559  32.427  0.00  0.00    -0.218 OA
ATOM     24  N1  non d ame     -32.998   4.277  31.412  0.00  0.00    -0.123 NA
BRANCH  21  25
ATOM     25  C3  non d ame     -31.215   1.495  32.926  0.00  0.00    -0.029 C 
ATOM     26  H2  non d ame     -30.727   1.987  33.767  0.00  0.00     0.036 H 
ATOM     27  H3  non d ame     -31.977   0.811  33.298  0.00  0.00     0.036 H 
ATOM     28  H4  non d ame     -30.475   0.937  32.352  0.00  0.00     0.036 H 
ENDBRANCH  21  25
ENDBRANCH  16  19
ENDBRANCH  13  15
BRANCH  13  29
ATOM     29  C8  non d ame     -33.868   2.774  25.531  0.00  0.00    -0.049 C 
ATOM     30  H7  non d ame     -34.930   2.554  25.421  0.00  0.00     0.030 H 
ATOM     31  H8  non d ame     -33.452   3.050  24.563  0.00  0.00     0.030 H 
ATOM     32  H9  non d ame     -33.352   1.891  25.911  0.00  0.00     0.030 H 
ENDBRANCH  13  29
ENDBRANCH  10  13
ENDBRANCH   7   9
BRANCH   7  33
ATOM     33  C11 non d ame     -37.785   5.376  28.658  0.00  0.00    -0.033 C 
ATOM     34  H12 non d ame     -38.722   5.916  28.524  0.00  0.00     0.042 H 
BRANCH  33  35
ATOM     35  C12 non d ame     -38.008   3.916  28.153  0.00  0.00    -0.071 C 
ATOM     36  H13 non d ame     -38.966   3.853  27.636  0.00  0.00     0.028 H 
ATOM     37  H14 non d ame     -37.207   3.642  27.467  0.00  0.00     0.028 H 
ATOM     38  H15 non d ame     -38.008   3.234  29.003  0.00  0.00     0.028 H 
ENDBRANCH  33  35
BRANCH  33  39
ATOM     39  C13 non d ame     -37.426   5.400  30.178  0.00  0.00    -0.071 C 
ATOM     40  H16 non d ame     -36.342   5.420  30.295  0.00  0.00     0.028 H 
ATOM     41  H17 non d ame     -37.858   6.289  30.639  0.00  0.00     0.028 H 
ATOM     42  H18 non d ame     -37.828   4.510  30.661  0.00  0.00     0.028 H 
ENDBRANCH  33  39
ENDBRANCH   7  33
ENDBRANCH   4   7
ENDBRANCH   1   3
BRANCH   1  43
ATOM     43  C15 non d ame     -33.575   9.536  29.060  0.00  0.00     0.240 C 
ATOM     44  O5  non d ame     -32.978   8.885  28.265  0.00  0.00    -0.271 OA
ATOM     45  N6  non d ame     -33.161  10.943  29.329  0.00  0.00    -0.355 N 
ATOM     46  H46 non d ame     -33.664  11.507  29.998  0.00  0.00     0.162 HD
BRANCH  45  47
ATOM     47  C20 non d ame     -32.004  11.516  28.608  0.00  0.00     0.013 C 
ATOM     48  H30 non d ame     -31.317  10.703  28.376  0.00  0.00     0.072 H 
BRANCH  47  49
ATOM     49  C21 non d ame     -31.321  12.535  29.491  0.00  0.00    -0.038 C 
ATOM     50  H31 non d ame     -31.112  12.020  30.429  0.00  0.00     0.036 H 
ATOM     51  H32 non d ame     -30.501  12.938  28.895  0.00  0.00     0.036 H 
BRANCH  49  52
ATOM     52  C22 non d ame     -32.233  13.731  29.843  0.00  0.00     0.018 C 
ATOM     53  H33 non d ame     -32.949  13.807  29.026  0.00  0.00     0.048 H 
ATOM     54  H34 non d ame     -32.583  13.546  30.859  0.00  0.00     0.048 H 
BRANCH  52  55
ATOM     55  C23 non d ame     -31.488  15.094  29.888  0.00  0.00     0.259 C 
ATOM     56  O7  non d ame     -30.354  15.151  30.239  0.00  0.00    -0.265 OA
BRANCH  55  57
ATOM     57  O8  non d ame     -32.182  16.279  29.517  0.00  0.00    -0.317 OA
BRANCH  57  58
ATOM     58  C29 non d ame     -32.936  16.158  28.308  0.00  0.00     0.052 C 
ATOM     59  H47 non d ame     -32.384  15.454  27.685  0.00  0.00     0.082 H 
ATOM     60  H48 non d ame     -33.955  15.929  28.617  0.00  0.00     0.082 H 
BRANCH  58  61
ATOM     61  C35 non d ame     -32.935  17.541  27.603  0.00  0.00    -0.034 A 
ATOM     62  C30 non d ame     -32.565  18.682  28.307  0.00  0.00    -0.075 A 
ATOM     63  C31 non d ame     -32.564  19.924  27.674  0.00  0.00    -0.082 A 
ATOM     64  H49 non d ame     -32.275  18.603  29.355  0.00  0.00     0.084 H 
ATOM     65  C32 non d ame     -32.939  20.023  26.332  0.00  0.00    -0.083 A 
ATOM     66  H50 non d ame     -32.272  20.816  28.229  0.00  0.00     0.083 H 
ATOM     67  C33 non d ame     -33.312  18.882  25.634  0.00  0.00    -0.082 A 
ATOM     68  H51 non d ame     -32.941  20.990  25.829  0.00  0.00     0.083 H 
ATOM     69  C34 non d ame     -33.311  17.639  26.262  0.00  0.00    -0.075 A 
ATOM     70  H52 non d ame     -33.606  18.963  24.587  0.00  0.00     0.083 H 
ATOM     71  H53 non d ame     -33.604  16.747  25.706  0.00  0.00     0.084 H 
ENDBRANCH  58  61
ENDBRANCH  57  58
ENDBRANCH  55  57
ENDBRANCH  52  55
ENDBRANCH  49  52
ENDBRANCH  47  49
BRANCH  47  72
ATOM     72  C24 non d ame     -32.480  12.191  27.323  0.00  0.00    -0.039 C 
ATOM     73  H35 non d ame     -33.109  11.454  26.823  0.00  0.00     0.036 H 
ATOM     74  H36 non d ame     -32.903  13.146  27.636  0.00  0.00     0.036 H 
BRANCH  72  75
ATOM     75  C25 non d ame     -31.259  12.516  26.338  0.00  0.00    -0.001 C 
ATOM     76  C26 non d ame     -31.092  14.144  26.171  0.00  0.00    -0.035 C 
ATOM     77  C27 non d ame     -31.053  14.445  24.851  0.00  0.00     0.085 C 
ATOM     78  H38 non d ame     -31.991  14.649  26.522  0.00  0.00     0.036 H 
ATOM     79  H39 non d ame     -30.113  14.458  26.533  0.00  0.00     0.036 H 
ATOM     80  N5  non d ame     -31.506  13.214  24.103  0.00  0.00    -0.049 N 
ATOM     81  H40 non d ame     -31.789  15.237  24.712  0.00  0.00     0.075 H 
ATOM     82  H41 non d ame     -30.004  14.631  24.625  0.00  0.00     0.075 H 
ATOM     83  C28 non d ame     -31.452  12.003  25.169  0.00  0.00     0.193 C 
ATOM     84  H42 non d ame     -32.470  13.374  23.847  0.00  0.00     0.280 HD
ATOM     85  H43 non d ame     -30.814  13.044  23.387  0.00  0.00     0.280 HD
ATOM     86  H44 non d ame     -30.642  11.273  25.137  0.00  0.00     0.129 H 
ATOM     87  H37 non d ame     -30.363  11.949  26.590  0.00  0.00     0.046 H 
BRANCH  83  88
ATOM     88  O6  non d ame     -32.658  11.239  25.109  0.00  0.00    -0.369 OA
ATOM     89  H45 non d ame     -32.756  10.731  25.918  0.00  0.00     0.212 HD
ENDBRANCH  83  88
ENDBRANCH  72  75
ENDBRANCH  47  72
ENDBRANCH  45  47
ENDBRANCH   1  43
BRANCH   1  90
ATOM     90  C16 non d ame     -34.435   8.703  31.271  0.00  0.00    -0.035 C 
ATOM     91  H21 non d ame     -34.490   7.625  31.426  0.00  0.00     0.037 H 
ATOM     92  H22 non d ame     -33.491   9.227  31.419  0.00  0.00     0.037 H 
BRANCH  90  93
ATOM     93  C17 non d ame     -35.456   9.343  32.265  0.00  0.00    -0.059 C 
ATOM     94  H23 non d ame     -35.365   8.819  33.216  0.00  0.00     0.038 H 
BRANCH  93  95
ATOM     95  C18 non d ame     -35.159  10.854  32.523  0.00  0.00    -0.073 C 
ATOM     96  H24 non d ame     -35.444  11.112  33.543  0.00  0.00     0.028 H 
ATOM     97  H25 non d ame     -34.094  11.044  32.386  0.00  0.00     0.028 H 
ATOM     98  H26 non d ame     -35.730  11.462  31.822  0.00  0.00     0.028 H 
ENDBRANCH  93  95
BRANCH  93  99
ATOM     99  C19 non d ame     -36.893   9.146  31.774  0.00  0.00    -0.073 C 
ATOM    100  H27 non d ame     -36.986   8.167  31.304  0.00  0.00     0.028 H 
ATOM    101  H28 non d ame     -37.578   9.210  32.620  0.00  0.00     0.028 H 
ATOM    102  H29 non d ame     -37.139   9.923  31.050  0.00  0.00     0.028 H 
ENDBRANCH  93  99
ENDBRANCH  90  93
ENDBRANCH   1  90
TORSDOF 26
ENDMDL
MODEL 10
REMARK VINA RESULT:      -6.2      2.445      6.649
REMARK  26 active torsions:
REMARK  status: ('A' for Active; 'I' for Inactive)
REMARK    1  A    between atoms: C2_2  and  C3_3 
REMARK    2  A    between atoms: C4_6  and  C5_7 
REMARK       I    between atoms: C5_7  and  N2_9 
REMARK    3  A    between atoms: N2_9  and  C6_10 
REMARK    4  A    between atoms: C6_10  and  C7_11 
REMARK    5  A    between atoms: C6_10  and  C8_13 
REMARK       I    between atoms: C7_11  and  N3_14 
REMARK    6  A    between atoms: N3_14  and  C9_15 
REMARK    7  A    between atoms: C9_15  and  C10_16 
REMARK    8  A    between atoms: C9_15  and  C11_18 
REMARK       I    between atoms: C10_16  and  N4_21 
REMARK    9  A    between atoms: C11_18  and  C12_19 
REMARK   10  A    between atoms: C11_18  and  C13_20 
REMARK   11  A    between atoms: N4_21  and  C14_22 
REMARK   12  A    between atoms: C14_22  and  C15_23 
REMARK   13  A    between atoms: C14_22  and  C16_25 
REMARK       I    between atoms: C15_23  and  N6_40 
REMARK   14  A    between atoms: C16_25  and  C17_26 
REMARK   15  A    between atoms: C17_26  and  C18_27 
REMARK   16  A    between atoms: C17_26  and  C19_28 
REMARK   17  A    between atoms: C20_29  and  C21_30 
REMARK   18  A    between atoms: C20_29  and  C24_33 
REMARK   19  A    between atoms: C20_29  and  N6_40 
REMARK   20  A    between atoms: C21_30  and  C22_31 
REMARK   21  A    between atoms: C22_31  and  C23_32 
REMARK   22  A    between atoms: C23_32  and  O8_43 
REMARK   23  A    between atoms: C24_33  and  C25_34 
REMARK   24  A    between atoms: C28_38  and  O6_39 
REMARK   25  A    between atoms: C29_42  and  O8_43 
REMARK   26  A    between atoms: C29_42  and  C35_49 
ROOT
ATOM      1  C14 non d ame     -32.976  11.984  28.733  0.00  0.00     0.089 C 
ATOM      2  H20 non d ame     -33.092  12.364  29.748  0.00  0.00     0.087 H 
ENDROOT
BRANCH   1   3
ATOM      3  N4  non d ame     -33.779  10.775  28.623  0.00  0.00    -0.346 N 
ATOM      4  C10 non d ame     -33.952   9.865  29.813  0.00  0.00     0.241 C 
ATOM      5  O4  non d ame     -33.432  10.125  30.847  0.00  0.00    -0.271 OA
ATOM      6  H19 non d ame     -34.211  10.571  27.733  0.00  0.00     0.163 HD
BRANCH   4   7
ATOM      7  C9  non d ame     -34.791   8.621  29.683  0.00  0.00     0.092 C 
ATOM      8  H11 non d ame     -35.651   8.833  29.047  0.00  0.00     0.088 H 
BRANCH   7   9
ATOM      9  N3  non d ame     -34.011   7.572  29.019  0.00  0.00    -0.346 N 
ATOM     10  C7  non d ame     -34.357   7.152  27.683  0.00  0.00     0.240 C 
ATOM     11  O3  non d ame     -35.260   7.648  27.128  0.00  0.00    -0.271 OA
ATOM     12  H10 non d ame     -33.230   7.134  29.487  0.00  0.00     0.163 HD
BRANCH  10  13
ATOM     13  C6  non d ame     -33.525   6.033  26.984  0.00  0.00     0.086 C 
ATOM     14  H6  non d ame     -34.130   5.403  26.332  0.00  0.00     0.086 H 
BRANCH  13  15
ATOM     15  N2  non d ame     -32.515   6.653  26.142  0.00  0.00    -0.343 N 
ATOM     16  C5  non d ame     -32.726   6.723  24.695  0.00  0.00     0.273 C 
ATOM     17  O2  non d ame     -33.710   6.276  24.217  0.00  0.00    -0.266 OA
ATOM     18  H5  non d ame     -31.675   7.030  26.559  0.00  0.00     0.163 HD
BRANCH  16  19
ATOM     19  C4  non d ame     -31.667   7.377  23.793  0.00  0.00     0.154 A 
ATOM     20  C1  non d ame     -31.487   8.774  23.545  0.00  0.00    -0.017 A 
ATOM     21  C2  non d ame     -30.391   8.847  22.656  0.00  0.00     0.077 A 
ATOM     22  H1  non d ame     -32.062   9.608  23.948  0.00  0.00     0.091 H 
ATOM     23  O1  non d ame     -29.995   7.629  22.428  0.00  0.00    -0.218 OA
ATOM     24  N1  non d ame     -30.725   6.753  23.080  0.00  0.00    -0.123 NA
BRANCH  21  25
ATOM     25  C3  non d ame     -29.785  10.117  22.074  0.00  0.00    -0.029 C 
ATOM     26  H2  non d ame     -29.268  10.667  22.861  0.00  0.00     0.036 H 
ATOM     27  H3  non d ame     -29.076   9.855  21.289  0.00  0.00     0.036 H 
ATOM     28  H4  non d ame     -30.576  10.739  21.656  0.00  0.00     0.036 H 
ENDBRANCH  21  25
ENDBRANCH  16  19
ENDBRANCH  13  15
BRANCH  13  29
ATOM     29  C8  non d ame     -32.867   5.166  28.027  0.00  0.00    -0.049 C 
ATOM     30  H7  non d ame     -33.546   4.362  28.312  0.00  0.00     0.030 H 
ATOM     31  H8  non d ame     -31.951   4.739  27.619  0.00  0.00     0.030 H 
ATOM     32  H9  non d ame     -32.629   5.769  28.904  0.00  0.00     0.030 H 
ENDBRANCH  13  29
ENDBRANCH  10  13
ENDBRANCH   7   9
BRANCH   7  33
ATOM     33  C11 non d ame     -35.215   8.131  31.098  0.00  0.00    -0.033 C 
ATOM     34  H12 non d ame     -34.495   8.529  31.813  0.00  0.00     0.042 H 
BRANCH  33  35
ATOM     35  C12 non d ame     -36.621   8.683  31.493  0.00  0.00    -0.071 C 
ATOM     36  H13 non d ame     -37.347   7.870  31.478  0.00  0.00     0.028 H 
ATOM     37  H14 non d ame     -36.575   9.111  32.493  0.00  0.00     0.028 H 
ATOM     38  H15 non d ame     -36.922   9.451  30.781  0.00  0.00     0.028 H 
ENDBRANCH  33  35
BRANCH  33  39
ATOM     39  C13 non d ame     -35.173   6.572  31.187  0.00  0.00    -0.071 C 
ATOM     40  H16 non d ame     -34.425   6.189  30.493  0.00  0.00     0.028 H 
ATOM     41  H17 non d ame     -34.914   6.273  32.203  0.00  0.00     0.028 H 
ATOM     42  H18 non d ame     -36.151   6.167  30.928  0.00  0.00     0.028 H 
ENDBRANCH  33  39
ENDBRANCH   7  33
ENDBRANCH   4   7
ENDBRANCH   1   3
BRANCH   1  43
ATOM     43  C15 non d ame     -33.466  13.003  27.664  0.00  0.00     0.240 C 
ATOM     44  O5  non d ame     -33.309  12.769  26.509  0.00  0.00    -0.271 OA
ATOM     45  N6  non d ame     -34.138  14.266  28.080  0.00  0.00    -0.355 N 
ATOM     46  H46 non d ame     -34.282  14.473  29.058  0.00  0.00     0.162 HD
BRANCH  45  47
ATOM     47  C20 non d ame     -34.600  15.224  27.052  0.00  0.00     0.013 C 
ATOM     48  H30 non d ame     -34.082  14.992  26.121  0.00  0.00     0.072 H 
BRANCH  47  49
ATOM     49  C21 non d ame     -34.264  16.631  27.493  0.00  0.00    -0.038 C 
ATOM     50  H31 non d ame     -34.952  17.281  26.952  0.00  0.00     0.036 H 
ATOM     51  H32 non d ame     -34.277  16.608  28.583  0.00  0.00     0.036 H 
BRANCH  49  52
ATOM     52  C22 non d ame     -32.840  17.063  27.082  0.00  0.00     0.018 C 
ATOM     53  H33 non d ame     -32.505  17.751  27.858  0.00  0.00     0.048 H 
ATOM     54  H34 non d ame     -32.291  16.139  26.900  0.00  0.00     0.048 H 
BRANCH  52  55
ATOM     55  C23 non d ame     -32.787  17.862  25.750  0.00  0.00     0.259 C 
ATOM     56  O7  non d ame     -33.263  18.949  25.680  0.00  0.00    -0.265 OA
BRANCH  55  57
ATOM     57  O8  non d ame     -32.175  17.275  24.609  0.00  0.00    -0.317 OA
BRANCH  57  58
ATOM     58  C29 non d ame     -32.185  15.844  24.614  0.00  0.00     0.052 C 
ATOM     59  H47 non d ame     -31.740  15.550  25.564  0.00  0.00     0.082 H 
ATOM     60  H48 non d ame     -33.209  15.556  24.380  0.00  0.00     0.082 H 
BRANCH  58  61
ATOM     61  C35 non d ame     -31.262  15.355  23.466  0.00  0.00    -0.034 A 
ATOM     62  C30 non d ame     -30.605  14.133  23.574  0.00  0.00    -0.075 A 
ATOM     63  C31 non d ame     -29.776  13.693  22.543  0.00  0.00    -0.082 A 
ATOM     64  H49 non d ame     -30.739  13.521  24.466  0.00  0.00     0.084 H 
ATOM     65  C32 non d ame     -29.604  14.481  21.402  0.00  0.00    -0.083 A 
ATOM     66  H50 non d ame     -29.263  12.735  22.630  0.00  0.00     0.083 H 
ATOM     67  C33 non d ame     -30.259  15.701  21.300  0.00  0.00    -0.082 A 
ATOM     68  H51 non d ame     -28.958  14.144  20.591  0.00  0.00     0.083 H 
ATOM     69  C34 non d ame     -31.090  16.143  22.327  0.00  0.00    -0.075 A 
ATOM     70  H52 non d ame     -30.121  16.314  20.409  0.00  0.00     0.083 H 
ATOM     71  H53 non d ame     -31.603  17.102  22.239  0.00  0.00     0.084 H 
ENDBRANCH  58  61
ENDBRANCH  57  58
ENDBRANCH  55  57
ENDBRANCH  52  55
ENDBRANCH  49  52
ENDBRANCH  47  49
BRANCH  47  72
ATOM     72  C24 non d ame     -36.110  15.095  26.866  0.00  0.00    -0.039 C 
ATOM     73  H35 non d ame     -36.460  14.521  27.725  0.00  0.00     0.036 H 
ATOM     74  H36 non d ame     -36.471  16.111  26.706  0.00  0.00     0.036 H 
BRANCH  72  75
ATOM     75  C25 non d ame     -36.476  14.251  25.554  0.00  0.00    -0.001 C 
ATOM     76  C26 non d ame     -37.634  15.035  24.690  0.00  0.00    -0.035 C 
ATOM     77  C27 non d ame     -38.642  14.169  24.425  0.00  0.00     0.085 C 
ATOM     78  H38 non d ame     -38.109  15.798  25.306  0.00  0.00     0.036 H 
ATOM     79  H39 non d ame     -37.254  15.292  23.701  0.00  0.00     0.036 H 
ATOM     80  N5  non d ame     -38.430  12.963  25.307  0.00  0.00    -0.049 N 
ATOM     81  H40 non d ame     -39.554  14.681  24.735  0.00  0.00     0.075 H 
ATOM     82  H41 non d ame     -38.509  13.877  23.384  0.00  0.00     0.075 H 
ATOM     83  C28 non d ame     -36.918  13.078  25.861  0.00  0.00     0.193 C 
ATOM     84  H42 non d ame     -39.066  13.061  26.085  0.00  0.00     0.280 HD
ATOM     85  H43 non d ame     -38.491  12.154  24.704  0.00  0.00     0.280 HD
ATOM     86  H44 non d ame     -36.127  12.453  25.446  0.00  0.00     0.129 H 
ATOM     87  H37 non d ame     -35.588  13.925  25.012  0.00  0.00     0.046 H 
BRANCH  83  88
ATOM     88  O6  non d ame     -36.890  12.843  27.270  0.00  0.00    -0.369 OA
ATOM     89  H45 non d ame     -36.706  11.915  27.436  0.00  0.00     0.212 HD
ENDBRANCH  83  88
ENDBRANCH  72  75
ENDBRANCH  47  72
ENDBRANCH  45  47
ENDBRANCH   1  43
BRANCH   1  90
ATOM     90  C16 non d ame     -31.518  11.636  28.477  0.00  0.00    -0.035 C 
ATOM     91  H21 non d ame     -31.396  10.618  28.845  0.00  0.00     0.037 H 
ATOM     92  H22 non d ame     -31.349  11.859  27.423  0.00  0.00     0.037 H 
BRANCH  90  93
ATOM     93  C17 non d ame     -30.513  12.519  29.282  0.00  0.00    -0.059 C 
ATOM     94  H23 non d ame     -29.535  12.041  29.228  0.00  0.00     0.038 H 
BRANCH  93  95
ATOM     95  C18 non d ame     -30.375  13.954  28.679  0.00  0.00    -0.073 C 
ATOM     96  H24 non d ame     -30.719  14.689  29.407  0.00  0.00     0.028 H 
ATOM     97  H25 non d ame     -29.331  14.147  28.434  0.00  0.00     0.028 H 
ATOM     98  H26 non d ame     -30.980  14.028  27.775  0.00  0.00     0.028 H 
ENDBRANCH  93  95
BRANCH  93  99
ATOM     99  C19 non d ame     -30.905  12.585  30.760  0.00  0.00    -0.073 C 
ATOM    100  H27 non d ame     -30.005  12.639  31.373  0.00  0.00     0.028 H 
ATOM    101  H28 non d ame     -31.517  13.470  30.935  0.00  0.00     0.028 H 
ATOM    102  H29 non d ame     -31.473  11.694  31.026  0.00  0.00     0.028 H 
ENDBRANCH  93  99
ENDBRANCH  90  93
ENDBRANCH   1  90
TORSDOF 26
ENDMDL
MODEL 11
REMARK VINA RESULT:      -6.1      2.207      9.657
REMARK  26 active torsions:
REMARK  status: ('A' for Active; 'I' for Inactive)
REMARK    1  A    between atoms: C2_2  and  C3_3 
REMARK    2  A    between atoms: C4_6  and  C5_7 
REMARK       I    between atoms: C5_7  and  N2_9 
REMARK    3  A    between atoms: N2_9  and  C6_10 
REMARK    4  A    between atoms: C6_10  and  C7_11 
REMARK    5  A    between atoms: C6_10  and  C8_13 
REMARK       I    between atoms: C7_11  and  N3_14 
REMARK    6  A    between atoms: N3_14  and  C9_15 
REMARK    7  A    between atoms: C9_15  and  C10_16 
REMARK    8  A    between atoms: C9_15  and  C11_18 
REMARK       I    between atoms: C10_16  and  N4_21 
REMARK    9  A    between atoms: C11_18  and  C12_19 
REMARK   10  A    between atoms: C11_18  and  C13_20 
REMARK   11  A    between atoms: N4_21  and  C14_22 
REMARK   12  A    between atoms: C14_22  and  C15_23 
REMARK   13  A    between atoms: C14_22  and  C16_25 
REMARK       I    between atoms: C15_23  and  N6_40 
REMARK   14  A    between atoms: C16_25  and  C17_26 
REMARK   15  A    between atoms: C17_26  and  C18_27 
REMARK   16  A    between atoms: C17_26  and  C19_28 
REMARK   17  A    between atoms: C20_29  and  C21_30 
REMARK   18  A    between atoms: C20_29  and  C24_33 
REMARK   19  A    between atoms: C20_29  and  N6_40 
REMARK   20  A    between atoms: C21_30  and  C22_31 
REMARK   21  A    between atoms: C22_31  and  C23_32 
REMARK   22  A    between atoms: C23_32  and  O8_43 
REMARK   23  A    between atoms: C24_33  and  C25_34 
REMARK   24  A    between atoms: C28_38  and  O6_39 
REMARK   25  A    between atoms: C29_42  and  O8_43 
REMARK   26  A    between atoms: C29_42  and  C35_49 
ROOT
ATOM      1  C14 non d ame     -34.928   8.335  31.244  0.00  0.00     0.089 C 
ATOM      2  H20 non d ame     -34.488   8.333  32.242  0.00  0.00     0.087 H 
ENDROOT
BRANCH   1   3
ATOM      3  N4  non d ame     -34.013   9.044  30.363  0.00  0.00    -0.346 N 
ATOM      4  C10 non d ame     -33.457  10.388  30.763  0.00  0.00     0.241 C 
ATOM      5  O4  non d ame     -33.763  10.879  31.799  0.00  0.00    -0.271 OA
ATOM      6  H19 non d ame     -33.767   8.610  29.484  0.00  0.00     0.163 HD
BRANCH   4   7
ATOM      7  C9  non d ame     -32.507  11.105  29.841  0.00  0.00     0.092 C 
ATOM      8  H11 non d ame     -31.818  10.383  29.403  0.00  0.00     0.088 H 
BRANCH   7   9
ATOM      9  N3  non d ame     -33.259  11.710  28.737  0.00  0.00    -0.346 N 
ATOM     10  C7  non d ame     -33.263  11.081  27.439  0.00  0.00     0.240 C 
ATOM     11  O3  non d ame     -32.665  10.090  27.264  0.00  0.00    -0.271 OA
ATOM     12  H10 non d ame     -33.778  12.565  28.872  0.00  0.00     0.163 HD
BRANCH  10  13
ATOM     13  C6  non d ame     -34.063  11.731  26.267  0.00  0.00     0.086 C 
ATOM     14  H6  non d ame     -34.810  12.445  26.612  0.00  0.00     0.086 H 
BRANCH  13  15
ATOM     15  N2  non d ame     -33.141  12.469  25.419  0.00  0.00    -0.343 N 
ATOM     16  C5  non d ame     -32.766  13.837  25.781  0.00  0.00     0.273 C 
ATOM     17  O2  non d ame     -33.214  14.336  26.755  0.00  0.00    -0.266 OA
ATOM     18  H5  non d ame     -32.766  12.035  24.587  0.00  0.00     0.163 HD
BRANCH  16  19
ATOM     19  C4  non d ame     -31.792  14.629  24.895  0.00  0.00     0.154 A 
ATOM     20  C1  non d ame     -30.907  14.104  23.900  0.00  0.00    -0.017 A 
ATOM     21  C2  non d ame     -30.237  15.233  23.379  0.00  0.00     0.077 A 
ATOM     22  H1  non d ame     -30.773  13.064  23.602  0.00  0.00     0.091 H 
ATOM     23  O1  non d ame     -30.691  16.278  24.006  0.00  0.00    -0.218 OA
ATOM     24  N1  non d ame     -31.600  15.951  24.896  0.00  0.00    -0.123 NA
BRANCH  21  25
ATOM     25  C3  non d ame     -29.178  15.227  22.284  0.00  0.00    -0.029 C 
ATOM     26  H2  non d ame     -29.369  14.401  21.598  0.00  0.00     0.036 H 
ATOM     27  H3  non d ame     -29.216  16.169  21.737  0.00  0.00     0.036 H 
ATOM     28  H4  non d ame     -28.192  15.106  22.732  0.00  0.00     0.036 H 
ENDBRANCH  21  25
ENDBRANCH  16  19
ENDBRANCH  13  15
BRANCH  13  29
ATOM     29  C8  non d ame     -34.751  10.654  25.467  0.00  0.00    -0.049 C 
ATOM     30  H7  non d ame     -34.011   9.938  25.110  0.00  0.00     0.030 H 
ATOM     31  H8  non d ame     -35.478  10.142  26.098  0.00  0.00     0.030 H 
ATOM     32  H9  non d ame     -35.261  11.104  24.615  0.00  0.00     0.030 H 
ENDBRANCH  13  29
ENDBRANCH  10  13
ENDBRANCH   7   9
BRANCH   7  33
ATOM     33  C11 non d ame     -31.762  12.222  30.630  0.00  0.00    -0.033 C 
ATOM     34  H12 non d ame     -32.312  12.392  31.556  0.00  0.00     0.042 H 
BRANCH  33  35
ATOM     35  C12 non d ame     -30.317  11.777  31.017  0.00  0.00    -0.071 C 
ATOM     36  H13 non d ame     -30.079  10.840  30.515  0.00  0.00     0.028 H 
ATOM     37  H14 non d ame     -29.607  12.545  30.711  0.00  0.00     0.028 H 
ATOM     38  H15 non d ame     -30.258  11.636  32.096  0.00  0.00     0.028 H 
ENDBRANCH  33  35
BRANCH  33  39
ATOM     39  C13 non d ame     -31.747  13.561  29.824  0.00  0.00    -0.071 C 
ATOM     40  H16 non d ame     -32.220  14.346  30.415  0.00  0.00     0.028 H 
ATOM     41  H17 non d ame     -30.716  13.841  29.606  0.00  0.00     0.028 H 
ATOM     42  H18 non d ame     -32.292  13.429  28.890  0.00  0.00     0.028 H 
ENDBRANCH  33  39
ENDBRANCH   7  33
ENDBRANCH   4   7
ENDBRANCH   1   3
BRANCH   1  43
ATOM     43  C15 non d ame     -35.133   6.896  30.691  0.00  0.00     0.240 C 
ATOM     44  O5  non d ame     -35.843   6.136  31.267  0.00  0.00    -0.271 OA
ATOM     45  N6  non d ame     -34.452   6.467  29.436  0.00  0.00    -0.355 N 
ATOM     46  H46 non d ame     -33.850   7.104  28.935  0.00  0.00     0.162 HD
BRANCH  45  47
ATOM     47  C20 non d ame     -34.658   5.096  28.922  0.00  0.00     0.013 C 
ATOM     48  H30 non d ame     -35.014   4.478  29.747  0.00  0.00     0.072 H 
BRANCH  47  49
ATOM     49  C21 non d ame     -33.347   4.555  28.400  0.00  0.00    -0.038 C 
ATOM     50  H31 non d ame     -32.569   5.101  28.934  0.00  0.00     0.036 H 
ATOM     51  H32 non d ame     -33.416   3.471  28.496  0.00  0.00     0.036 H 
BRANCH  49  52
ATOM     52  C22 non d ame     -33.133   4.847  26.899  0.00  0.00     0.018 C 
ATOM     53  H33 non d ame     -32.625   3.971  26.496  0.00  0.00     0.048 H 
ATOM     54  H34 non d ame     -34.110   5.137  26.512  0.00  0.00     0.048 H 
BRANCH  52  55
ATOM     55  C23 non d ame     -32.190   6.052  26.623  0.00  0.00     0.259 C 
ATOM     56  O7  non d ame     -32.020   6.887  27.452  0.00  0.00    -0.265 OA
BRANCH  55  57
ATOM     57  O8  non d ame     -31.539   6.153  25.362  0.00  0.00    -0.317 OA
BRANCH  57  58
ATOM     58  C29 non d ame     -32.202   5.451  24.307  0.00  0.00     0.052 C 
ATOM     59  H47 non d ame     -31.456   4.778  23.886  0.00  0.00     0.082 H 
ATOM     60  H48 non d ame     -33.113   5.047  24.748  0.00  0.00     0.082 H 
BRANCH  58  61
ATOM     61  C35 non d ame     -32.600   6.485  23.220  0.00  0.00    -0.034 A 
ATOM     62  C30 non d ame     -32.286   6.248  21.885  0.00  0.00    -0.075 A 
ATOM     63  C31 non d ame     -32.643   7.176  20.908  0.00  0.00    -0.082 A 
ATOM     64  H49 non d ame     -31.761   5.334  21.605  0.00  0.00     0.084 H 
ATOM     65  C32 non d ame     -33.313   8.348  21.271  0.00  0.00    -0.083 A 
ATOM     66  H50 non d ame     -32.397   6.986  19.863  0.00  0.00     0.083 H 
ATOM     67  C33 non d ame     -33.621   8.582  22.604  0.00  0.00    -0.082 A 
ATOM     68  H51 non d ame     -33.596   9.078  20.513  0.00  0.00     0.083 H 
ATOM     69  C34 non d ame     -33.268   7.655  23.583  0.00  0.00    -0.075 A 
ATOM     70  H52 non d ame     -34.142   9.498  22.884  0.00  0.00     0.083 H 
ATOM     71  H53 non d ame     -33.514   7.846  24.628  0.00  0.00     0.084 H 
ENDBRANCH  58  61
ENDBRANCH  57  58
ENDBRANCH  55  57
ENDBRANCH  52  55
ENDBRANCH  49  52
ENDBRANCH  47  49
BRANCH  47  72
ATOM     72  C24 non d ame     -35.687   5.117  27.793  0.00  0.00    -0.039 C 
ATOM     73  H35 non d ame     -35.757   6.160  27.484  0.00  0.00     0.036 H 
ATOM     74  H36 non d ame     -35.354   4.359  27.083  0.00  0.00     0.036 H 
BRANCH  72  75
ATOM     75  C25 non d ame     -37.139   4.678  28.307  0.00  0.00    -0.001 C 
ATOM     76  C26 non d ame     -37.557   3.234  27.638  0.00  0.00    -0.035 C 
ATOM     77  C27 non d ame     -38.785   3.352  27.079  0.00  0.00     0.085 C 
ATOM     78  H38 non d ame     -36.910   3.015  26.789  0.00  0.00     0.036 H 
ATOM     79  H39 non d ame     -37.703   2.489  28.420  0.00  0.00     0.036 H 
ATOM     80  N5  non d ame     -39.103   4.826  27.018  0.00  0.00    -0.049 N 
ATOM     81  H40 non d ame     -38.681   2.967  26.065  0.00  0.00     0.075 H 
ATOM     82  H41 non d ame     -39.470   2.869  27.776  0.00  0.00     0.075 H 
ATOM     83  C28 non d ame     -38.033   5.552  27.984  0.00  0.00     0.193 C 
ATOM     84  H42 non d ame     -38.928   5.117  26.067  0.00  0.00     0.280 HD
ATOM     85  H43 non d ame     -40.025   4.936  27.417  0.00  0.00     0.280 HD
ATOM     86  H44 non d ame     -38.330   5.906  28.971  0.00  0.00     0.129 H 
ATOM     87  H37 non d ame     -37.241   4.771  29.388  0.00  0.00     0.046 H 
BRANCH  83  88
ATOM     88  O6  non d ame     -37.465   6.686  27.326  0.00  0.00    -0.369 OA
ATOM     89  H45 non d ame     -36.900   6.390  26.609  0.00  0.00     0.212 HD
ENDBRANCH  83  88
ENDBRANCH  72  75
ENDBRANCH  47  72
ENDBRANCH  45  47
ENDBRANCH   1  43
BRANCH   1  90
ATOM     90  C16 non d ame     -36.260   9.067  31.270  0.00  0.00    -0.035 C 
ATOM     91  H21 non d ame     -36.854   8.560  32.030  0.00  0.00     0.037 H 
ATOM     92  H22 non d ame     -36.007  10.121  31.390  0.00  0.00     0.037 H 
BRANCH  90  93
ATOM     93  C17 non d ame     -37.063   8.955  29.935  0.00  0.00    -0.059 C 
ATOM     94  H23 non d ame     -36.570   8.207  29.315  0.00  0.00     0.038 H 
BRANCH  93  95
ATOM     95  C18 non d ame     -38.534   8.485  30.171  0.00  0.00    -0.073 C 
ATOM     96  H24 non d ame     -38.536   7.604  30.811  0.00  0.00     0.028 H 
ATOM     97  H25 non d ame     -39.098   9.284  30.651  0.00  0.00     0.028 H 
ATOM     98  H26 non d ame     -38.995   8.241  29.214  0.00  0.00     0.028 H 
ENDBRANCH  93  95
BRANCH  93  99
ATOM     99  C19 non d ame     -37.030  10.278  29.165  0.00  0.00    -0.073 C 
ATOM    100  H27 non d ame     -38.046  10.565  28.892  0.00  0.00     0.028 H 
ATOM    101  H28 non d ame     -36.589  11.053  29.792  0.00  0.00     0.028 H 
ATOM    102  H29 non d ame     -36.431  10.157  28.262  0.00  0.00     0.028 H 
ENDBRANCH  93  99
ENDBRANCH  90  93
ENDBRANCH   1  90
TORSDOF 26
ENDMDL
MODEL 12
REMARK VINA RESULT:      -6.1      3.230      8.507
REMARK  26 active torsions:
REMARK  status: ('A' for Active; 'I' for Inactive)
REMARK    1  A    between atoms: C2_2  and  C3_3 
REMARK    2  A    between atoms: C4_6  and  C5_7 
REMARK       I    between atoms: C5_7  and  N2_9 
REMARK    3  A    between atoms: N2_9  and  C6_10 
REMARK    4  A    between atoms: C6_10  and  C7_11 
REMARK    5  A    between atoms: C6_10  and  C8_13 
REMARK       I    between atoms: C7_11  and  N3_14 
REMARK    6  A    between atoms: N3_14  and  C9_15 
REMARK    7  A    between atoms: C9_15  and  C10_16 
REMARK    8  A    between atoms: C9_15  and  C11_18 
REMARK       I    between atoms: C10_16  and  N4_21 
REMARK    9  A    between atoms: C11_18  and  C12_19 
REMARK   10  A    between atoms: C11_18  and  C13_20 
REMARK   11  A    between atoms: N4_21  and  C14_22 
REMARK   12  A    between atoms: C14_22  and  C15_23 
REMARK   13  A    between atoms: C14_22  and  C16_25 
REMARK       I    between atoms: C15_23  and  N6_40 
REMARK   14  A    between atoms: C16_25  and  C17_26 
REMARK   15  A    between atoms: C17_26  and  C18_27 
REMARK   16  A    between atoms: C17_26  and  C19_28 
REMARK   17  A    between atoms: C20_29  and  C21_30 
REMARK   18  A    between atoms: C20_29  and  C24_33 
REMARK   19  A    between atoms: C20_29  and  N6_40 
REMARK   20  A    between atoms: C21_30  and  C22_31 
REMARK   21  A    between atoms: C22_31  and  C23_32 
REMARK   22  A    between atoms: C23_32  and  O8_43 
REMARK   23  A    between atoms: C24_33  and  C25_34 
REMARK   24  A    between atoms: C28_38  and  O6_39 
REMARK   25  A    between atoms: C29_42  and  O8_43 
REMARK   26  A    between atoms: C29_42  and  C35_49 
ROOT
ATOM      1  C14 non d ame     -33.107   9.434  27.691  0.00  0.00     0.089 C 
ATOM      2  H20 non d ame     -32.055   9.167  27.792  0.00  0.00     0.087 H 
ENDROOT
BRANCH   1   3
ATOM      3  N4  non d ame     -33.216  10.872  27.890  0.00  0.00    -0.346 N 
ATOM      4  C10 non d ame     -32.068  11.780  27.527  0.00  0.00     0.241 C 
ATOM      5  O4  non d ame     -31.065  11.330  27.079  0.00  0.00    -0.271 OA
ATOM      6  H19 non d ame     -34.077  11.234  28.275  0.00  0.00     0.163 HD
BRANCH   4   7
ATOM      7  C9  non d ame     -32.200  13.266  27.735  0.00  0.00     0.092 C 
ATOM      8  H11 non d ame     -31.757  13.787  26.886  0.00  0.00     0.088 H 
BRANCH   7   9
ATOM      9  N3  non d ame     -33.619  13.630  27.774  0.00  0.00    -0.346 N 
ATOM     10  C7  non d ame     -34.160  14.529  26.784  0.00  0.00     0.240 C 
ATOM     11  O3  non d ame     -33.466  14.970  25.950  0.00  0.00    -0.271 OA
ATOM     12  H10 non d ame     -34.229  13.259  28.488  0.00  0.00     0.163 HD
BRANCH  10  13
ATOM     13  C6  non d ame     -35.671  14.916  26.833  0.00  0.00     0.086 C 
ATOM     14  H6  non d ame     -35.973  15.314  27.801  0.00  0.00     0.086 H 
BRANCH  13  15
ATOM     15  N2  non d ame     -35.921  15.963  25.856  0.00  0.00    -0.343 N 
ATOM     16  C5  non d ame     -36.381  17.277  26.310  0.00  0.00     0.273 C 
ATOM     17  O2  non d ame     -36.550  17.481  27.462  0.00  0.00    -0.266 OA
ATOM     18  H5  non d ame     -35.777  15.779  24.873  0.00  0.00     0.163 HD
BRANCH  16  19
ATOM     19  C4  non d ame     -36.648  18.394  25.288  0.00  0.00     0.154 A 
ATOM     20  C1  non d ame     -37.702  18.448  24.322  0.00  0.00    -0.017 A 
ATOM     21  C2  non d ame     -37.506  19.668  23.637  0.00  0.00     0.077 A 
ATOM     22  H1  non d ame     -38.489  17.714  24.145  0.00  0.00     0.091 H 
ATOM     23  O1  non d ame     -36.460  20.240  24.158  0.00  0.00    -0.218 OA
ATOM     24  N1  non d ame     -35.942  19.516  25.123  0.00  0.00    -0.123 NA
BRANCH  21  25
ATOM     25  C3  non d ame     -38.361  20.211  22.501  0.00  0.00    -0.029 C 
ATOM     26  H2  non d ame     -37.743  20.347  21.613  0.00  0.00     0.036 H 
ATOM     27  H3  non d ame     -39.163  19.507  22.281  0.00  0.00     0.036 H 
ATOM     28  H4  non d ame     -38.790  21.169  22.795  0.00  0.00     0.036 H 
ENDBRANCH  21  25
ENDBRANCH  16  19
ENDBRANCH  13  15
BRANCH  13  29
ATOM     29  C8  non d ame     -36.512  13.705  26.519  0.00  0.00    -0.049 C 
ATOM     30  H7  non d ame     -35.882  12.815  26.518  0.00  0.00     0.030 H 
ATOM     31  H8  non d ame     -37.290  13.598  27.275  0.00  0.00     0.030 H 
ATOM     32  H9  non d ame     -36.973  13.826  25.539  0.00  0.00     0.030 H 
ENDBRANCH  13  29
ENDBRANCH  10  13
ENDBRANCH   7   9
BRANCH   7  33
ATOM     33  C11 non d ame     -31.528  13.663  29.082  0.00  0.00    -0.033 C 
ATOM     34  H12 non d ame     -30.451  13.553  28.957  0.00  0.00     0.042 H 
BRANCH  33  35
ATOM     35  C12 non d ame     -31.809  15.156  29.439  0.00  0.00    -0.071 C 
ATOM     36  H13 non d ame     -31.054  15.789  28.971  0.00  0.00     0.028 H 
ATOM     37  H14 non d ame     -32.796  15.437  29.074  0.00  0.00     0.028 H 
ATOM     38  H15 non d ame     -31.770  15.284  30.520  0.00  0.00     0.028 H 
ENDBRANCH  33  35
BRANCH  33  39
ATOM     39  C13 non d ame     -31.980  12.710  30.235  0.00  0.00    -0.071 C 
ATOM     40  H16 non d ame     -33.064  12.759  30.342  0.00  0.00     0.028 H 
ATOM     41  H17 non d ame     -31.684  11.688  29.999  0.00  0.00     0.028 H 
ATOM     42  H18 non d ame     -31.508  13.019  31.168  0.00  0.00     0.028 H 
ENDBRANCH  33  39
ENDBRANCH   7  33
ENDBRANCH   4   7
ENDBRANCH   1   3
BRANCH   1  43
ATOM     43  C15 non d ame     -33.670   9.085  26.284  0.00  0.00     0.240 C 
ATOM     44  O5  non d ame     -34.746   9.476  25.964  0.00  0.00    -0.271 OA
ATOM     45  N6  non d ame     -32.863   8.270  25.331  0.00  0.00    -0.355 N 
ATOM     46  H46 non d ame     -31.946   7.937  25.589  0.00  0.00     0.162 HD
BRANCH  45  47
ATOM     47  C20 non d ame     -33.412   7.948  23.996  0.00  0.00     0.013 C 
ATOM     48  H30 non d ame     -34.481   8.160  24.012  0.00  0.00     0.072 H 
BRANCH  47  49
ATOM     49  C21 non d ame     -33.180   6.484  23.700  0.00  0.00    -0.038 C 
ATOM     50  H31 non d ame     -34.168   6.025  23.690  0.00  0.00     0.036 H 
ATOM     51  H32 non d ame     -32.558   6.460  22.805  0.00  0.00     0.036 H 
BRANCH  49  52
ATOM     52  C22 non d ame     -32.377   5.769  24.808  0.00  0.00     0.018 C 
ATOM     53  H33 non d ame     -31.750   5.040  24.296  0.00  0.00     0.048 H 
ATOM     54  H34 non d ame     -31.919   6.562  25.400  0.00  0.00     0.048 H 
BRANCH  52  55
ATOM     55  C23 non d ame     -33.260   4.955  25.795  0.00  0.00     0.259 C 
ATOM     56  O7  non d ame     -33.488   3.806  25.594  0.00  0.00    -0.265 OA
BRANCH  55  57
ATOM     57  O8  non d ame     -33.806   5.602  26.938  0.00  0.00    -0.317 OA
BRANCH  57  58
ATOM     58  C29 non d ame     -33.598   4.894  28.163  0.00  0.00     0.052 C 
ATOM     59  H47 non d ame     -33.716   3.838  27.917  0.00  0.00     0.082 H 
ATOM     60  H48 non d ame     -32.651   5.259  28.558  0.00  0.00     0.082 H 
BRANCH  58  61
ATOM     61  C35 non d ame     -34.728   5.297  29.147  0.00  0.00    -0.034 A 
ATOM     62  C30 non d ame     -36.011   5.548  28.671  0.00  0.00    -0.075 A 
ATOM     63  C31 non d ame     -37.026   5.911  29.554  0.00  0.00    -0.082 A 
ATOM     64  H49 non d ame     -36.221   5.461  27.604  0.00  0.00     0.084 H 
ATOM     65  C32 non d ame     -36.754   6.026  30.920  0.00  0.00    -0.083 A 
ATOM     66  H50 non d ame     -38.031   6.105  29.178  0.00  0.00     0.083 H 
ATOM     67  C33 non d ame     -35.471   5.778  31.391  0.00  0.00    -0.082 A 
ATOM     68  H51 non d ame     -37.542   6.308  31.619  0.00  0.00     0.083 H 
ATOM     69  C34 non d ame     -34.454   5.413  30.511  0.00  0.00    -0.075 A 
ATOM     70  H52 non d ame     -35.262   5.870  32.457  0.00  0.00     0.083 H 
ATOM     71  H53 non d ame     -33.450   5.219  30.889  0.00  0.00     0.084 H 
ENDBRANCH  58  61
ENDBRANCH  57  58
ENDBRANCH  55  57
ENDBRANCH  52  55
ENDBRANCH  49  52
ENDBRANCH  47  49
BRANCH  47  72
ATOM     72  C24 non d ame     -32.719   8.799  22.933  0.00  0.00    -0.039 C 
ATOM     73  H35 non d ame     -32.694   8.180  22.036  0.00  0.00     0.036 H 
ATOM     74  H36 non d ame     -33.256   9.748  22.926  0.00  0.00     0.036 H 
BRANCH  72  75
ATOM     75  C25 non d ame     -31.200   9.120  23.329  0.00  0.00    -0.001 C 
ATOM     76  C26 non d ame     -31.000  10.741  23.515  0.00  0.00    -0.035 C 
ATOM     77  C27 non d ame     -29.939  11.138  22.773  0.00  0.00     0.085 C 
ATOM     78  H38 non d ame     -31.838  11.275  23.068  0.00  0.00     0.036 H 
ATOM     79  H39 non d ame     -30.694  10.965  24.537  0.00  0.00     0.036 H 
ATOM     80  N5  non d ame     -29.599   9.998  21.844  0.00  0.00    -0.049 N 
ATOM     81  H40 non d ame     -30.295  11.983  22.184  0.00  0.00     0.075 H 
ATOM     82  H41 non d ame     -29.122  11.274  23.481  0.00  0.00     0.075 H 
ATOM     83  C28 non d ame     -30.383   8.708  22.417  0.00  0.00     0.193 C 
ATOM     84  H42 non d ame     -29.989  10.237  20.943  0.00  0.00     0.280 HD
ATOM     85  H43 non d ame     -28.606   9.839  21.938  0.00  0.00     0.280 HD
ATOM     86  H44 non d ame     -29.847   7.934  22.966  0.00  0.00     0.129 H 
ATOM     87  H37 non d ame     -30.839   8.480  24.134  0.00  0.00     0.046 H 
BRANCH  83  88
ATOM     88  O6  non d ame     -31.056   8.029  21.357  0.00  0.00    -0.369 OA
ATOM     89  H45 non d ame     -31.595   8.655  20.866  0.00  0.00     0.212 HD
ENDBRANCH  83  88
ENDBRANCH  72  75
ENDBRANCH  47  72
ENDBRANCH  45  47
ENDBRANCH   1  43
BRANCH   1  90
ATOM     90  C16 non d ame     -33.923   8.722  28.759  0.00  0.00    -0.035 C 
ATOM     91  H21 non d ame     -34.597   8.061  28.214  0.00  0.00     0.037 H 
ATOM     92  H22 non d ame     -33.191   8.305  29.451  0.00  0.00     0.037 H 
BRANCH  90  93
ATOM     93  C17 non d ame     -34.828   9.680  29.598  0.00  0.00    -0.059 C 
ATOM     94  H23 non d ame     -34.506  10.701  29.396  0.00  0.00     0.038 H 
BRANCH  93  95
ATOM     95  C18 non d ame     -36.334   9.567  29.198  0.00  0.00    -0.073 C 
ATOM     96  H24 non d ame     -36.922  10.263  29.797  0.00  0.00     0.028 H 
ATOM     97  H25 non d ame     -36.449   9.811  28.142  0.00  0.00     0.028 H 
ATOM     98  H26 non d ame     -36.682   8.550  29.377  0.00  0.00     0.028 H 
ENDBRANCH  93  95
BRANCH  93  99
ATOM     99  C19 non d ame     -34.642   9.433  31.097  0.00  0.00    -0.073 C 
ATOM    100  H27 non d ame     -35.419   9.960  31.652  0.00  0.00     0.028 H 
ATOM    101  H28 non d ame     -34.713   8.364  31.302  0.00  0.00     0.028 H 
ATOM    102  H29 non d ame     -33.663   9.797  31.407  0.00  0.00     0.028 H 
ENDBRANCH  93  99
ENDBRANCH  90  93
ENDBRANCH   1  90
TORSDOF 26
ENDMDL
MODEL 13
REMARK VINA RESULT:      -6.1      3.271      8.215
REMARK  26 active torsions:
REMARK  status: ('A' for Active; 'I' for Inactive)
REMARK    1  A    between atoms: C2_2  and  C3_3 
REMARK    2  A    between atoms: C4_6  and  C5_7 
REMARK       I    between atoms: C5_7  and  N2_9 
REMARK    3  A    between atoms: N2_9  and  C6_10 
REMARK    4  A    between atoms: C6_10  and  C7_11 
REMARK    5  A    between atoms: C6_10  and  C8_13 
REMARK       I    between atoms: C7_11  and  N3_14 
REMARK    6  A    between atoms: N3_14  and  C9_15 
REMARK    7  A    between atoms: C9_15  and  C10_16 
REMARK    8  A    between atoms: C9_15  and  C11_18 
REMARK       I    between atoms: C10_16  and  N4_21 
REMARK    9  A    between atoms: C11_18  and  C12_19 
REMARK   10  A    between atoms: C11_18  and  C13_20 
REMARK   11  A    between atoms: N4_21  and  C14_22 
REMARK   12  A    between atoms: C14_22  and  C15_23 
REMARK   13  A    between atoms: C14_22  and  C16_25 
REMARK       I    between atoms: C15_23  and  N6_40 
REMARK   14  A    between atoms: C16_25  and  C17_26 
REMARK   15  A    between atoms: C17_26  and  C18_27 
REMARK   16  A    between atoms: C17_26  and  C19_28 
REMARK   17  A    between atoms: C20_29  and  C21_30 
REMARK   18  A    between atoms: C20_29  and  C24_33 
REMARK   19  A    between atoms: C20_29  and  N6_40 
REMARK   20  A    between atoms: C21_30  and  C22_31 
REMARK   21  A    between atoms: C22_31  and  C23_32 
REMARK   22  A    between atoms: C23_32  and  O8_43 
REMARK   23  A    between atoms: C24_33  and  C25_34 
REMARK   24  A    between atoms: C28_38  and  O6_39 
REMARK   25  A    between atoms: C29_42  and  O8_43 
REMARK   26  A    between atoms: C29_42  and  C35_49 
ROOT
ATOM      1  C14 non d ame     -36.524  16.266  26.574  0.00  0.00     0.089 C 
ATOM      2  H20 non d ame     -37.072  16.914  27.259  0.00  0.00     0.087 H 
ENDROOT
BRANCH   1   3
ATOM      3  N4  non d ame     -35.109  16.394  26.886  0.00  0.00    -0.346 N 
ATOM      4  C10 non d ame     -34.647  17.362  27.947  0.00  0.00     0.241 C 
ATOM      5  O4  non d ame     -35.434  18.029  28.534  0.00  0.00    -0.271 OA
ATOM      6  H19 non d ame     -34.455  15.819  26.374  0.00  0.00     0.163 HD
BRANCH   4   7
ATOM      7  C9  non d ame     -33.179  17.477  28.262  0.00  0.00     0.092 C 
ATOM      8  H11 non d ame     -33.057  17.967  29.228  0.00  0.00     0.088 H 
BRANCH   7   9
ATOM      9  N3  non d ame     -32.597  16.137  28.379  0.00  0.00    -0.346 N 
ATOM     10  C7  non d ame     -31.709  15.830  29.473  0.00  0.00     0.240 C 
ATOM     11  O3  non d ame     -31.450  16.651  30.267  0.00  0.00    -0.271 OA
ATOM     12  H10 non d ame     -32.810  15.419  27.701  0.00  0.00     0.163 HD
BRANCH  10  13
ATOM     13  C6  non d ame     -31.090  14.403  29.591  0.00  0.00     0.086 C 
ATOM     14  H6  non d ame     -30.387  14.315  30.419  0.00  0.00     0.086 H 
BRANCH  13  15
ATOM     15  N2  non d ame     -32.155  13.447  29.846  0.00  0.00    -0.343 N 
ATOM     16  C5  non d ame     -31.837  12.165  30.478  0.00  0.00     0.273 C 
ATOM     17  O2  non d ame     -30.721  11.910  30.774  0.00  0.00    -0.266 OA
ATOM     18  H5  non d ame     -33.105  13.672  29.588  0.00  0.00     0.163 HD
BRANCH  16  19
ATOM     19  C4  non d ame     -32.953  11.146  30.756  0.00  0.00     0.154 A 
ATOM     20  C1  non d ame     -33.374  10.072  29.909  0.00  0.00    -0.017 A 
ATOM     21  C2  non d ame     -34.420   9.439  30.616  0.00  0.00     0.077 A 
ATOM     22  H1  non d ame     -32.980   9.795  28.930  0.00  0.00     0.091 H 
ATOM     23  O1  non d ame     -34.573  10.081  31.737  0.00  0.00    -0.218 OA
ATOM     24  N1  non d ame     -33.729  11.081  31.842  0.00  0.00    -0.123 NA
BRANCH  21  25
ATOM     25  C3  non d ame     -35.220   8.229  30.152  0.00  0.00    -0.029 C 
ATOM     26  H2  non d ame     -34.814   7.866  29.208  0.00  0.00     0.036 H 
ATOM     27  H3  non d ame     -35.155   7.442  30.902  0.00  0.00     0.036 H 
ATOM     28  H4  non d ame     -36.263   8.514  30.014  0.00  0.00     0.036 H 
ENDBRANCH  21  25
ENDBRANCH  16  19
ENDBRANCH  13  15
BRANCH  13  29
ATOM     29  C8  non d ame     -30.379  14.053  28.308  0.00  0.00    -0.049 C 
ATOM     30  H7  non d ame     -29.454  14.626  28.237  0.00  0.00     0.030 H 
ATOM     31  H8  non d ame     -30.147  12.988  28.300  0.00  0.00     0.030 H 
ATOM     32  H9  non d ame     -31.021  14.292  27.460  0.00  0.00     0.030 H 
ENDBRANCH  13  29
ENDBRANCH  10  13
ENDBRANCH   7   9
BRANCH   7  33
ATOM     33  C11 non d ame     -32.463  18.252  27.117  0.00  0.00    -0.033 C 
ATOM     34  H12 non d ame     -31.401  18.293  27.362  0.00  0.00     0.042 H 
BRANCH  33  35
ATOM     35  C12 non d ame     -32.602  17.508  25.753  0.00  0.00    -0.071 C 
ATOM     36  H13 non d ame     -32.338  16.458  25.883  0.00  0.00     0.028 H 
ATOM     37  H14 non d ame     -33.630  17.583  25.401  0.00  0.00     0.028 H 
ATOM     38  H15 non d ame     -31.933  17.962  25.022  0.00  0.00     0.028 H 
ENDBRANCH  33  35
BRANCH  33  39
ATOM     39  C13 non d ame     -32.992  19.719  27.019  0.00  0.00    -0.071 C 
ATOM     40  H16 non d ame     -33.740  19.784  26.228  0.00  0.00     0.028 H 
ATOM     41  H17 non d ame     -33.442  20.008  27.969  0.00  0.00     0.028 H 
ATOM     42  H18 non d ame     -32.163  20.390  26.792  0.00  0.00     0.028 H 
ENDBRANCH  33  39
ENDBRANCH   7  33
ENDBRANCH   4   7
ENDBRANCH   1   3
BRANCH   1  43
ATOM     43  C15 non d ame     -36.932  14.773  26.725  0.00  0.00     0.240 C 
ATOM     44  O5  non d ame     -38.073  14.486  26.894  0.00  0.00    -0.271 OA
ATOM     45  N6  non d ame     -35.900  13.699  26.650  0.00  0.00    -0.355 N 
ATOM     46  H46 non d ame     -34.929  13.930  26.503  0.00  0.00     0.162 HD
BRANCH  45  47
ATOM     47  C20 non d ame     -36.304  12.284  26.795  0.00  0.00     0.013 C 
ATOM     48  H30 non d ame     -36.817  12.177  27.750  0.00  0.00     0.072 H 
BRANCH  47  49
ATOM     49  C21 non d ame     -35.072  11.408  26.769  0.00  0.00    -0.038 C 
ATOM     50  H31 non d ame     -35.106  10.824  27.690  0.00  0.00     0.036 H 
ATOM     51  H32 non d ame     -35.090  10.903  25.803  0.00  0.00     0.036 H 
BRANCH  49  52
ATOM     52  C22 non d ame     -33.759  12.219  26.815  0.00  0.00     0.018 C 
ATOM     53  H33 non d ame     -33.942  13.110  26.216  0.00  0.00     0.048 H 
ATOM     54  H34 non d ame     -33.507  12.313  27.871  0.00  0.00     0.048 H 
BRANCH  52  55
ATOM     55  C23 non d ame     -32.554  11.497  26.150  0.00  0.00     0.259 C 
ATOM     56  O7  non d ame     -32.527  10.311  26.076  0.00  0.00    -0.265 OA
BRANCH  55  57
ATOM     57  O8  non d ame     -31.474  12.269  25.641  0.00  0.00    -0.317 OA
BRANCH  57  58
ATOM     58  C29 non d ame     -31.027  11.862  24.344  0.00  0.00     0.052 C 
ATOM     59  H47 non d ame     -30.141  11.251  24.516  0.00  0.00     0.082 H 
ATOM     60  H48 non d ame     -31.899  11.431  23.854  0.00  0.00     0.082 H 
BRANCH  58  61
ATOM     61  C35 non d ame     -30.603  13.134  23.563  0.00  0.00    -0.034 A 
ATOM     62  C30 non d ame     -30.891  14.395  24.075  0.00  0.00    -0.075 A 
ATOM     63  C31 non d ame     -30.510  15.538  23.373  0.00  0.00    -0.082 A 
ATOM     64  H49 non d ame     -31.415  14.488  25.026  0.00  0.00     0.084 H 
ATOM     65  C32 non d ame     -29.840  15.416  22.152  0.00  0.00    -0.083 A 
ATOM     66  H50 non d ame     -30.736  16.525  23.778  0.00  0.00     0.083 H 
ATOM     67  C33 non d ame     -29.558  14.155  21.644  0.00  0.00    -0.082 A 
ATOM     68  H51 non d ame     -29.538  16.304  21.597  0.00  0.00     0.083 H 
ATOM     69  C34 non d ame     -29.935  13.011  22.343  0.00  0.00    -0.075 A 
ATOM     70  H52 non d ame     -29.037  14.064  20.690  0.00  0.00     0.083 H 
ATOM     71  H53 non d ame     -29.709  12.024  21.937  0.00  0.00     0.084 H 
ENDBRANCH  58  61
ENDBRANCH  57  58
ENDBRANCH  55  57
ENDBRANCH  52  55
ENDBRANCH  49  52
ENDBRANCH  47  49
BRANCH  47  72
ATOM     72  C24 non d ame     -37.232  11.892  25.647  0.00  0.00    -0.039 C 
ATOM     73  H35 non d ame     -37.513  12.830  25.167  0.00  0.00     0.036 H 
ATOM     74  H36 non d ame     -36.691  11.132  25.083  0.00  0.00     0.036 H 
BRANCH  72  75
ATOM     75  C25 non d ame     -38.581  11.213  26.181  0.00  0.00    -0.001 C 
ATOM     76  C26 non d ame     -38.363  10.665  27.716  0.00  0.00    -0.035 C 
ATOM     77  C27 non d ame     -38.758   9.371  27.778  0.00  0.00     0.085 C 
ATOM     78  H38 non d ame     -37.299  10.618  27.948  0.00  0.00     0.036 H 
ATOM     79  H39 non d ame     -39.047  11.174  28.396  0.00  0.00     0.036 H 
ATOM     80  N5  non d ame     -38.919   8.890  26.356  0.00  0.00    -0.049 N 
ATOM     81  H40 non d ame     -37.931   8.836  28.244  0.00  0.00     0.075 H 
ATOM     82  H41 non d ame     -39.736   9.388  28.259  0.00  0.00     0.075 H 
ATOM     83  C28 non d ame     -38.930  10.217  25.437  0.00  0.00     0.193 C 
ATOM     84  H42 non d ame     -38.089   8.356  26.140  0.00  0.00     0.280 HD
ATOM     85  H43 non d ame     -39.828   8.454  26.304  0.00  0.00     0.280 HD
ATOM     86  H44 non d ame     -39.865  10.596  25.023  0.00  0.00     0.129 H 
ATOM     87  H37 non d ame     -39.458  11.835  25.996  0.00  0.00     0.046 H 
BRANCH  83  88
ATOM     88  O6  non d ame     -38.058  10.049  24.318  0.00  0.00    -0.369 OA
ATOM     89  H45 non d ame     -37.776   9.132  24.267  0.00  0.00     0.212 HD
ENDBRANCH  83  88
ENDBRANCH  72  75
ENDBRANCH  47  72
ENDBRANCH  45  47
ENDBRANCH   1  43
BRANCH   1  90
ATOM     90  C16 non d ame     -36.758  16.718  25.141  0.00  0.00    -0.035 C 
ATOM     91  H21 non d ame     -35.772  16.737  24.679  0.00  0.00     0.037 H 
ATOM     92  H22 non d ame     -37.529  16.053  24.751  0.00  0.00     0.037 H 
BRANCH  90  93
ATOM     93  C17 non d ame     -37.327  18.168  25.026  0.00  0.00    -0.059 C 
ATOM     94  H23 non d ame     -37.867  18.238  24.081  0.00  0.00     0.038 H 
BRANCH  93  95
ATOM     95  C18 non d ame     -38.332  18.500  26.175  0.00  0.00    -0.073 C 
ATOM     96  H24 non d ame     -38.431  17.637  26.832  0.00  0.00     0.028 H 
ATOM     97  H25 non d ame     -37.962  19.351  26.747  0.00  0.00     0.028 H 
ATOM     98  H26 non d ame     -39.304  18.744  25.748  0.00  0.00     0.028 H 
ENDBRANCH  93  95
BRANCH  93  99
ATOM     99  C19 non d ame     -36.194  19.197  24.979  0.00  0.00    -0.073 C 
ATOM    100  H27 non d ame     -36.509  20.107  25.490  0.00  0.00     0.028 H 
ATOM    101  H28 non d ame     -35.312  18.790  25.473  0.00  0.00     0.028 H 
ATOM    102  H29 non d ame     -35.955  19.427  23.941  0.00  0.00     0.028 H 
ENDBRANCH  93  99
ENDBRANCH  90  93
ENDBRANCH   1  90
TORSDOF 26
ENDMDL
MODEL 14
REMARK VINA RESULT:      -6.0      3.191      8.878
REMARK  26 active torsions:
REMARK  status: ('A' for Active; 'I' for Inactive)
REMARK    1  A    between atoms: C2_2  and  C3_3 
REMARK    2  A    between atoms: C4_6  and  C5_7 
REMARK       I    between atoms: C5_7  and  N2_9 
REMARK    3  A    between atoms: N2_9  and  C6_10 
REMARK    4  A    between atoms: C6_10  and  C7_11 
REMARK    5  A    between atoms: C6_10  and  C8_13 
REMARK       I    between atoms: C7_11  and  N3_14 
REMARK    6  A    between atoms: N3_14  and  C9_15 
REMARK    7  A    between atoms: C9_15  and  C10_16 
REMARK    8  A    between atoms: C9_15  and  C11_18 
REMARK       I    between atoms: C10_16  and  N4_21 
REMARK    9  A    between atoms: C11_18  and  C12_19 
REMARK   10  A    between atoms: C11_18  and  C13_20 
REMARK   11  A    between atoms: N4_21  and  C14_22 
REMARK   12  A    between atoms: C14_22  and  C15_23 
REMARK   13  A    between atoms: C14_22  and  C16_25 
REMARK       I    between atoms: C15_23  and  N6_40 
REMARK   14  A    between atoms: C16_25  and  C17_26 
REMARK   15  A    between atoms: C17_26  and  C18_27 
REMARK   16  A    between atoms: C17_26  and  C19_28 
REMARK   17  A    between atoms: C20_29  and  C21_30 
REMARK   18  A    between atoms: C20_29  and  C24_33 
REMARK   19  A    between atoms: C20_29  and  N6_40 
REMARK   20  A    between atoms: C21_30  and  C22_31 
REMARK   21  A    between atoms: C22_31  and  C23_32 
REMARK   22  A    between atoms: C23_32  and  O8_43 
REMARK   23  A    between atoms: C24_33  and  C25_34 
REMARK   24  A    between atoms: C28_38  and  O6_39 
REMARK   25  A    between atoms: C29_42  and  O8_43 
REMARK   26  A    between atoms: C29_42  and  C35_49 
ROOT
ATOM      1  C14 non d ame     -31.438  12.285  26.854  0.00  0.00     0.089 C 
ATOM      2  H20 non d ame     -30.389  11.996  26.784  0.00  0.00     0.087 H 
ENDROOT
BRANCH   1   3
ATOM      3  N4  non d ame     -31.645  13.406  25.949  0.00  0.00    -0.346 N 
ATOM      4  C10 non d ame     -31.195  13.318  24.512  0.00  0.00     0.241 C 
ATOM      5  O4  non d ame     -30.666  12.335  24.108  0.00  0.00    -0.271 OA
ATOM      6  H19 non d ame     -32.095  14.234  26.313  0.00  0.00     0.163 HD
BRANCH   4   7
ATOM      7  C9  non d ame     -31.423  14.485  23.588  0.00  0.00     0.092 C 
ATOM      8  H11 non d ame     -32.410  14.396  23.135  0.00  0.00     0.088 H 
BRANCH   7   9
ATOM      9  N3  non d ame     -31.412  15.731  24.361  0.00  0.00    -0.346 N 
ATOM     10  C7  non d ame     -32.630  16.217  24.962  0.00  0.00     0.240 C 
ATOM     11  O3  non d ame     -33.628  15.619  24.831  0.00  0.00    -0.271 OA
ATOM     12  H10 non d ame     -30.559  16.258  24.481  0.00  0.00     0.163 HD
BRANCH  10  13
ATOM     13  C6  non d ame     -32.612  17.545  25.781  0.00  0.00     0.086 C 
ATOM     14  H6  non d ame     -31.942  18.292  25.358  0.00  0.00     0.086 H 
BRANCH  13  15
ATOM     15  N2  non d ame     -33.945  18.125  25.767  0.00  0.00    -0.343 N 
ATOM     16  C5  non d ame     -34.118  19.541  26.096  0.00  0.00     0.273 C 
ATOM     17  O2  non d ame     -33.180  20.205  26.373  0.00  0.00    -0.266 OA
ATOM     18  H5  non d ame     -34.741  17.550  25.532  0.00  0.00     0.163 HD
BRANCH  16  19
ATOM     19  C4  non d ame     -35.521  20.168  26.084  0.00  0.00     0.154 A 
ATOM     20  C1  non d ame     -36.595  19.866  25.188  0.00  0.00    -0.017 A 
ATOM     21  C2  non d ame     -37.655  20.707  25.595  0.00  0.00     0.077 A 
ATOM     22  H1  non d ame     -36.605  19.147  24.369  0.00  0.00     0.091 H 
ATOM     23  O1  non d ame     -37.230  21.404  26.607  0.00  0.00    -0.218 OA
ATOM     24  N1  non d ame     -35.987  21.108  26.911  0.00  0.00    -0.123 NA
BRANCH  21  25
ATOM     25  C3  non d ame     -39.040  20.780  24.966  0.00  0.00    -0.029 C 
ATOM     26  H2  non d ame     -38.994  20.411  23.942  0.00  0.00     0.036 H 
ATOM     27  H3  non d ame     -39.734  20.168  25.542  0.00  0.00     0.036 H 
ATOM     28  H4  non d ame     -39.384  21.815  24.964  0.00  0.00     0.036 H 
ENDBRANCH  21  25
ENDBRANCH  16  19
ENDBRANCH  13  15
BRANCH  13  29
ATOM     29  C8  non d ame     -32.188  17.258  27.199  0.00  0.00    -0.049 C 
ATOM     30  H7  non d ame     -31.807  18.171  27.656  0.00  0.00     0.030 H 
ATOM     31  H8  non d ame     -33.045  16.897  27.768  0.00  0.00     0.030 H 
ATOM     32  H9  non d ame     -31.406  16.498  27.198  0.00  0.00     0.030 H 
ENDBRANCH  13  29
ENDBRANCH  10  13
ENDBRANCH   7   9
BRANCH   7  33
ATOM     33  C11 non d ame     -30.290  14.530  22.521  0.00  0.00    -0.033 C 
ATOM     34  H12 non d ame     -29.973  13.504  22.335  0.00  0.00     0.042 H 
BRANCH  33  35
ATOM     35  C12 non d ame     -30.806  15.114  21.169  0.00  0.00    -0.071 C 
ATOM     36  H13 non d ame     -30.620  14.397  20.369  0.00  0.00     0.028 H 
ATOM     37  H14 non d ame     -31.876  15.308  21.241  0.00  0.00     0.028 H 
ATOM     38  H15 non d ame     -30.281  16.044  20.951  0.00  0.00     0.028 H 
ENDBRANCH  33  35
BRANCH  33  39
ATOM     39  C13 non d ame     -29.056  15.330  23.049  0.00  0.00    -0.071 C 
ATOM     40  H16 non d ame     -29.073  16.339  22.637  0.00  0.00     0.028 H 
ATOM     41  H17 non d ame     -29.094  15.381  24.138  0.00  0.00     0.028 H 
ATOM     42  H18 non d ame     -28.139  14.827  22.743  0.00  0.00     0.028 H 
ENDBRANCH  33  39
ENDBRANCH   7  33
ENDBRANCH   4   7
ENDBRANCH   1   3
BRANCH   1  43
ATOM     43  C15 non d ame     -32.393  11.130  26.439  0.00  0.00     0.240 C 
ATOM     44  O5  non d ame     -33.539  11.360  26.223  0.00  0.00    -0.271 OA
ATOM     45  N6  non d ame     -31.878   9.738  26.303  0.00  0.00    -0.355 N 
ATOM     46  H46 non d ame     -30.905   9.531  26.479  0.00  0.00     0.162 HD
BRANCH  45  47
ATOM     47  C20 non d ame     -32.799   8.651  25.906  0.00  0.00     0.013 C 
ATOM     48  H30 non d ame     -33.727   9.107  25.562  0.00  0.00     0.072 H 
BRANCH  47  49
ATOM     49  C21 non d ame     -33.070   7.765  27.100  0.00  0.00    -0.038 C 
ATOM     50  H31 non d ame     -33.593   6.893  26.707  0.00  0.00     0.036 H 
ATOM     51  H32 non d ame     -32.109   7.644  27.601  0.00  0.00     0.036 H 
BRANCH  49  52
ATOM     52  C22 non d ame     -34.019   8.418  28.128  0.00  0.00     0.018 C 
ATOM     53  H33 non d ame     -33.590   8.199  29.106  0.00  0.00     0.048 H 
ATOM     54  H34 non d ame     -34.139   9.452  27.804  0.00  0.00     0.048 H 
BRANCH  52  55
ATOM     55  C23 non d ame     -35.447   7.804  28.140  0.00  0.00     0.259 C 
ATOM     56  O7  non d ame     -36.398   8.487  27.938  0.00  0.00    -0.265 OA
BRANCH  55  57
ATOM     57  O8  non d ame     -35.607   6.417  28.409  0.00  0.00    -0.317 OA
BRANCH  57  58
ATOM     58  C29 non d ame     -35.666   6.097  29.802  0.00  0.00     0.052 C 
ATOM     59  H47 non d ame     -35.525   7.041  30.328  0.00  0.00     0.082 H 
ATOM     60  H48 non d ame     -36.587   5.530  29.936  0.00  0.00     0.082 H 
BRANCH  58  61
ATOM     61  C35 non d ame     -34.467   5.168  30.132  0.00  0.00    -0.034 A 
ATOM     62  C30 non d ame     -34.219   4.791  31.448  0.00  0.00    -0.075 A 
ATOM     63  C31 non d ame     -33.142   3.957  31.744  0.00  0.00    -0.082 A 
ATOM     64  H49 non d ame     -34.868   5.149  32.247  0.00  0.00     0.084 H 
ATOM     65  C32 non d ame     -32.309   3.502  30.718  0.00  0.00    -0.083 A 
ATOM     66  H50 non d ame     -32.951   3.662  32.776  0.00  0.00     0.083 H 
ATOM     67  C33 non d ame     -32.558   3.884  29.407  0.00  0.00    -0.082 A 
ATOM     68  H51 non d ame     -31.465   2.849  30.940  0.00  0.00     0.083 H 
ATOM     69  C34 non d ame     -33.635   4.715  29.106  0.00  0.00    -0.075 A 
ATOM     70  H52 non d ame     -31.905   3.529  28.609  0.00  0.00     0.083 H 
ATOM     71  H53 non d ame     -33.825   5.010  28.073  0.00  0.00     0.084 H 
ENDBRANCH  58  61
ENDBRANCH  57  58
ENDBRANCH  55  57
ENDBRANCH  52  55
ENDBRANCH  49  52
ENDBRANCH  47  49
BRANCH  47  72
ATOM     72  C24 non d ame     -32.169   7.823  24.788  0.00  0.00    -0.039 C 
ATOM     73  H35 non d ame     -31.116   7.730  25.054  0.00  0.00     0.036 H 
ATOM     74  H36 non d ame     -32.790   6.931  24.703  0.00  0.00     0.036 H 
BRANCH  72  75
ATOM     75  C25 non d ame     -32.236   8.581  23.378  0.00  0.00    -0.001 C 
ATOM     76  C26 non d ame     -33.444   7.948  22.459  0.00  0.00    -0.035 C 
ATOM     77  C27 non d ame     -32.945   7.632  21.240  0.00  0.00     0.085 C 
ATOM     78  H38 non d ame     -33.757   6.986  22.864  0.00  0.00     0.036 H 
ATOM     79  H39 non d ame     -34.187   8.715  22.239  0.00  0.00     0.036 H 
ATOM     80  N5  non d ame     -31.440   7.687  21.351  0.00  0.00    -0.049 N 
ATOM     81  H40 non d ame     -33.251   6.602  21.058  0.00  0.00     0.075 H 
ATOM     82  H41 non d ame     -33.280   8.426  20.574  0.00  0.00     0.075 H 
ATOM     83  C28 non d ame     -31.125   8.464  22.731  0.00  0.00     0.193 C 
ATOM     84  H42 non d ame     -31.125   6.731  21.441  0.00  0.00     0.280 HD
ATOM     85  H43 non d ame     -31.118   8.255  20.581  0.00  0.00     0.280 HD
ATOM     86  H44 non d ame     -30.792   9.502  22.719  0.00  0.00     0.129 H 
ATOM     87  H37 non d ame     -32.215   9.665  23.491  0.00  0.00     0.046 H 
BRANCH  83  88
ATOM     88  O6  non d ame     -30.137   7.755  23.481  0.00  0.00    -0.369 OA
ATOM     89  H45 non d ame     -30.426   6.850  23.617  0.00  0.00     0.212 HD
ENDBRANCH  83  88
ENDBRANCH  72  75
ENDBRANCH  47  72
ENDBRANCH  45  47
ENDBRANCH   1  43
BRANCH   1  90
ATOM     90  C16 non d ame     -31.757  12.728  28.273  0.00  0.00    -0.035 C 
ATOM     91  H21 non d ame     -31.079  13.556  28.476  0.00  0.00     0.037 H 
ATOM     92  H22 non d ame     -32.835  12.890  28.289  0.00  0.00     0.037 H 
BRANCH  90  93
ATOM     93  C17 non d ame     -31.458  11.639  29.352  0.00  0.00    -0.059 C 
ATOM     94  H23 non d ame     -31.060  10.764  28.837  0.00  0.00     0.038 H 
BRANCH  93  95
ATOM     95  C18 non d ame     -30.385  12.111  30.385  0.00  0.00    -0.073 C 
ATOM     96  H24 non d ame     -30.872  12.667  31.185  0.00  0.00     0.028 H 
ATOM     97  H25 non d ame     -29.876  11.243  30.803  0.00  0.00     0.028 H 
ATOM     98  H26 non d ame     -29.659  12.753  29.887  0.00  0.00     0.028 H 
ENDBRANCH  93  95
BRANCH  93  99
ATOM     99  C19 non d ame     -32.743  11.204  30.061  0.00  0.00    -0.073 C 
ATOM    100  H27 non d ame     -32.552  10.296  30.635  0.00  0.00     0.028 H 
ATOM    101  H28 non d ame     -33.073  11.996  30.733  0.00  0.00     0.028 H 
ATOM    102  H29 non d ame     -33.518  11.010  29.320  0.00  0.00     0.028 H 
ENDBRANCH  93  99
ENDBRANCH  90  93
ENDBRANCH   1  90
TORSDOF 26
ENDMDL
MODEL 15
REMARK VINA RESULT:      -6.0      3.308      8.024
REMARK  26 active torsions:
REMARK  status: ('A' for Active; 'I' for Inactive)
REMARK    1  A    between atoms: C2_2  and  C3_3 
REMARK    2  A    between atoms: C4_6  and  C5_7 
REMARK       I    between atoms: C5_7  and  N2_9 
REMARK    3  A    between atoms: N2_9  and  C6_10 
REMARK    4  A    between atoms: C6_10  and  C7_11 
REMARK    5  A    between atoms: C6_10  and  C8_13 
REMARK       I    between atoms: C7_11  and  N3_14 
REMARK    6  A    between atoms: N3_14  and  C9_15 
REMARK    7  A    between atoms: C9_15  and  C10_16 
REMARK    8  A    between atoms: C9_15  and  C11_18 
REMARK       I    between atoms: C10_16  and  N4_21 
REMARK    9  A    between atoms: C11_18  and  C12_19 
REMARK   10  A    between atoms: C11_18  and  C13_20 
REMARK   11  A    between atoms: N4_21  and  C14_22 
REMARK   12  A    between atoms: C14_22  and  C15_23 
REMARK   13  A    between atoms: C14_22  and  C16_25 
REMARK       I    between atoms: C15_23  and  N6_40 
REMARK   14  A    between atoms: C16_25  and  C17_26 
REMARK   15  A    between atoms: C17_26  and  C18_27 
REMARK   16  A    between atoms: C17_26  and  C19_28 
REMARK   17  A    between atoms: C20_29  and  C21_30 
REMARK   18  A    between atoms: C20_29  and  C24_33 
REMARK   19  A    between atoms: C20_29  and  N6_40 
REMARK   20  A    between atoms: C21_30  and  C22_31 
REMARK   21  A    between atoms: C22_31  and  C23_32 
REMARK   22  A    between atoms: C23_32  and  O8_43 
REMARK   23  A    between atoms: C24_33  and  C25_34 
REMARK   24  A    between atoms: C28_38  and  O6_39 
REMARK   25  A    between atoms: C29_42  and  O8_43 
REMARK   26  A    between atoms: C29_42  and  C35_49 
ROOT
ATOM      1  C14 non d ame     -36.559  16.539  26.529  0.00  0.00     0.089 C 
ATOM      2  H20 non d ame     -37.078  17.147  27.271  0.00  0.00     0.087 H 
ENDROOT
BRANCH   1   3
ATOM      3  N4  non d ame     -35.135  16.610  26.824  0.00  0.00    -0.346 N 
ATOM      4  C10 non d ame     -34.636  17.450  27.972  0.00  0.00     0.241 C 
ATOM      5  O4  non d ame     -35.398  18.063  28.644  0.00  0.00    -0.271 OA
ATOM      6  H19 non d ame     -34.502  16.083  26.239  0.00  0.00     0.163 HD
BRANCH   4   7
ATOM      7  C9  non d ame     -33.159  17.507  28.266  0.00  0.00     0.092 C 
ATOM      8  H11 non d ame     -33.003  18.013  29.218  0.00  0.00     0.088 H 
BRANCH   7   9
ATOM      9  N3  non d ame     -32.636  16.145  28.407  0.00  0.00    -0.346 N 
ATOM     10  C7  non d ame     -31.747  15.825  29.497  0.00  0.00     0.240 C 
ATOM     11  O3  non d ame     -31.442  16.651  30.268  0.00  0.00    -0.271 OA
ATOM     12  H10 non d ame     -32.889  15.422  27.749  0.00  0.00     0.163 HD
BRANCH  10  13
ATOM     13  C6  non d ame     -31.190  14.374  29.641  0.00  0.00     0.086 C 
ATOM     14  H6  non d ame     -30.592  14.240  30.542  0.00  0.00     0.086 H 
BRANCH  13  15
ATOM     15  N2  non d ame     -32.306  13.449  29.740  0.00  0.00    -0.343 N 
ATOM     16  C5  non d ame     -32.142  12.197  30.483  0.00  0.00     0.273 C 
ATOM     17  O2  non d ame     -31.107  11.943  30.994  0.00  0.00    -0.266 OA
ATOM     18  H5  non d ame     -33.187  13.673  29.298  0.00  0.00     0.163 HD
BRANCH  16  19
ATOM     19  C4  non d ame     -33.314  11.210  30.597  0.00  0.00     0.154 A 
ATOM     20  C1  non d ame     -34.180  11.022  31.721  0.00  0.00    -0.017 A 
ATOM     21  C2  non d ame     -35.080  10.010  31.321  0.00  0.00     0.077 A 
ATOM     22  H1  non d ame     -34.158  11.541  32.680  0.00  0.00     0.091 H 
ATOM     23  O1  non d ame     -34.762   9.666  30.107  0.00  0.00    -0.218 OA
ATOM     24  N1  non d ame     -33.734  10.352  29.664  0.00  0.00    -0.123 NA
BRANCH  21  25
ATOM     25  C3  non d ame     -36.215   9.431  32.156  0.00  0.00    -0.029 C 
ATOM     26  H2  non d ame     -36.687   8.614  31.611  0.00  0.00     0.036 H 
ATOM     27  H3  non d ame     -35.817   9.057  33.098  0.00  0.00     0.036 H 
ATOM     28  H4  non d ame     -36.952  10.209  32.356  0.00  0.00     0.036 H 
ENDBRANCH  21  25
ENDBRANCH  16  19
ENDBRANCH  13  15
BRANCH  13  29
ATOM     29  C8  non d ame     -30.344  14.036  28.439  0.00  0.00    -0.049 C 
ATOM     30  H7  non d ame     -30.916  13.406  27.759  0.00  0.00     0.030 H 
ATOM     31  H8  non d ame     -30.056  14.955  27.928  0.00  0.00     0.030 H 
ATOM     32  H9  non d ame     -29.449  13.504  28.763  0.00  0.00     0.030 H 
ENDBRANCH  13  29
ENDBRANCH  10  13
ENDBRANCH   7   9
BRANCH   7  33
ATOM     33  C11 non d ame     -32.425  18.223  27.094  0.00  0.00    -0.033 C 
ATOM     34  H12 non d ame     -31.354  18.155  27.287  0.00  0.00     0.042 H 
BRANCH  33  35
ATOM     35  C12 non d ame     -32.703  17.515  25.732  0.00  0.00    -0.071 C 
ATOM     36  H13 non d ame     -32.056  17.939  24.964  0.00  0.00     0.028 H 
ATOM     37  H14 non d ame     -32.502  16.449  25.829  0.00  0.00     0.028 H 
ATOM     38  H15 non d ame     -33.745  17.664  25.451  0.00  0.00     0.028 H 
ENDBRANCH  33  35
BRANCH  33  39
ATOM     39  C13 non d ame     -32.809  19.736  27.035  0.00  0.00    -0.071 C 
ATOM     40  H16 non d ame     -32.519  20.147  26.068  0.00  0.00     0.028 H 
ATOM     41  H17 non d ame     -33.887  19.843  27.167  0.00  0.00     0.028 H 
ATOM     42  H18 non d ame     -32.292  20.274  27.829  0.00  0.00     0.028 H 
ENDBRANCH  33  39
ENDBRANCH   7  33
ENDBRANCH   4   7
ENDBRANCH   1   3
BRANCH   1  43
ATOM     43  C15 non d ame     -37.001  15.048  26.578  0.00  0.00     0.240 C 
ATOM     44  O5  non d ame     -38.115  14.772  26.885  0.00  0.00    -0.271 OA
ATOM     45  N6  non d ame     -36.037  13.965  26.234  0.00  0.00    -0.355 N 
ATOM     46  H46 non d ame     -35.089  14.187  25.968  0.00  0.00     0.162 HD
BRANCH  45  47
ATOM     47  C20 non d ame     -36.473  12.552  26.284  0.00  0.00     0.013 C 
ATOM     48  H30 non d ame     -37.430  12.515  26.804  0.00  0.00     0.072 H 
BRANCH  47  49
ATOM     49  C21 non d ame     -35.444  11.738  27.035  0.00  0.00    -0.038 C 
ATOM     50  H31 non d ame     -34.977  12.429  27.737  0.00  0.00     0.036 H 
ATOM     51  H32 non d ame     -35.977  10.861  27.406  0.00  0.00     0.036 H 
BRANCH  49  52
ATOM     52  C22 non d ame     -34.315  11.210  26.124  0.00  0.00     0.018 C 
ATOM     53  H33 non d ame     -34.094  10.205  26.480  0.00  0.00     0.048 H 
ATOM     54  H34 non d ame     -34.665  11.362  25.102  0.00  0.00     0.048 H 
BRANCH  52  55
ATOM     55  C23 non d ame     -32.988  12.009  26.245  0.00  0.00     0.259 C 
ATOM     56  O7  non d ame     -32.994  13.135  26.624  0.00  0.00    -0.265 OA
BRANCH  55  57
ATOM     57  O8  non d ame     -31.763  11.383  25.884  0.00  0.00    -0.317 OA
BRANCH  57  58
ATOM     58  C29 non d ame     -31.214  11.846  24.647  0.00  0.00     0.052 C 
ATOM     59  H47 non d ame     -31.990  12.461  24.192  0.00  0.00     0.082 H 
ATOM     60  H48 non d ame     -30.248  12.284  24.898  0.00  0.00     0.082 H 
BRANCH  58  61
ATOM     61  C35 non d ame     -30.971  10.611  23.739  0.00  0.00    -0.034 A 
ATOM     62  C30 non d ame     -31.783   9.488  23.859  0.00  0.00    -0.075 A 
ATOM     63  C31 non d ame     -31.565   8.378  23.044  0.00  0.00    -0.082 A 
ATOM     64  H49 non d ame     -32.590   9.476  24.592  0.00  0.00     0.084 H 
ATOM     65  C32 non d ame     -30.528   8.393  22.107  0.00  0.00    -0.083 A 
ATOM     66  H50 non d ame     -32.204   7.500  23.139  0.00  0.00     0.083 H 
ATOM     67  C33 non d ame     -29.718   9.515  21.993  0.00  0.00    -0.082 A 
ATOM     68  H51 non d ame     -30.351   7.530  21.465  0.00  0.00     0.083 H 
ATOM     69  C34 non d ame     -29.934  10.627  22.805  0.00  0.00    -0.075 A 
ATOM     70  H52 non d ame     -28.908   9.523  21.263  0.00  0.00     0.083 H 
ATOM     71  H53 non d ame     -29.294  11.505  22.709  0.00  0.00     0.084 H 
ENDBRANCH  58  61
ENDBRANCH  57  58
ENDBRANCH  55  57
ENDBRANCH  52  55
ENDBRANCH  49  52
ENDBRANCH  47  49
BRANCH  47  72
ATOM     72  C24 non d ame     -36.619  12.006  24.865  0.00  0.00    -0.039 C 
ATOM     73  H35 non d ame     -35.965  12.624  24.248  0.00  0.00     0.036 H 
ATOM     74  H36 non d ame     -36.438  10.935  24.947  0.00  0.00     0.036 H 
BRANCH  72  75
ATOM     75  C25 non d ame     -38.109  12.193  24.308  0.00  0.00    -0.001 C 
ATOM     76  C26 non d ame     -39.197  11.763  25.465  0.00  0.00    -0.035 C 
ATOM     77  C27 non d ame     -40.077  10.883  24.930  0.00  0.00     0.085 C 
ATOM     78  H38 non d ame     -38.703  11.187  26.247  0.00  0.00     0.036 H 
ATOM     79  H39 non d ame     -39.819  12.618  25.729  0.00  0.00     0.036 H 
ATOM     80  N5  non d ame     -39.498  10.423  23.614  0.00  0.00    -0.049 N 
ATOM     81  H40 non d ame     -40.102  10.041  25.622  0.00  0.00     0.075 H 
ATOM     82  H41 non d ame     -40.982  11.458  24.738  0.00  0.00     0.075 H 
ATOM     83  C28 non d ame     -38.313  11.462  23.264  0.00  0.00     0.193 C 
ATOM     84  H42 non d ame     -39.090   9.515  23.783  0.00  0.00     0.280 HD
ATOM     85  H43 non d ame     -40.231  10.528  22.928  0.00  0.00     0.280 HD
ATOM     86  H44 non d ame     -38.459  12.234  22.507  0.00  0.00     0.129 H 
ATOM     87  H37 non d ame     -38.252  13.161  23.828  0.00  0.00     0.046 H 
BRANCH  83  88
ATOM     88  O6  non d ame     -37.138  10.754  22.864  0.00  0.00    -0.369 OA
ATOM     89  H45 non d ame     -36.707  11.226  22.148  0.00  0.00     0.212 HD
ENDBRANCH  83  88
ENDBRANCH  72  75
ENDBRANCH  47  72
ENDBRANCH  45  47
ENDBRANCH   1  43
BRANCH   1  90
ATOM     90  C16 non d ame     -36.806  17.100  25.138  0.00  0.00    -0.035 C 
ATOM     91  H21 non d ame     -35.831  17.109  24.653  0.00  0.00     0.037 H 
ATOM     92  H22 non d ame     -37.616  16.499  24.724  0.00  0.00     0.037 H 
BRANCH  90  93
ATOM     93  C17 non d ame     -37.311  18.578  25.140  0.00  0.00    -0.059 C 
ATOM     94  H23 non d ame     -37.954  18.709  24.270  0.00  0.00     0.038 H 
BRANCH  93  95
ATOM     95  C18 non d ame     -38.155  18.911  26.412  0.00  0.00    -0.073 C 
ATOM     96  H24 non d ame     -37.724  19.774  26.918  0.00  0.00     0.028 H 
ATOM     97  H25 non d ame     -39.180  19.138  26.119  0.00  0.00     0.028 H 
ATOM     98  H26 non d ame     -38.150  18.055  27.085  0.00  0.00     0.028 H 
ENDBRANCH  93  95
BRANCH  93  99
ATOM     99  C19 non d ame     -36.142  19.555  24.991  0.00  0.00    -0.073 C 
ATOM    100  H27 non d ame     -36.138  19.967  23.981  0.00  0.00     0.028 H 
ATOM    101  H28 non d ame     -36.250  20.365  25.713  0.00  0.00     0.028 H 
ATOM    102  H29 non d ame     -35.204  19.030  25.174  0.00  0.00     0.028 H 
ENDBRANCH  93  99
ENDBRANCH  90  93
ENDBRANCH   1  90
TORSDOF 26
ENDMDL
MODEL 16
REMARK VINA RESULT:      -6.0      2.678      8.322
REMARK  26 active torsions:
REMARK  status: ('A' for Active; 'I' for Inactive)
REMARK    1  A    between atoms: C2_2  and  C3_3 
REMARK    2  A    between atoms: C4_6  and  C5_7 
REMARK       I    between atoms: C5_7  and  N2_9 
REMARK    3  A    between atoms: N2_9  and  C6_10 
REMARK    4  A    between atoms: C6_10  and  C7_11 
REMARK    5  A    between atoms: C6_10  and  C8_13 
REMARK       I    between atoms: C7_11  and  N3_14 
REMARK    6  A    between atoms: N3_14  and  C9_15 
REMARK    7  A    between atoms: C9_15  and  C10_16 
REMARK    8  A    between atoms: C9_15  and  C11_18 
REMARK       I    between atoms: C10_16  and  N4_21 
REMARK    9  A    between atoms: C11_18  and  C12_19 
REMARK   10  A    between atoms: C11_18  and  C13_20 
REMARK   11  A    between atoms: N4_21  and  C14_22 
REMARK   12  A    between atoms: C14_22  and  C15_23 
REMARK   13  A    between atoms: C14_22  and  C16_25 
REMARK       I    between atoms: C15_23  and  N6_40 
REMARK   14  A    between atoms: C16_25  and  C17_26 
REMARK   15  A    between atoms: C17_26  and  C18_27 
REMARK   16  A    between atoms: C17_26  and  C19_28 
REMARK   17  A    between atoms: C20_29  and  C21_30 
REMARK   18  A    between atoms: C20_29  and  C24_33 
REMARK   19  A    between atoms: C20_29  and  N6_40 
REMARK   20  A    between atoms: C21_30  and  C22_31 
REMARK   21  A    between atoms: C22_31  and  C23_32 
REMARK   22  A    between atoms: C23_32  and  O8_43 
REMARK   23  A    between atoms: C24_33  and  C25_34 
REMARK   24  A    between atoms: C28_38  and  O6_39 
REMARK   25  A    between atoms: C29_42  and  O8_43 
REMARK   26  A    between atoms: C29_42  and  C35_49 
ROOT
ATOM      1  C14 non d ame     -34.502  10.417  28.046  0.00  0.00     0.089 C 
ATOM      2  H20 non d ame     -33.992   9.744  28.735  0.00  0.00     0.087 H 
ENDROOT
BRANCH   1   3
ATOM      3  N4  non d ame     -33.866  11.722  28.157  0.00  0.00    -0.346 N 
ATOM      4  C10 non d ame     -32.379  11.864  27.953  0.00  0.00     0.241 C 
ATOM      5  O4  non d ame     -31.713  10.913  27.703  0.00  0.00    -0.271 OA
ATOM      6  H19 non d ame     -34.449  12.518  28.372  0.00  0.00     0.163 HD
BRANCH   4   7
ATOM      7  C9  non d ame     -31.738  13.222  28.065  0.00  0.00     0.092 C 
ATOM      8  H11 non d ame     -30.679  13.141  27.821  0.00  0.00     0.088 H 
BRANCH   7   9
ATOM      9  N3  non d ame     -32.341  14.130  27.085  0.00  0.00    -0.346 N 
ATOM     10  C7  non d ame     -31.696  14.349  25.814  0.00  0.00     0.240 C 
ATOM     11  O3  non d ame     -30.691  13.803  25.564  0.00  0.00    -0.271 OA
ATOM     12  H10 non d ame     -33.207  14.609  27.287  0.00  0.00     0.163 HD
BRANCH  10  13
ATOM     13  C6  non d ame     -32.341  15.319  24.775  0.00  0.00     0.086 C 
ATOM     14  H6  non d ame     -33.221  14.894  24.292  0.00  0.00     0.086 H 
BRANCH  13  15
ATOM     15  N2  non d ame     -32.784  16.520  25.464  0.00  0.00    -0.343 N 
ATOM     16  C5  non d ame     -34.136  16.573  26.024  0.00  0.00     0.273 C 
ATOM     17  O2  non d ame     -34.861  15.645  25.913  0.00  0.00    -0.266 OA
ATOM     18  H5  non d ame     -32.159  17.309  25.551  0.00  0.00     0.163 HD
BRANCH  16  19
ATOM     19  C4  non d ame     -34.617  17.835  26.756  0.00  0.00     0.154 A 
ATOM     20  C1  non d ame     -35.414  18.896  26.218  0.00  0.00    -0.017 A 
ATOM     21  C2  non d ame     -35.577  19.806  27.287  0.00  0.00     0.077 A 
ATOM     22  H1  non d ame     -35.813  18.990  25.208  0.00  0.00     0.091 H 
ATOM     23  O1  non d ame     -34.945  19.315  28.313  0.00  0.00    -0.218 OA
ATOM     24  N1  non d ame     -34.377  18.166  28.028  0.00  0.00    -0.123 NA
BRANCH  21  25
ATOM     25  C3  non d ame     -36.350  21.117  27.244  0.00  0.00    -0.029 C 
ATOM     26  H2  non d ame     -37.158  21.086  27.974  0.00  0.00     0.036 H 
ATOM     27  H3  non d ame     -35.678  21.942  27.481  0.00  0.00     0.036 H 
ATOM     28  H4  non d ame     -36.766  21.262  26.248  0.00  0.00     0.036 H 
ENDBRANCH  21  25
ENDBRANCH  16  19
ENDBRANCH  13  15
BRANCH  13  29
ATOM     29  C8  non d ame     -31.327  15.674  23.718  0.00  0.00    -0.049 C 
ATOM     30  H7  non d ame     -31.584  15.170  22.785  0.00  0.00     0.030 H 
ATOM     31  H8  non d ame     -31.329  16.752  23.561  0.00  0.00     0.030 H 
ATOM     32  H9  non d ame     -30.337  15.355  24.042  0.00  0.00     0.030 H 
ENDBRANCH  13  29
ENDBRANCH  10  13
ENDBRANCH   7   9
BRANCH   7  33
ATOM     33  C11 non d ame     -31.966  13.786  29.499  0.00  0.00    -0.033 C 
ATOM     34  H12 non d ame     -32.986  13.536  29.792  0.00  0.00     0.042 H 
BRANCH  33  35
ATOM     35  C12 non d ame     -31.005  13.119  30.531  0.00  0.00    -0.071 C 
ATOM     36  H13 non d ame     -30.117  12.752  30.017  0.00  0.00     0.028 H 
ATOM     37  H14 non d ame     -30.713  13.853  31.282  0.00  0.00     0.028 H 
ATOM     38  H15 non d ame     -31.513  12.286  31.016  0.00  0.00     0.028 H 
ENDBRANCH  33  35
BRANCH  33  39
ATOM     39  C13 non d ame     -31.826  15.342  29.517  0.00  0.00    -0.071 C 
ATOM     40  H16 non d ame     -30.770  15.612  29.480  0.00  0.00     0.028 H 
ATOM     41  H17 non d ame     -32.339  15.763  28.652  0.00  0.00     0.028 H 
ATOM     42  H18 non d ame     -32.271  15.736  30.430  0.00  0.00     0.028 H 
ENDBRANCH  33  39
ENDBRANCH   7  33
ENDBRANCH   4   7
ENDBRANCH   1   3
BRANCH   1  43
ATOM     43  C15 non d ame     -34.395   9.938  26.570  0.00  0.00     0.240 C 
ATOM     44  O5  non d ame     -34.836  10.612  25.696  0.00  0.00    -0.271 OA
ATOM     45  N6  non d ame     -33.734   8.642  26.245  0.00  0.00    -0.355 N 
ATOM     46  H46 non d ame     -33.351   8.063  26.978  0.00  0.00     0.162 HD
BRANCH  45  47
ATOM     47  C20 non d ame     -33.640   8.200  24.836  0.00  0.00     0.013 C 
ATOM     48  H30 non d ame     -34.172   8.926  24.221  0.00  0.00     0.072 H 
BRANCH  47  49
ATOM     49  C21 non d ame     -34.277   6.837  24.696  0.00  0.00    -0.038 C 
ATOM     50  H31 non d ame     -34.976   6.751  25.528  0.00  0.00     0.036 H 
ATOM     51  H32 non d ame     -34.642   6.787  23.670  0.00  0.00     0.036 H 
BRANCH  49  52
ATOM     52  C22 non d ame     -33.264   5.682  24.856  0.00  0.00     0.018 C 
ATOM     53  H33 non d ame     -33.544   4.938  24.112  0.00  0.00     0.048 H 
ATOM     54  H34 non d ame     -32.279   6.147  24.819  0.00  0.00     0.048 H 
BRANCH  52  55
ATOM     55  C23 non d ame     -33.347   4.963  26.231  0.00  0.00     0.259 C 
ATOM     56  O7  non d ame     -33.318   3.777  26.295  0.00  0.00    -0.265 OA
BRANCH  55  57
ATOM     57  O8  non d ame     -33.471   5.739  27.417  0.00  0.00    -0.317 OA
BRANCH  57  58
ATOM     58  C29 non d ame     -33.486   4.966  28.620  0.00  0.00     0.052 C 
ATOM     59  H47 non d ame     -33.490   3.924  28.301  0.00  0.00     0.082 H 
ATOM     60  H48 non d ame     -32.665   5.347  29.227  0.00  0.00     0.082 H 
BRANCH  58  61
ATOM     61  C35 non d ame     -34.819   5.257  29.360  0.00  0.00    -0.034 A 
ATOM     62  C30 non d ame     -34.814   5.523  30.726  0.00  0.00    -0.075 A 
ATOM     63  C31 non d ame     -36.011   5.785  31.391  0.00  0.00    -0.082 A 
ATOM     64  H49 non d ame     -33.872   5.526  31.275  0.00  0.00     0.084 H 
ATOM     65  C32 non d ame     -37.217   5.778  30.685  0.00  0.00    -0.083 A 
ATOM     66  H50 non d ame     -36.003   5.994  32.461  0.00  0.00     0.083 H 
ATOM     67  C33 non d ame     -37.217   5.509  29.323  0.00  0.00    -0.082 A 
ATOM     68  H51 non d ame     -38.157   5.982  31.197  0.00  0.00     0.083 H 
ATOM     69  C34 non d ame     -36.023   5.249  28.654  0.00  0.00    -0.075 A 
ATOM     70  H52 non d ame     -38.160   5.502  28.776  0.00  0.00     0.083 H 
ATOM     71  H53 non d ame     -36.032   5.040  27.584  0.00  0.00     0.084 H 
ENDBRANCH  58  61
ENDBRANCH  57  58
ENDBRANCH  55  57
ENDBRANCH  52  55
ENDBRANCH  49  52
ENDBRANCH  47  49
BRANCH  47  72
ATOM     72  C24 non d ame     -32.173   8.124  24.417  0.00  0.00    -0.039 C 
ATOM     73  H35 non d ame     -31.604   8.438  25.292  0.00  0.00     0.036 H 
ATOM     74  H36 non d ame     -32.039   7.121  24.012  0.00  0.00     0.036 H 
BRANCH  72  75
ATOM     75  C25 non d ame     -31.839   9.157  23.239  0.00  0.00    -0.001 C 
ATOM     76  C26 non d ame     -30.893   8.430  22.107  0.00  0.00    -0.035 C 
ATOM     77  C27 non d ame     -29.813   9.213  21.874  0.00  0.00     0.085 C 
ATOM     78  H38 non d ame     -30.462   7.515  22.513  0.00  0.00     0.036 H 
ATOM     79  H39 non d ame     -31.407   8.411  21.146  0.00  0.00     0.036 H 
ATOM     80  N5  non d ame     -29.768  10.244  22.975  0.00  0.00    -0.049 N 
ATOM     81  H40 non d ame     -28.950   8.553  21.968  0.00  0.00     0.075 H 
ATOM     82  H41 non d ame     -30.015   9.713  20.927  0.00  0.00     0.075 H 
ATOM     83  C28 non d ame     -31.214  10.194  23.690  0.00  0.00     0.193 C 
ATOM     84  H42 non d ame     -29.072   9.927  23.635  0.00  0.00     0.280 HD
ATOM     85  H43 non d ame     -29.663  11.141  22.522  0.00  0.00     0.280 HD
ATOM     86  H44 non d ame     -31.954  10.970  23.497  0.00  0.00     0.129 H 
ATOM     87  H37 non d ame     -32.728   9.678  22.882  0.00  0.00     0.046 H 
BRANCH  83  88
ATOM     88  O6  non d ame     -31.061  10.155  25.110  0.00  0.00    -0.369 OA
ATOM     89  H45 non d ame     -31.064   9.242  25.408  0.00  0.00     0.212 HD
ENDBRANCH  83  88
ENDBRANCH  72  75
ENDBRANCH  47  72
ENDBRANCH  45  47
ENDBRANCH   1  43
BRANCH   1  90
ATOM     90  C16 non d ame     -35.965  10.544  28.438  0.00  0.00    -0.035 C 
ATOM     91  H21 non d ame     -36.011  11.399  29.111  0.00  0.00     0.037 H 
ATOM     92  H22 non d ame     -36.516  10.561  27.497  0.00  0.00     0.037 H 
BRANCH  90  93
ATOM     93  C17 non d ame     -36.506   9.320  29.243  0.00  0.00    -0.059 C 
ATOM     94  H23 non d ame     -36.007   8.428  28.865  0.00  0.00     0.038 H 
BRANCH  93  95
ATOM     95  C18 non d ame     -36.189   9.432  30.769  0.00  0.00    -0.073 C 
ATOM     96  H24 non d ame     -35.895  10.454  31.005  0.00  0.00     0.028 H 
ATOM     97  H25 non d ame     -37.076   9.167  31.345  0.00  0.00     0.028 H 
ATOM     98  H26 non d ame     -35.376   8.752  31.022  0.00  0.00     0.028 H 
ENDBRANCH  93  95
BRANCH  93  99
ATOM     99  C19 non d ame     -38.008   9.133  29.011  0.00  0.00    -0.073 C 
ATOM    100  H27 non d ame     -38.298   9.634  28.087  0.00  0.00     0.028 H 
ATOM    101  H28 non d ame     -38.235   8.070  28.935  0.00  0.00     0.028 H 
ATOM    102  H29 non d ame     -38.561   9.563  29.846  0.00  0.00     0.028 H 
ENDBRANCH  93  99
ENDBRANCH  90  93
ENDBRANCH   1  90
TORSDOF 26
ENDMDL
MODEL 17
REMARK VINA RESULT:      -6.0      3.359      6.943
REMARK  26 active torsions:
REMARK  status: ('A' for Active; 'I' for Inactive)
REMARK    1  A    between atoms: C2_2  and  C3_3 
REMARK    2  A    between atoms: C4_6  and  C5_7 
REMARK       I    between atoms: C5_7  and  N2_9 
REMARK    3  A    between atoms: N2_9  and  C6_10 
REMARK    4  A    between atoms: C6_10  and  C7_11 
REMARK    5  A    between atoms: C6_10  and  C8_13 
REMARK       I    between atoms: C7_11  and  N3_14 
REMARK    6  A    between atoms: N3_14  and  C9_15 
REMARK    7  A    between atoms: C9_15  and  C10_16 
REMARK    8  A    between atoms: C9_15  and  C11_18 
REMARK       I    between atoms: C10_16  and  N4_21 
REMARK    9  A    between atoms: C11_18  and  C12_19 
REMARK   10  A    between atoms: C11_18  and  C13_20 
REMARK   11  A    between atoms: N4_21  and  C14_22 
REMARK   12  A    between atoms: C14_22  and  C15_23 
REMARK   13  A    between atoms: C14_22  and  C16_25 
REMARK       I    between atoms: C15_23  and  N6_40 
REMARK   14  A    between atoms: C16_25  and  C17_26 
REMARK   15  A    between atoms: C17_26  and  C18_27 
REMARK   16  A    between atoms: C17_26  and  C19_28 
REMARK   17  A    between atoms: C20_29  and  C21_30 
REMARK   18  A    between atoms: C20_29  and  C24_33 
REMARK   19  A    between atoms: C20_29  and  N6_40 
REMARK   20  A    between atoms: C21_30  and  C22_31 
REMARK   21  A    between atoms: C22_31  and  C23_32 
REMARK   22  A    between atoms: C23_32  and  O8_43 
REMARK   23  A    between atoms: C24_33  and  C25_34 
REMARK   24  A    between atoms: C28_38  and  O6_39 
REMARK   25  A    between atoms: C29_42  and  O8_43 
REMARK   26  A    between atoms: C29_42  and  C35_49 
ROOT
ATOM      1  C14 non d ame     -32.136  12.804  29.169  0.00  0.00     0.089 C 
ATOM      2  H20 non d ame     -31.682  12.694  30.154  0.00  0.00     0.087 H 
ENDROOT
BRANCH   1   3
ATOM      3  N4  non d ame     -33.187  11.804  29.057  0.00  0.00    -0.346 N 
ATOM      4  C10 non d ame     -33.312  10.711  30.089  0.00  0.00     0.241 C 
ATOM      5  O4  non d ame     -32.553  10.655  30.999  0.00  0.00    -0.271 OA
ATOM      6  H19 non d ame     -33.822  11.867  28.274  0.00  0.00     0.163 HD
BRANCH   4   7
ATOM      7  C9  non d ame     -34.410   9.687  29.961  0.00  0.00     0.092 C 
ATOM      8  H11 non d ame     -35.255  10.132  29.436  0.00  0.00     0.088 H 
BRANCH   7   9
ATOM      9  N3  non d ame     -33.938   8.563  29.147  0.00  0.00    -0.346 N 
ATOM     10  C7  non d ame     -34.119   8.584  27.716  0.00  0.00     0.240 C 
ATOM     11  O3  non d ame     -34.644   9.496  27.203  0.00  0.00    -0.271 OA
ATOM     12  H10 non d ame     -33.484   7.769  29.575  0.00  0.00     0.163 HD
BRANCH  10  13
ATOM     13  C6  non d ame     -33.617   7.383  26.855  0.00  0.00     0.086 C 
ATOM     14  H6  non d ame     -34.381   7.000  26.180  0.00  0.00     0.086 H 
BRANCH  13  15
ATOM     15  N2  non d ame     -32.512   7.829  26.023  0.00  0.00    -0.343 N 
ATOM     16  C5  non d ame     -32.581   7.643  24.572  0.00  0.00     0.273 C 
ATOM     17  O2  non d ame     -33.529   7.131  24.084  0.00  0.00    -0.266 OA
ATOM     18  H5  non d ame     -31.705   8.263  26.448  0.00  0.00     0.163 HD
BRANCH  16  19
ATOM     19  C4  non d ame     -31.421   8.111  23.679  0.00  0.00     0.154 A 
ATOM     20  C1  non d ame     -30.173   7.446  23.465  0.00  0.00    -0.017 A 
ATOM     21  C2  non d ame     -29.465   8.280  22.570  0.00  0.00     0.077 A 
ATOM     22  H1  non d ame     -29.832   6.503  23.892  0.00  0.00     0.091 H 
ATOM     23  O1  non d ame     -30.228   9.300  22.307  0.00  0.00    -0.218 OA
ATOM     24  N1  non d ame     -31.374   9.225  22.943  0.00  0.00    -0.123 NA
BRANCH  21  25
ATOM     25  C3  non d ame     -28.069   8.029  22.016  0.00  0.00    -0.029 C 
ATOM     26  H2  non d ame     -27.654   7.130  22.471  0.00  0.00     0.036 H 
ATOM     27  H3  non d ame     -28.126   7.895  20.936  0.00  0.00     0.036 H 
ATOM     28  H4  non d ame     -27.429   8.881  22.243  0.00  0.00     0.036 H 
ENDBRANCH  21  25
ENDBRANCH  16  19
ENDBRANCH  13  15
BRANCH  13  29
ATOM     29  C8  non d ame     -33.163   6.267  27.761  0.00  0.00    -0.049 C 
ATOM     30  H7  non d ame     -33.255   6.582  28.800  0.00  0.00     0.030 H 
ATOM     31  H8  non d ame     -33.784   5.387  27.593  0.00  0.00     0.030 H 
ATOM     32  H9  non d ame     -32.122   6.024  27.546  0.00  0.00     0.030 H 
ENDBRANCH  13  29
ENDBRANCH  10  13
ENDBRANCH   7   9
BRANCH   7  33
ATOM     33  C11 non d ame     -34.805   9.170  31.375  0.00  0.00    -0.033 C 
ATOM     34  H12 non d ame     -33.932   9.278  32.020  0.00  0.00     0.042 H 
BRANCH  33  35
ATOM     35  C12 non d ame     -35.954  10.027  31.993  0.00  0.00    -0.071 C 
ATOM     36  H13 non d ame     -35.986   9.868  33.071  0.00  0.00     0.028 H 
ATOM     37  H14 non d ame     -35.772  11.081  31.787  0.00  0.00     0.028 H 
ATOM     38  H15 non d ame     -36.905   9.729  31.554  0.00  0.00     0.028 H 
ENDBRANCH  33  35
BRANCH  33  39
ATOM     39  C13 non d ame     -35.188   7.656  31.330  0.00  0.00    -0.071 C 
ATOM     40  H16 non d ame     -34.329   7.055  31.629  0.00  0.00     0.028 H 
ATOM     41  H17 non d ame     -36.018   7.471  32.013  0.00  0.00     0.028 H 
ATOM     42  H18 non d ame     -35.486   7.387  30.317  0.00  0.00     0.028 H 
ENDBRANCH  33  39
ENDBRANCH   7  33
ENDBRANCH   4   7
ENDBRANCH   1   3
BRANCH   1  43
ATOM     43  C15 non d ame     -32.768  14.211  28.967  0.00  0.00     0.240 C 
ATOM     44  O5  non d ame     -32.302  15.153  29.522  0.00  0.00    -0.271 OA
ATOM     45  N6  non d ame     -33.948  14.385  28.073  0.00  0.00    -0.355 N 
ATOM     46  H46 non d ame     -34.349  13.594  27.592  0.00  0.00     0.162 HD
BRANCH  45  47
ATOM     47  C20 non d ame     -34.536  15.730  27.890  0.00  0.00     0.013 C 
ATOM     48  H30 non d ame     -34.661  16.178  28.875  0.00  0.00     0.072 H 
BRANCH  47  49
ATOM     49  C21 non d ame     -35.878  15.600  27.206  0.00  0.00    -0.038 C 
ATOM     50  H31 non d ame     -36.281  14.639  27.528  0.00  0.00     0.036 H 
ATOM     51  H32 non d ame     -36.415  16.521  27.434  0.00  0.00     0.036 H 
BRANCH  49  52
ATOM     52  C22 non d ame     -35.763  15.531  25.668  0.00  0.00     0.018 C 
ATOM     53  H33 non d ame     -34.931  16.183  25.405  0.00  0.00     0.048 H 
ATOM     54  H34 non d ame     -35.723  14.470  25.421  0.00  0.00     0.048 H 
BRANCH  52  55
ATOM     55  C23 non d ame     -37.002  16.098  24.921  0.00  0.00     0.259 C 
ATOM     56  O7  non d ame     -37.098  15.989  23.742  0.00  0.00    -0.265 OA
BRANCH  55  57
ATOM     57  O8  non d ame     -38.019  16.761  25.663  0.00  0.00    -0.317 OA
BRANCH  57  58
ATOM     58  C29 non d ame     -38.253  18.111  25.251  0.00  0.00     0.052 C 
ATOM     59  H47 non d ame     -37.700  18.236  24.320  0.00  0.00     0.082 H 
ATOM     60  H48 non d ame     -39.335  18.240  25.263  0.00  0.00     0.082 H 
BRANCH  58  61
ATOM     61  C35 non d ame     -37.635  19.052  26.320  0.00  0.00    -0.034 A 
ATOM     62  C30 non d ame     -37.668  18.695  27.664  0.00  0.00    -0.075 A 
ATOM     63  C31 non d ame     -37.113  19.540  28.625  0.00  0.00    -0.082 A 
ATOM     64  H49 non d ame     -38.130  17.755  27.966  0.00  0.00     0.084 H 
ATOM     65  C32 non d ame     -36.525  20.747  28.236  0.00  0.00    -0.083 A 
ATOM     66  H50 non d ame     -37.140  19.257  29.677  0.00  0.00     0.083 H 
ATOM     67  C33 non d ame     -36.497  21.100  26.894  0.00  0.00    -0.082 A 
ATOM     68  H51 non d ame     -36.088  21.413  28.980  0.00  0.00     0.083 H 
ATOM     69  C34 non d ame     -37.049  20.257  25.931  0.00  0.00    -0.075 A 
ATOM     70  H52 non d ame     -36.040  22.043  26.594  0.00  0.00     0.083 H 
ATOM     71  H53 non d ame     -37.022  20.541  24.878  0.00  0.00     0.084 H 
ENDBRANCH  58  61
ENDBRANCH  57  58
ENDBRANCH  55  57
ENDBRANCH  52  55
ENDBRANCH  49  52
ENDBRANCH  47  49
BRANCH  47  72
ATOM     72  C24 non d ame     -33.607  16.587  27.032  0.00  0.00    -0.039 C 
ATOM     73  H35 non d ame     -32.622  16.496  27.490  0.00  0.00     0.036 H 
ATOM     74  H36 non d ame     -33.765  16.249  26.007  0.00  0.00     0.036 H 
BRANCH  72  75
ATOM     75  C25 non d ame     -34.012  18.136  27.086  0.00  0.00    -0.001 C 
ATOM     76  C26 non d ame     -33.674  18.854  25.646  0.00  0.00    -0.035 C 
ATOM     77  C27 non d ame     -32.942  19.971  25.876  0.00  0.00     0.085 C 
ATOM     78  H38 non d ame     -33.002  18.225  25.063  0.00  0.00     0.036 H 
ATOM     79  H39 non d ame     -34.589  19.239  25.195  0.00  0.00     0.036 H 
ATOM     80  N5  non d ame     -32.473  19.903  27.310  0.00  0.00    -0.049 N 
ATOM     81  H40 non d ame     -32.078  19.894  25.216  0.00  0.00     0.075 H 
ATOM     82  H41 non d ame     -33.638  20.802  25.769  0.00  0.00     0.075 H 
ATOM     83  C28 non d ame     -33.364  18.756  28.015  0.00  0.00     0.193 C 
ATOM     84  H42 non d ame     -31.512  19.592  27.282  0.00  0.00     0.280 HD
ATOM     85  H43 non d ame     -32.704  20.793  27.728  0.00  0.00     0.280 HD
ATOM     86  H44 non d ame     -34.183  19.024  28.683  0.00  0.00     0.129 H 
ATOM     87  H37 non d ame     -35.012  18.288  27.493  0.00  0.00     0.046 H 
BRANCH  83  88
ATOM     88  O6  non d ame     -32.528  17.876  28.769  0.00  0.00    -0.369 OA
ATOM     89  H45 non d ame     -33.069  17.203  29.188  0.00  0.00     0.212 HD
ENDBRANCH  83  88
ENDBRANCH  72  75
ENDBRANCH  47  72
ENDBRANCH  45  47
ENDBRANCH   1  43
BRANCH   1  90
ATOM     90  C16 non d ame     -31.094  12.551  28.091  0.00  0.00    -0.035 C 
ATOM     91  H21 non d ame     -30.399  13.387  28.161  0.00  0.00     0.037 H 
ATOM     92  H22 non d ame     -30.743  11.533  28.262  0.00  0.00     0.037 H 
BRANCH  90  93
ATOM     93  C17 non d ame     -31.674  12.580  26.641  0.00  0.00    -0.059 C 
ATOM     94  H23 non d ame     -32.752  12.719  26.718  0.00  0.00     0.038 H 
BRANCH  93  95
ATOM     95  C18 non d ame     -31.099  13.764  25.800  0.00  0.00    -0.073 C 
ATOM     96  H24 non d ame     -30.019  13.652  25.705  0.00  0.00     0.028 H 
ATOM     97  H25 non d ame     -31.553  13.761  24.809  0.00  0.00     0.028 H 
ATOM     98  H26 non d ame     -31.323  14.707  26.299  0.00  0.00     0.028 H 
ENDBRANCH  93  95
BRANCH  93  99
ATOM     99  C19 non d ame     -31.438  11.244  25.932  0.00  0.00    -0.073 C 
ATOM    100  H27 non d ame     -32.355  10.655  25.951  0.00  0.00     0.028 H 
ATOM    101  H28 non d ame     -31.146  11.427  24.897  0.00  0.00     0.028 H 
ATOM    102  H29 non d ame     -30.644  10.697  26.440  0.00  0.00     0.028 H 
ENDBRANCH  93  99
ENDBRANCH  90  93
ENDBRANCH   1  90
TORSDOF 26
ENDMDL
MODEL 18
REMARK VINA RESULT:      -6.0      2.468      6.199
REMARK  26 active torsions:
REMARK  status: ('A' for Active; 'I' for Inactive)
REMARK    1  A    between atoms: C2_2  and  C3_3 
REMARK    2  A    between atoms: C4_6  and  C5_7 
REMARK       I    between atoms: C5_7  and  N2_9 
REMARK    3  A    between atoms: N2_9  and  C6_10 
REMARK    4  A    between atoms: C6_10  and  C7_11 
REMARK    5  A    between atoms: C6_10  and  C8_13 
REMARK       I    between atoms: C7_11  and  N3_14 
REMARK    6  A    between atoms: N3_14  and  C9_15 
REMARK    7  A    between atoms: C9_15  and  C10_16 
REMARK    8  A    between atoms: C9_15  and  C11_18 
REMARK       I    between atoms: C10_16  and  N4_21 
REMARK    9  A    between atoms: C11_18  and  C12_19 
REMARK   10  A    between atoms: C11_18  and  C13_20 
REMARK   11  A    between atoms: N4_21  and  C14_22 
REMARK   12  A    between atoms: C14_22  and  C15_23 
REMARK   13  A    between atoms: C14_22  and  C16_25 
REMARK       I    between atoms: C15_23  and  N6_40 
REMARK   14  A    between atoms: C16_25  and  C17_26 
REMARK   15  A    between atoms: C17_26  and  C18_27 
REMARK   16  A    between atoms: C17_26  and  C19_28 
REMARK   17  A    between atoms: C20_29  and  C21_30 
REMARK   18  A    between atoms: C20_29  and  C24_33 
REMARK   19  A    between atoms: C20_29  and  N6_40 
REMARK   20  A    between atoms: C21_30  and  C22_31 
REMARK   21  A    between atoms: C22_31  and  C23_32 
REMARK   22  A    between atoms: C23_32  and  O8_43 
REMARK   23  A    between atoms: C24_33  and  C25_34 
REMARK   24  A    between atoms: C28_38  and  O6_39 
REMARK   25  A    between atoms: C29_42  and  O8_43 
REMARK   26  A    between atoms: C29_42  and  C35_49 
ROOT
ATOM      1  C14 non d ame     -34.907   9.183  29.930  0.00  0.00     0.089 C 
ATOM      2  H20 non d ame     -35.838   9.750  29.933  0.00  0.00     0.087 H 
ENDROOT
BRANCH   1   3
ATOM      3  N4  non d ame     -35.117   8.001  29.106  0.00  0.00    -0.346 N 
ATOM      4  C10 non d ame     -36.441   7.775  28.422  0.00  0.00     0.241 C 
ATOM      5  O4  non d ame     -37.324   8.557  28.551  0.00  0.00    -0.271 OA
ATOM      6  H19 non d ame     -34.353   7.346  29.012  0.00  0.00     0.163 HD
BRANCH   4   7
ATOM      7  C9  non d ame     -36.639   6.550  27.569  0.00  0.00     0.092 C 
ATOM      8  H11 non d ame     -37.016   6.850  26.592  0.00  0.00     0.088 H 
BRANCH   7   9
ATOM      9  N3  non d ame     -35.347   5.891  27.351  0.00  0.00    -0.346 N 
ATOM     10  C7  non d ame     -34.747   5.899  26.040  0.00  0.00     0.240 C 
ATOM     11  O3  non d ame     -35.289   6.430  25.149  0.00  0.00    -0.271 OA
ATOM     12  H10 non d ame     -34.868   5.428  28.110  0.00  0.00     0.163 HD
BRANCH  10  13
ATOM     13  C6  non d ame     -33.373   5.194  25.814  0.00  0.00     0.086 C 
ATOM     14  H6  non d ame     -33.427   4.391  25.079  0.00  0.00     0.086 H 
BRANCH  13  15
ATOM     15  N2  non d ame     -32.423   6.167  25.298  0.00  0.00    -0.343 N 
ATOM     16  C5  non d ame     -32.063   6.140  23.879  0.00  0.00     0.273 C 
ATOM     17  O2  non d ame     -32.540   5.331  23.162  0.00  0.00    -0.266 OA
ATOM     18  H5  non d ame     -32.018   6.853  25.920  0.00  0.00     0.163 HD
BRANCH  16  19
ATOM     19  C4  non d ame     -31.062   7.163  23.320  0.00  0.00     0.154 A 
ATOM     20  C1  non d ame     -31.211   8.585  23.279  0.00  0.00    -0.017 A 
ATOM     21  C2  non d ame     -30.024   9.058  22.675  0.00  0.00     0.077 A 
ATOM     22  H1  non d ame     -32.051   9.183  23.632  0.00  0.00     0.091 H 
ATOM     23  O1  non d ame     -29.286   8.021  22.407  0.00  0.00    -0.218 OA
ATOM     24  N1  non d ame     -29.871   6.903  22.773  0.00  0.00    -0.123 NA
BRANCH  21  25
ATOM     25  C3  non d ame     -29.674  10.513  22.393  0.00  0.00    -0.029 C 
ATOM     26  H2  non d ame     -29.552  10.656  21.319  0.00  0.00     0.036 H 
ATOM     27  H3  non d ame     -30.475  11.156  22.755  0.00  0.00     0.036 H 
ATOM     28  H4  non d ame     -28.745  10.768  22.901  0.00  0.00     0.036 H 
ENDBRANCH  21  25
ENDBRANCH  16  19
ENDBRANCH  13  15
BRANCH  13  29
ATOM     29  C8  non d ame     -32.875   4.628  27.119  0.00  0.00    -0.049 C 
ATOM     30  H7  non d ame     -33.307   5.190  27.948  0.00  0.00     0.030 H 
ATOM     31  H8  non d ame     -33.170   3.582  27.197  0.00  0.00     0.030 H 
ATOM     32  H9  non d ame     -31.788   4.704  27.157  0.00  0.00     0.030 H 
ENDBRANCH  13  29
ENDBRANCH  10  13
ENDBRANCH   7   9
BRANCH   7  33
ATOM     33  C11 non d ame     -37.604   5.565  28.292  0.00  0.00    -0.033 C 
ATOM     34  H12 non d ame     -38.617   5.952  28.175  0.00  0.00     0.042 H 
BRANCH  33  35
ATOM     35  C12 non d ame     -37.565   4.148  27.639  0.00  0.00    -0.071 C 
ATOM     36  H13 non d ame     -38.371   3.538  28.047  0.00  0.00     0.028 H 
ATOM     37  H14 non d ame     -37.690   4.241  26.561  0.00  0.00     0.028 H 
ATOM     38  H15 non d ame     -36.607   3.675  27.855  0.00  0.00     0.028 H 
ENDBRANCH  33  35
BRANCH  33  39
ATOM     39  C13 non d ame     -37.289   5.494  29.821  0.00  0.00    -0.071 C 
ATOM     40  H16 non d ame     -37.726   4.587  30.240  0.00  0.00     0.028 H 
ATOM     41  H17 non d ame     -36.208   5.479  29.968  0.00  0.00     0.028 H 
ATOM     42  H18 non d ame     -37.710   6.366  30.320  0.00  0.00     0.028 H 
ENDBRANCH  33  39
ENDBRANCH   7  33
ENDBRANCH   4   7
ENDBRANCH   1   3
BRANCH   1  43
ATOM     43  C15 non d ame     -33.725   9.999  29.332  0.00  0.00     0.240 C 
ATOM     44  O5  non d ame     -32.935   9.463  28.624  0.00  0.00    -0.271 OA
ATOM     45  N6  non d ame     -33.582  11.451  29.637  0.00  0.00    -0.355 N 
ATOM     46  H46 non d ame     -34.250  11.918  30.233  0.00  0.00     0.162 HD
BRANCH  45  47
ATOM     47  C20 non d ame     -32.453  12.213  29.060  0.00  0.00     0.013 C 
ATOM     48  H30 non d ame     -31.569  11.577  29.089  0.00  0.00     0.072 H 
BRANCH  47  49
ATOM     49  C21 non d ame     -32.220  13.460  29.883  0.00  0.00    -0.038 C 
ATOM     50  H31 non d ame     -33.211  13.842  30.126  0.00  0.00     0.036 H 
ATOM     51  H32 non d ame     -31.539  13.162  30.681  0.00  0.00     0.036 H 
BRANCH  49  52
ATOM     52  C22 non d ame     -31.503  14.575  29.092  0.00  0.00     0.018 C 
ATOM     53  H33 non d ame     -30.460  14.534  29.403  0.00  0.00     0.048 H 
ATOM     54  H34 non d ame     -31.767  14.412  28.047  0.00  0.00     0.048 H 
BRANCH  52  55
ATOM     55  C23 non d ame     -31.997  16.007  29.440  0.00  0.00     0.259 C 
ATOM     56  O7  non d ame     -31.441  16.652  30.268  0.00  0.00    -0.265 OA
BRANCH  55  57
ATOM     57  O8  non d ame     -33.133  16.535  28.766  0.00  0.00    -0.317 OA
BRANCH  57  58
ATOM     58  C29 non d ame     -32.828  17.592  27.852  0.00  0.00     0.052 C 
ATOM     59  H47 non d ame     -32.667  18.477  28.467  0.00  0.00     0.082 H 
ATOM     60  H48 non d ame     -32.024  17.213  27.221  0.00  0.00     0.082 H 
BRANCH  58  61
ATOM     61  C35 non d ame     -34.078  17.832  26.963  0.00  0.00    -0.034 A 
ATOM     62  C30 non d ame     -35.012  16.816  26.785  0.00  0.00    -0.075 A 
ATOM     63  C31 non d ame     -36.134  17.031  25.987  0.00  0.00    -0.082 A 
ATOM     64  H49 non d ame     -34.864  15.851  27.270  0.00  0.00     0.084 H 
ATOM     65  C32 non d ame     -36.320  18.268  25.363  0.00  0.00    -0.083 A 
ATOM     66  H50 non d ame     -36.865  16.233  25.850  0.00  0.00     0.083 H 
ATOM     67  C33 non d ame     -35.384  19.277  25.541  0.00  0.00    -0.082 A 
ATOM     68  H51 non d ame     -37.195  18.445  24.738  0.00  0.00     0.083 H 
ATOM     69  C34 non d ame     -34.262  19.067  26.340  0.00  0.00    -0.075 A 
ATOM     70  H52 non d ame     -35.531  20.240  25.051  0.00  0.00     0.083 H 
ATOM     71  H53 non d ame     -33.532  19.866  26.476  0.00  0.00     0.084 H 
ENDBRANCH  58  61
ENDBRANCH  57  58
ENDBRANCH  55  57
ENDBRANCH  52  55
ENDBRANCH  49  52
ENDBRANCH  47  49
BRANCH  47  72
ATOM     72  C24 non d ame     -32.778  12.606  27.620  0.00  0.00    -0.039 C 
ATOM     73  H35 non d ame     -33.636  11.995  27.339  0.00  0.00     0.036 H 
ATOM     74  H36 non d ame     -32.862  13.693  27.628  0.00  0.00     0.036 H 
BRANCH  72  75
ATOM     75  C25 non d ame     -31.583  12.232  26.620  0.00  0.00    -0.001 C 
ATOM     76  C26 non d ame     -31.077  13.579  25.824  0.00  0.00    -0.035 C 
ATOM     77  C27 non d ame     -31.061  13.320  24.495  0.00  0.00     0.085 C 
ATOM     78  H38 non d ame     -31.819  14.371  25.920  0.00  0.00     0.036 H 
ATOM     79  H39 non d ame     -30.031  13.780  26.057  0.00  0.00     0.036 H 
ATOM     80  N5  non d ame     -31.819  12.031  24.287  0.00  0.00    -0.049 N 
ATOM     81  H40 non d ame     -31.614  14.137  24.032  0.00  0.00     0.075 H 
ATOM     82  H41 non d ame     -30.013  13.159  24.242  0.00  0.00     0.075 H 
ATOM     83  C28 non d ame     -31.960  11.358  25.748  0.00  0.00     0.193 C 
ATOM     84  H42 non d ame     -32.740  12.290  23.962  0.00  0.00     0.280 HD
ATOM     85  H43 non d ame     -31.230  11.442  23.717  0.00  0.00     0.280 HD
ATOM     86  H44 non d ame     -31.333  10.512  26.030  0.00  0.00     0.129 H 
ATOM     87  H37 non d ame     -30.817  11.623  27.101  0.00  0.00     0.046 H 
BRANCH  83  88
ATOM     88  O6  non d ame     -33.305  10.926  25.964  0.00  0.00    -0.369 OA
ATOM     89  H45 non d ame     -33.360  10.456  26.799  0.00  0.00     0.212 HD
ENDBRANCH  83  88
ENDBRANCH  72  75
ENDBRANCH  47  72
ENDBRANCH  45  47
ENDBRANCH   1  43
BRANCH   1  90
ATOM     90  C16 non d ame     -34.564   8.747  31.345  0.00  0.00    -0.035 C 
ATOM     91  H21 non d ame     -34.660   7.661  31.344  0.00  0.00     0.037 H 
ATOM     92  H22 non d ame     -33.601   9.209  31.564  0.00  0.00     0.037 H 
BRANCH  90  93
ATOM     93  C17 non d ame     -35.562   9.276  32.423  0.00  0.00    -0.059 C 
ATOM     94  H23 non d ame     -35.481   8.628  33.295  0.00  0.00     0.038 H 
BRANCH  93  95
ATOM     95  C18 non d ame     -35.221  10.731  32.878  0.00  0.00    -0.073 C 
ATOM     96  H24 non d ame     -34.662  10.699  33.812  0.00  0.00     0.028 H 
ATOM     97  H25 non d ame     -34.620  11.220  32.112  0.00  0.00     0.028 H 
ATOM     98  H26 non d ame     -36.145  11.291  33.027  0.00  0.00     0.028 H 
ENDBRANCH  93  95
BRANCH  93  99
ATOM     99  C19 non d ame     -37.006   9.186  31.922  0.00  0.00    -0.073 C 
ATOM    100  H27 non d ame     -37.399  10.191  31.762  0.00  0.00     0.028 H 
ATOM    101  H28 non d ame     -37.031   8.633  30.983  0.00  0.00     0.028 H 
ATOM    102  H29 non d ame     -37.616   8.671  32.663  0.00  0.00     0.028 H 
ENDBRANCH  93  99
ENDBRANCH  90  93
ENDBRANCH   1  90
TORSDOF 26
ENDMDL
MODEL 19
REMARK VINA RESULT:      -5.9      2.610      7.267
REMARK  26 active torsions:
REMARK  status: ('A' for Active; 'I' for Inactive)
REMARK    1  A    between atoms: C2_2  and  C3_3 
REMARK    2  A    between atoms: C4_6  and  C5_7 
REMARK       I    between atoms: C5_7  and  N2_9 
REMARK    3  A    between atoms: N2_9  and  C6_10 
REMARK    4  A    between atoms: C6_10  and  C7_11 
REMARK    5  A    between atoms: C6_10  and  C8_13 
REMARK       I    between atoms: C7_11  and  N3_14 
REMARK    6  A    between atoms: N3_14  and  C9_15 
REMARK    7  A    between atoms: C9_15  and  C10_16 
REMARK    8  A    between atoms: C9_15  and  C11_18 
REMARK       I    between atoms: C10_16  and  N4_21 
REMARK    9  A    between atoms: C11_18  and  C12_19 
REMARK   10  A    between atoms: C11_18  and  C13_20 
REMARK   11  A    between atoms: N4_21  and  C14_22 
REMARK   12  A    between atoms: C14_22  and  C15_23 
REMARK   13  A    between atoms: C14_22  and  C16_25 
REMARK       I    between atoms: C15_23  and  N6_40 
REMARK   14  A    between atoms: C16_25  and  C17_26 
REMARK   15  A    between atoms: C17_26  and  C18_27 
REMARK   16  A    between atoms: C17_26  and  C19_28 
REMARK   17  A    between atoms: C20_29  and  C21_30 
REMARK   18  A    between atoms: C20_29  and  C24_33 
REMARK   19  A    between atoms: C20_29  and  N6_40 
REMARK   20  A    between atoms: C21_30  and  C22_31 
REMARK   21  A    between atoms: C22_31  and  C23_32 
REMARK   22  A    between atoms: C23_32  and  O8_43 
REMARK   23  A    between atoms: C24_33  and  C25_34 
REMARK   24  A    between atoms: C28_38  and  O6_39 
REMARK   25  A    between atoms: C29_42  and  O8_43 
REMARK   26  A    between atoms: C29_42  and  C35_49 
ROOT
ATOM      1  C14 non d ame     -35.990   8.959  25.765  0.00  0.00     0.089 C 
ATOM      2  H20 non d ame     -37.049   8.740  25.624  0.00  0.00     0.087 H 
ENDROOT
BRANCH   1   3
ATOM      3  N4  non d ame     -35.670   8.695  27.160  0.00  0.00    -0.346 N 
ATOM      4  C10 non d ame     -36.745   8.245  28.116  0.00  0.00     0.241 C 
ATOM      5  O4  non d ame     -37.862   8.104  27.741  0.00  0.00    -0.271 OA
ATOM      6  H19 non d ame     -34.714   8.823  27.460  0.00  0.00     0.163 HD
BRANCH   4   7
ATOM      7  C9  non d ame     -36.394   7.972  29.555  0.00  0.00     0.092 C 
ATOM      8  H11 non d ame     -35.584   7.243  29.595  0.00  0.00     0.088 H 
BRANCH   7   9
ATOM      9  N3  non d ame     -35.900   9.202  30.181  0.00  0.00    -0.346 N 
ATOM     10  C7  non d ame     -34.809   9.144  31.123  0.00  0.00     0.240 C 
ATOM     11  O3  non d ame     -34.318   8.116  31.390  0.00  0.00    -0.271 OA
ATOM     12  H10 non d ame     -36.315  10.096  29.962  0.00  0.00     0.163 HD
BRANCH  10  13
ATOM     13  C6  non d ame     -34.290  10.457  31.787  0.00  0.00     0.086 C 
ATOM     14  H6  non d ame     -33.394  10.300  32.388  0.00  0.00     0.086 H 
BRANCH  13  15
ATOM     15  N2  non d ame     -33.931  11.403  30.744  0.00  0.00    -0.343 N 
ATOM     16  C5  non d ame     -32.519  11.630  30.431  0.00  0.00     0.273 C 
ATOM     17  O2  non d ame     -31.679  11.049  31.026  0.00  0.00    -0.266 OA
ATOM     18  H5  non d ame     -34.655  11.898  30.243  0.00  0.00     0.163 HD
BRANCH  16  19
ATOM     19  C4  non d ame     -32.125  12.627  29.330  0.00  0.00     0.154 A 
ATOM     20  C1  non d ame     -32.682  13.924  29.098  0.00  0.00    -0.017 A 
ATOM     21  C2  non d ame     -31.981  14.427  27.979  0.00  0.00     0.077 A 
ATOM     22  H1  non d ame     -33.474  14.424  29.656  0.00  0.00     0.091 H 
ATOM     23  O1  non d ame     -31.123  13.517  27.620  0.00  0.00    -0.218 OA
ATOM     24  N1  non d ame     -31.188  12.458  28.392  0.00  0.00    -0.123 NA
BRANCH  21  25
ATOM     25  C3  non d ame     -32.191  15.782  27.318  0.00  0.00    -0.029 C 
ATOM     26  H2  non d ame     -33.174  15.811  26.850  0.00  0.00     0.036 H 
ATOM     27  H3  non d ame     -32.124  16.567  28.071  0.00  0.00     0.036 H 
ATOM     28  H4  non d ame     -31.423  15.940  26.560  0.00  0.00     0.036 H 
ENDBRANCH  21  25
ENDBRANCH  16  19
ENDBRANCH  13  15
BRANCH  13  29
ATOM     29  C8  non d ame     -35.369  11.040  32.665  0.00  0.00    -0.049 C 
ATOM     30  H7  non d ame     -35.115  12.069  32.917  0.00  0.00     0.030 H 
ATOM     31  H8  non d ame     -36.320  11.019  32.133  0.00  0.00     0.030 H 
ATOM     32  H9  non d ame     -35.451  10.452  33.579  0.00  0.00     0.030 H 
ENDBRANCH  13  29
ENDBRANCH  10  13
ENDBRANCH   7   9
BRANCH   7  33
ATOM     33  C11 non d ame     -37.661   7.480  30.314  0.00  0.00    -0.033 C 
ATOM     34  H12 non d ame     -38.450   7.334  29.576  0.00  0.00     0.042 H 
BRANCH  33  35
ATOM     35  C12 non d ame     -37.410   6.106  31.010  0.00  0.00    -0.071 C 
ATOM     36  H13 non d ame     -37.556   5.301  30.289  0.00  0.00     0.028 H 
ATOM     37  H14 non d ame     -36.389   6.073  31.390  0.00  0.00     0.028 H 
ATOM     38  H15 non d ame     -38.110   5.984  31.836  0.00  0.00     0.028 H 
ENDBRANCH  33  35
BRANCH  33  39
ATOM     39  C13 non d ame     -38.151   8.553  31.339  0.00  0.00    -0.071 C 
ATOM     40  H16 non d ame     -39.206   8.765  31.166  0.00  0.00     0.028 H 
ATOM     41  H17 non d ame     -38.017   8.175  32.353  0.00  0.00     0.028 H 
ATOM     42  H18 non d ame     -37.571   9.467  31.213  0.00  0.00     0.028 H 
ENDBRANCH  33  39
ENDBRANCH   7  33
ENDBRANCH   4   7
ENDBRANCH   1   3
BRANCH   1  43
ATOM     43  C15 non d ame     -35.083   8.066  24.871  0.00  0.00     0.240 C 
ATOM     44  O5  non d ame     -35.531   7.091  24.361  0.00  0.00    -0.271 OA
ATOM     45  N6  non d ame     -33.656   8.433  24.643  0.00  0.00    -0.355 N 
ATOM     46  H46 non d ame     -33.265   9.261  25.067  0.00  0.00     0.162 HD
BRANCH  45  47
ATOM     47  C20 non d ame     -32.806   7.574  23.789  0.00  0.00     0.013 C 
ATOM     48  H30 non d ame     -33.444   6.818  23.334  0.00  0.00     0.072 H 
BRANCH  47  49
ATOM     49  C21 non d ame     -31.748   6.912  24.642  0.00  0.00    -0.038 C 
ATOM     50  H31 non d ame     -31.063   6.433  23.943  0.00  0.00     0.036 H 
ATOM     51  H32 non d ame     -31.385   7.689  25.316  0.00  0.00     0.036 H 
BRANCH  49  52
ATOM     52  C22 non d ame     -32.316   5.789  25.537  0.00  0.00     0.018 C 
ATOM     53  H33 non d ame     -33.313   5.580  25.151  0.00  0.00     0.048 H 
ATOM     54  H34 non d ame     -31.558   5.005  25.543  0.00  0.00     0.048 H 
BRANCH  52  55
ATOM     55  C23 non d ame     -32.510   6.208  27.021  0.00  0.00     0.259 C 
ATOM     56  O7  non d ame     -32.635   7.353  27.313  0.00  0.00    -0.265 OA
BRANCH  55  57
ATOM     57  O8  non d ame     -32.526   5.207  28.031  0.00  0.00    -0.317 OA
BRANCH  57  58
ATOM     58  C29 non d ame     -33.749   5.144  28.770  0.00  0.00     0.052 C 
ATOM     59  H47 non d ame     -33.508   4.621  29.695  0.00  0.00     0.082 H 
ATOM     60  H48 non d ame     -34.126   6.166  28.804  0.00  0.00     0.082 H 
BRANCH  58  61
ATOM     61  C35 non d ame     -34.752   4.277  27.963  0.00  0.00    -0.034 A 
ATOM     62  C30 non d ame     -34.304   3.157  27.270  0.00  0.00    -0.075 A 
ATOM     63  C31 non d ame     -35.205   2.379  26.544  0.00  0.00    -0.082 A 
ATOM     64  H49 non d ame     -33.248   2.890  27.294  0.00  0.00     0.084 H 
ATOM     65  C32 non d ame     -36.559   2.725  26.512  0.00  0.00    -0.083 A 
ATOM     66  H50 non d ame     -34.851   1.501  26.003  0.00  0.00     0.083 H 
ATOM     67  C33 non d ame     -37.000   3.846  27.203  0.00  0.00    -0.082 A 
ATOM     68  H51 non d ame     -37.270   2.122  25.948  0.00  0.00     0.083 H 
ATOM     69  C34 non d ame     -36.104   4.625  27.931  0.00  0.00    -0.075 A 
ATOM     70  H52 non d ame     -38.056   4.115  27.174  0.00  0.00     0.083 H 
ATOM     71  H53 non d ame     -36.458   5.503  28.471  0.00  0.00     0.084 H 
ENDBRANCH  58  61
ENDBRANCH  57  58
ENDBRANCH  55  57
ENDBRANCH  52  55
ENDBRANCH  49  52
ENDBRANCH  47  49
BRANCH  47  72
ATOM     72  C24 non d ame     -32.135   8.422  22.711  0.00  0.00    -0.039 C 
ATOM     73  H35 non d ame     -31.780   7.712  21.963  0.00  0.00     0.036 H 
ATOM     74  H36 non d ame     -32.870   9.179  22.437  0.00  0.00     0.036 H 
BRANCH  72  75
ATOM     75  C25 non d ame     -30.850   9.193  23.277  0.00  0.00    -0.001 C 
ATOM     76  C26 non d ame     -31.229  10.764  23.582  0.00  0.00    -0.035 C 
ATOM     77  C27 non d ame     -30.314  11.559  22.976  0.00  0.00     0.085 C 
ATOM     78  H38 non d ame     -32.163  11.026  23.085  0.00  0.00     0.036 H 
ATOM     79  H39 non d ame     -31.095  10.983  24.641  0.00  0.00     0.036 H 
ATOM     80  N5  non d ame     -29.537  10.688  22.019  0.00  0.00    -0.049 N 
ATOM     81  H40 non d ame     -30.892  12.287  22.407  0.00  0.00     0.075 H 
ATOM     82  H41 non d ame     -29.648  11.894  23.771  0.00  0.00     0.075 H 
ATOM     83  C28 non d ame     -29.876   9.164  22.430  0.00  0.00     0.193 C 
ATOM     84  H42 non d ame     -29.916  10.865  21.099  0.00  0.00     0.280 HD
ATOM     85  H43 non d ame     -28.560  10.862  22.204  0.00  0.00     0.280 HD
ATOM     86  H44 non d ame     -29.151   8.566  22.983  0.00  0.00     0.129 H 
ATOM     87  H37 non d ame     -30.354   8.640  24.075  0.00  0.00     0.046 H 
BRANCH  83  88
ATOM     88  O6  non d ame     -30.196   8.399  21.267  0.00  0.00    -0.369 OA
ATOM     89  H45 non d ame     -29.408   7.948  20.954  0.00  0.00     0.212 HD
ENDBRANCH  83  88
ENDBRANCH  72  75
ENDBRANCH  47  72
ENDBRANCH  45  47
ENDBRANCH   1  43
BRANCH   1  90
ATOM     90  C16 non d ame     -35.723  10.424  25.462  0.00  0.00    -0.035 C 
ATOM     91  H21 non d ame     -35.479  10.877  26.423  0.00  0.00     0.037 H 
ATOM     92  H22 non d ame     -34.988  10.424  24.658  0.00  0.00     0.037 H 
BRANCH  90  93
ATOM     93  C17 non d ame     -36.971  11.190  24.919  0.00  0.00    -0.059 C 
ATOM     94  H23 non d ame     -36.691  12.236  24.797  0.00  0.00     0.038 H 
BRANCH  93  95
ATOM     95  C18 non d ame     -37.430  10.654  23.524  0.00  0.00    -0.073 C 
ATOM     96  H24 non d ame     -38.062  11.397  23.039  0.00  0.00     0.028 H 
ATOM     97  H25 non d ame     -36.555  10.462  22.903  0.00  0.00     0.028 H 
ATOM     98  H26 non d ame     -37.991   9.730  23.657  0.00  0.00     0.028 H 
ENDBRANCH  93  95
BRANCH  93  99
ATOM     99  C19 non d ame     -38.123  11.142  25.926  0.00  0.00    -0.073 C 
ATOM    100  H27 non d ame     -37.753  10.781  26.886  0.00  0.00     0.028 H 
ATOM    101  H28 non d ame     -38.540  12.142  26.050  0.00  0.00     0.028 H 
ATOM    102  H29 non d ame     -38.899  10.469  25.560  0.00  0.00     0.028 H 
ENDBRANCH  93  99
ENDBRANCH  90  93
ENDBRANCH   1  90
TORSDOF 26
ENDMDL
MODEL 20
REMARK VINA RESULT:      -5.9      2.865      7.104
REMARK  26 active torsions:
REMARK  status: ('A' for Active; 'I' for Inactive)
REMARK    1  A    between atoms: C2_2  and  C3_3 
REMARK    2  A    between atoms: C4_6  and  C5_7 
REMARK       I    between atoms: C5_7  and  N2_9 
REMARK    3  A    between atoms: N2_9  and  C6_10 
REMARK    4  A    between atoms: C6_10  and  C7_11 
REMARK    5  A    between atoms: C6_10  and  C8_13 
REMARK       I    between atoms: C7_11  and  N3_14 
REMARK    6  A    between atoms: N3_14  and  C9_15 
REMARK    7  A    between atoms: C9_15  and  C10_16 
REMARK    8  A    between atoms: C9_15  and  C11_18 
REMARK       I    between atoms: C10_16  and  N4_21 
REMARK    9  A    between atoms: C11_18  and  C12_19 
REMARK   10  A    between atoms: C11_18  and  C13_20 
REMARK   11  A    between atoms: N4_21  and  C14_22 
REMARK   12  A    between atoms: C14_22  and  C15_23 
REMARK   13  A    between atoms: C14_22  and  C16_25 
REMARK       I    between atoms: C15_23  and  N6_40 
REMARK   14  A    between atoms: C16_25  and  C17_26 
REMARK   15  A    between atoms: C17_26  and  C18_27 
REMARK   16  A    between atoms: C17_26  and  C19_28 
REMARK   17  A    between atoms: C20_29  and  C21_30 
REMARK   18  A    between atoms: C20_29  and  C24_33 
REMARK   19  A    between atoms: C20_29  and  N6_40 
REMARK   20  A    between atoms: C21_30  and  C22_31 
REMARK   21  A    between atoms: C22_31  and  C23_32 
REMARK   22  A    between atoms: C23_32  and  O8_43 
REMARK   23  A    between atoms: C24_33  and  C25_34 
REMARK   24  A    between atoms: C28_38  and  O6_39 
REMARK   25  A    between atoms: C29_42  and  O8_43 
REMARK   26  A    between atoms: C29_42  and  C35_49 
ROOT
ATOM      1  C14 non d ame     -36.008   9.684  31.010  0.00  0.00     0.089 C 
ATOM      2  H20 non d ame     -36.729  10.370  31.455  0.00  0.00     0.087 H 
ENDROOT
BRANCH   1   3
ATOM      3  N4  non d ame     -36.429   9.433  29.640  0.00  0.00    -0.346 N 
ATOM      4  C10 non d ame     -37.627  10.150  29.068  0.00  0.00     0.241 C 
ATOM      5  O4  non d ame     -38.237  10.922  29.731  0.00  0.00    -0.271 OA
ATOM      6  H19 non d ame     -35.898   8.771  29.093  0.00  0.00     0.163 HD
BRANCH   4   7
ATOM      7  C9  non d ame     -38.045   9.883  27.646  0.00  0.00     0.092 C 
ATOM      8  H11 non d ame     -39.132   9.824  27.597  0.00  0.00     0.088 H 
BRANCH   7   9
ATOM      9  N3  non d ame     -37.632  11.004  26.796  0.00  0.00    -0.346 N 
ATOM     10  C7  non d ame     -38.580  12.038  26.458  0.00  0.00     0.240 C 
ATOM     11  O3  non d ame     -39.678  11.982  26.859  0.00  0.00    -0.271 OA
ATOM     12  H10 non d ame     -36.689  11.065  26.441  0.00  0.00     0.163 HD
BRANCH  10  13
ATOM     13  C6  non d ame     -38.136  13.227  25.550  0.00  0.00     0.086 C 
ATOM     14  H6  non d ame     -38.472  14.193  25.927  0.00  0.00     0.086 H 
BRANCH  13  15
ATOM     15  N2  non d ame     -36.684  13.277  25.516  0.00  0.00    -0.343 N 
ATOM     16  C5  non d ame     -36.000  14.552  25.743  0.00  0.00     0.273 C 
ATOM     17  O2  non d ame     -36.628  15.533  25.949  0.00  0.00    -0.266 OA
ATOM     18  H5  non d ame     -36.155  12.435  25.336  0.00  0.00     0.163 HD
BRANCH  16  19
ATOM     19  C4  non d ame     -34.465  14.620  25.710  0.00  0.00     0.154 A 
ATOM     20  C1  non d ame     -33.656  15.579  25.023  0.00  0.00    -0.017 A 
ATOM     21  C2  non d ame     -32.325  15.204  25.310  0.00  0.00     0.077 A 
ATOM     22  H1  non d ame     -33.984  16.419  24.410  0.00  0.00     0.091 H 
ATOM     23  O1  non d ame     -32.375  14.153  26.075  0.00  0.00    -0.218 OA
ATOM     24  N1  non d ame     -33.613  13.792  26.322  0.00  0.00    -0.123 NA
BRANCH  21  25
ATOM     25  C3  non d ame     -31.065  15.903  24.817  0.00  0.00    -0.029 C 
ATOM     26  H2  non d ame     -30.958  16.861  25.325  0.00  0.00     0.036 H 
ATOM     27  H3  non d ame     -30.197  15.280  25.031  0.00  0.00     0.036 H 
ATOM     28  H4  non d ame     -31.138  16.068  23.742  0.00  0.00     0.036 H 
ENDBRANCH  21  25
ENDBRANCH  16  19
ENDBRANCH  13  15
BRANCH  13  29
ATOM     29  C8  non d ame     -38.679  13.031  24.158  0.00  0.00    -0.049 C 
ATOM     30  H7  non d ame     -39.597  13.607  24.041  0.00  0.00     0.030 H 
ATOM     31  H8  non d ame     -37.943  13.369  23.430  0.00  0.00     0.030 H 
ATOM     32  H9  non d ame     -38.891  11.973  23.996  0.00  0.00     0.030 H 
ENDBRANCH  13  29
ENDBRANCH  10  13
ENDBRANCH   7   9
BRANCH   7  33
ATOM     33  C11 non d ame     -37.365   8.576  27.142  0.00  0.00    -0.033 C 
ATOM     34  H12 non d ame     -36.788   8.166  27.970  0.00  0.00     0.042 H 
BRANCH  33  35
ATOM     35  C12 non d ame     -38.424   7.506  26.732  0.00  0.00    -0.071 C 
ATOM     36  H13 non d ame     -38.383   6.669  27.429  0.00  0.00     0.028 H 
ATOM     37  H14 non d ame     -39.418   7.951  26.756  0.00  0.00     0.028 H 
ATOM     38  H15 non d ame     -38.209   7.150  25.724  0.00  0.00     0.028 H 
ENDBRANCH  33  35
BRANCH  33  39
ATOM     39  C13 non d ame     -36.378   8.876  25.968  0.00  0.00    -0.071 C 
ATOM     40  H16 non d ame     -36.517   9.903  25.630  0.00  0.00     0.028 H 
ATOM     41  H17 non d ame     -35.352   8.741  26.311  0.00  0.00     0.028 H 
ATOM     42  H18 non d ame     -36.577   8.192  25.143  0.00  0.00     0.028 H 
ENDBRANCH  33  39
ENDBRANCH   7  33
ENDBRANCH   4   7
ENDBRANCH   1   3
BRANCH   1  43
ATOM     43  C15 non d ame     -34.570  10.276  30.986  0.00  0.00     0.240 C 
ATOM     44  O5  non d ame     -33.752   9.874  31.749  0.00  0.00    -0.271 OA
ATOM     45  N6  non d ame     -34.210  11.340  30.006  0.00  0.00    -0.355 N 
ATOM     46  H46 non d ame     -34.895  11.687  29.350  0.00  0.00     0.162 HD
BRANCH  45  47
ATOM     47  C20 non d ame     -32.839  11.893  29.995  0.00  0.00     0.013 C 
ATOM     48  H30 non d ame     -32.447  11.838  31.010  0.00  0.00     0.072 H 
BRANCH  47  49
ATOM     49  C21 non d ame     -32.883  13.332  29.535  0.00  0.00    -0.038 C 
ATOM     50  H31 non d ame     -33.259  13.304  28.512  0.00  0.00     0.036 H 
ATOM     51  H32 non d ame     -33.438  13.870  30.305  0.00  0.00     0.036 H 
BRANCH  49  52
ATOM     52  C22 non d ame     -31.485  13.984  29.469  0.00  0.00     0.018 C 
ATOM     53  H33 non d ame     -30.945  13.613  30.339  0.00  0.00     0.048 H 
ATOM     54  H34 non d ame     -31.110  13.778  28.466  0.00  0.00     0.048 H 
BRANCH  52  55
ATOM     55  C23 non d ame     -31.508  15.532  29.608  0.00  0.00     0.259 C 
ATOM     56  O7  non d ame     -30.693  16.090  30.269  0.00  0.00    -0.265 OA
BRANCH  55  57
ATOM     57  O8  non d ame     -32.523  16.276  28.946  0.00  0.00    -0.317 OA
BRANCH  57  58
ATOM     58  C29 non d ame     -32.206  17.658  28.762  0.00  0.00     0.052 C 
ATOM     59  H47 non d ame     -32.471  18.149  29.698  0.00  0.00     0.082 H 
ATOM     60  H48 non d ame     -31.175  17.680  28.408  0.00  0.00     0.082 H 
BRANCH  58  61
ATOM     61  C35 non d ame     -33.121  18.214  27.638  0.00  0.00    -0.034 A 
ATOM     62  C30 non d ame     -32.565  18.888  26.556  0.00  0.00    -0.075 A 
ATOM     63  C31 non d ame     -33.387  19.387  25.547  0.00  0.00    -0.082 A 
ATOM     64  H49 non d ame     -31.485  19.024  26.498  0.00  0.00     0.084 H 
ATOM     65  C32 non d ame     -34.771  19.214  25.625  0.00  0.00    -0.083 A 
ATOM     66  H50 non d ame     -32.948  19.913  24.699  0.00  0.00     0.083 H 
ATOM     67  C33 non d ame     -35.322  18.544  26.709  0.00  0.00    -0.082 A 
ATOM     68  H51 non d ame     -35.421  19.601  24.840  0.00  0.00     0.083 H 
ATOM     69  C34 non d ame     -34.504  18.041  27.718  0.00  0.00    -0.075 A 
ATOM     70  H52 non d ame     -36.403  18.412  26.768  0.00  0.00     0.083 H 
ATOM     71  H53 non d ame     -34.945  17.515  28.566  0.00  0.00     0.084 H 
ENDBRANCH  58  61
ENDBRANCH  57  58
ENDBRANCH  55  57
ENDBRANCH  52  55
ENDBRANCH  49  52
ENDBRANCH  47  49
BRANCH  47  72
ATOM     72  C24 non d ame     -31.962  11.081  29.043  0.00  0.00    -0.039 C 
ATOM     73  H35 non d ame     -31.263  11.797  28.610  0.00  0.00     0.036 H 
ATOM     74  H36 non d ame     -31.589  10.245  29.635  0.00  0.00     0.036 H 
BRANCH  72  75
ATOM     75  C25 non d ame     -32.814  10.462  27.836  0.00  0.00    -0.001 C 
ATOM     76  C26 non d ame     -32.941   8.833  28.016  0.00  0.00    -0.035 C 
ATOM     77  C27 non d ame     -32.565   8.235  26.860  0.00  0.00     0.085 C 
ATOM     78  H38 non d ame     -32.205   8.478  28.737  0.00  0.00     0.036 H 
ATOM     79  H39 non d ame     -33.988   8.548  28.121  0.00  0.00     0.036 H 
ATOM     80  N5  non d ame     -31.883   9.288  26.020  0.00  0.00    -0.049 N 
ATOM     81  H40 non d ame     -31.832   7.481  27.148  0.00  0.00     0.075 H 
ATOM     82  H41 non d ame     -33.492   7.936  26.372  0.00  0.00     0.075 H 
ATOM     83  C28 non d ame     -32.256  10.706  26.697  0.00  0.00     0.193 C 
ATOM     84  H42 non d ame     -30.890   9.135  26.120  0.00  0.00     0.280 HD
ATOM     85  H43 non d ame     -32.312   9.245  25.106  0.00  0.00     0.280 HD
ATOM     86  H44 non d ame     -33.004  11.356  26.244  0.00  0.00     0.129 H 
ATOM     87  H37 non d ame     -33.737  11.014  27.656  0.00  0.00     0.046 H 
BRANCH  83  88
ATOM     88  O6  non d ame     -31.083  11.510  26.833  0.00  0.00    -0.369 OA
ATOM     89  H45 non d ame     -30.756  11.449  27.734  0.00  0.00     0.212 HD
ENDBRANCH  83  88
ENDBRANCH  72  75
ENDBRANCH  47  72
ENDBRANCH  45  47
ENDBRANCH   1  43
BRANCH   1  90
ATOM     90  C16 non d ame     -36.007   8.371  31.777  0.00  0.00    -0.035 C 
ATOM     91  H21 non d ame     -35.036   8.324  32.268  0.00  0.00     0.037 H 
ATOM     92  H22 non d ame     -36.920   8.384  32.373  0.00  0.00     0.037 H 
BRANCH  90  93
ATOM     93  C17 non d ame     -36.099   7.110  30.859  0.00  0.00    -0.059 C 
ATOM     94  H23 non d ame     -36.034   7.448  29.825  0.00  0.00     0.038 H 
BRANCH  93  95
ATOM     95  C18 non d ame     -34.922   6.113  31.110  0.00  0.00    -0.073 C 
ATOM     96  H24 non d ame     -35.135   5.514  31.995  0.00  0.00     0.028 H 
ATOM     97  H25 non d ame     -34.812   5.456  30.247  0.00  0.00     0.028 H 
ATOM     98  H26 non d ame     -33.999   6.671  31.261  0.00  0.00     0.028 H 
ENDBRANCH  93  95
BRANCH  93  99
ATOM     99  C19 non d ame     -37.450   6.410  31.025  0.00  0.00    -0.073 C 
ATOM    100  H27 non d ame     -37.400   5.715  31.864  0.00  0.00     0.028 H 
ATOM    101  H28 non d ame     -38.224   7.154  31.216  0.00  0.00     0.028 H 
ATOM    102  H29 non d ame     -37.690   5.863  30.114  0.00  0.00     0.028 H 
ENDBRANCH  93  99
ENDBRANCH  90  93
ENDBRANCH   1  90
TORSDOF 26
ENDMDL
