MODEL 1
REMARK VINA RESULT:      -6.6      0.000      0.000
REMARK  26 active torsions:
REMARK  status: ('A' for Active; 'I' for Inactive)
REMARK    1  A    between atoms: C2_2  and  C3_3 
REMARK    2  A    between atoms: C4_6  and  C5_7 
REMARK       I    between atoms: C5_7  and  N2_9 
REMARK    3  A    between atoms: N2_9  and  C6_10 
REMARK    4  A    between atoms: C6_10  and  C7_11 
REMARK    5  A    between atoms: C6_10  and  C8_13 
REMARK       I    between atoms: C7_11  and  N3_14 
REMARK    6  A    between atoms: N3_14  and  C9_15 
REMARK    7  A    between atoms: C9_15  and  C10_16 
REMARK    8  A    between atoms: C9_15  and  C11_18 
REMARK       I    between atoms: C10_16  and  N4_21 
REMARK    9  A    between atoms: C11_18  and  C12_19 
REMARK   10  A    between atoms: C11_18  and  C13_20 
REMARK   11  A    between atoms: N4_21  and  C14_22 
REMARK   12  A    between atoms: C14_22  and  C15_23 
REMARK   13  A    between atoms: C14_22  and  C16_25 
REMARK       I    between atoms: C15_23  and  N6_40 
REMARK   14  A    between atoms: C16_25  and  C17_26 
REMARK   15  A    between atoms: C17_26  and  C18_27 
REMARK   16  A    between atoms: C17_26  and  C19_28 
REMARK   17  A    between atoms: C20_29  and  C21_30 
REMARK   18  A    between atoms: C20_29  and  C24_33 
REMARK   19  A    between atoms: C20_29  and  N6_40 
REMARK   20  A    between atoms: C21_30  and  C22_31 
REMARK   21  A    between atoms: C22_31  and  C23_32 
REMARK   22  A    between atoms: C23_32  and  O8_43 
REMARK   23  A    between atoms: C24_33  and  C25_34 
REMARK   24  A    between atoms: C28_38  and  O6_39 
REMARK   25  A    between atoms: C29_42  and  O8_43 
REMARK   26  A    between atoms: C29_42  and  C35_49 
ROOT
ATOM      1  C14 non d ame     -35.996  13.129  26.095  0.00  0.00     0.089 C 
ATOM      2  H20 non d ame     -36.725  12.941  26.883  0.00  0.00     0.087 H 
ENDROOT
BRANCH   1   3
ATOM      3  N4  non d ame     -35.762  14.565  26.049  0.00  0.00    -0.346 N 
ATOM      4  C10 non d ame     -36.818  15.525  26.536  0.00  0.00     0.241 C 
ATOM      5  O4  non d ame     -37.850  15.118  26.958  0.00  0.00    -0.271 OA
ATOM      6  H19 non d ame     -34.878  14.891  25.683  0.00  0.00     0.163 HD
BRANCH   4   7
ATOM      7  C9  non d ame     -36.557  17.008  26.485  0.00  0.00     0.092 C 
ATOM      8  H11 non d ame     -36.786  17.445  27.457  0.00  0.00     0.088 H 
BRANCH   7   9
ATOM      9  N3  non d ame     -35.133  17.245  26.228  0.00  0.00    -0.346 N 
ATOM     10  C7  non d ame     -34.244  17.549  27.322  0.00  0.00     0.240 C 
ATOM     11  O3  non d ame     -34.658  17.608  28.415  0.00  0.00    -0.271 OA
ATOM     12  H10 non d ame     -34.762  17.199  25.290  0.00  0.00     0.163 HD
BRANCH  10  13
ATOM     13  C6  non d ame     -32.731  17.804  27.041  0.00  0.00     0.086 C 
ATOM     14  H6  non d ame     -32.080  17.312  27.764  0.00  0.00     0.086 H 
BRANCH  13  15
ATOM     15  N2  non d ame     -32.394  17.257  25.738  0.00  0.00    -0.343 N 
ATOM     16  C5  non d ame     -31.698  15.971  25.653  0.00  0.00     0.273 C 
ATOM     17  O2  non d ame     -31.410  15.387  26.639  0.00  0.00    -0.266 OA
ATOM     18  H5  non d ame     -32.642  17.764  24.900  0.00  0.00     0.163 HD
BRANCH  16  19
ATOM     19  C4  non d ame     -31.338  15.380  24.281  0.00  0.00     0.154 A 
ATOM     20  C1  non d ame     -31.304  16.066  23.026  0.00  0.00    -0.017 A 
ATOM     21  C2  non d ame     -30.917  15.084  22.086  0.00  0.00     0.077 A 
ATOM     22  H1  non d ame     -31.526  17.114  22.827  0.00  0.00     0.091 H 
ATOM     23  O1  non d ame     -30.750  13.970  22.736  0.00  0.00    -0.218 OA
ATOM     24  N1  non d ame     -30.990  14.117  24.018  0.00  0.00    -0.123 NA
BRANCH  21  25
ATOM     25  C3  non d ame     -30.730  15.294  20.589  0.00  0.00    -0.029 C 
ATOM     26  H2  non d ame     -31.663  15.650  20.152  0.00  0.00     0.036 H 
ATOM     27  H3  non d ame     -29.946  16.032  20.421  0.00  0.00     0.036 H 
ATOM     28  H4  non d ame     -30.447  14.351  20.122  0.00  0.00     0.036 H 
ENDBRANCH  21  25
ENDBRANCH  16  19
ENDBRANCH  13  15
BRANCH  13  29
ATOM     29  C8  non d ame     -32.455  19.286  27.066  0.00  0.00    -0.049 C 
ATOM     30  H7  non d ame     -33.316  19.822  26.667  0.00  0.00     0.030 H 
ATOM     31  H8  non d ame     -32.273  19.604  28.092  0.00  0.00     0.030 H 
ATOM     32  H9  non d ame     -31.577  19.503  26.457  0.00  0.00     0.030 H 
ENDBRANCH  13  29
ENDBRANCH  10  13
ENDBRANCH   7   9
BRANCH   7  33
ATOM     33  C11 non d ame     -37.401  17.644  25.343  0.00  0.00    -0.033 C 
ATOM     34  H12 non d ame     -38.434  17.698  25.687  0.00  0.00     0.042 H 
BRANCH  33  35
ATOM     35  C12 non d ame     -36.933  19.101  25.034  0.00  0.00    -0.071 C 
ATOM     36  H13 non d ame     -37.241  19.375  24.025  0.00  0.00     0.028 H 
ATOM     37  H14 non d ame     -37.384  19.786  25.750  0.00  0.00     0.028 H 
ATOM     38  H15 non d ame     -35.847  19.157  25.110  0.00  0.00     0.028 H 
ENDBRANCH  33  35
BRANCH  33  39
ATOM     39  C13 non d ame     -37.366  16.754  24.059  0.00  0.00    -0.071 C 
ATOM     40  H16 non d ame     -38.382  16.606  23.692  0.00  0.00     0.028 H 
ATOM     41  H17 non d ame     -36.770  17.247  23.291  0.00  0.00     0.028 H 
ATOM     42  H18 non d ame     -36.922  15.788  24.298  0.00  0.00     0.028 H 
ENDBRANCH  33  39
ENDBRANCH   7  33
ENDBRANCH   4   7
ENDBRANCH   1   3
BRANCH   1  43
ATOM     43  C15 non d ame     -34.640  12.416  26.367  0.00  0.00     0.240 C 
ATOM     44  O5  non d ame     -33.619  12.975  26.126  0.00  0.00    -0.271 OA
ATOM     45  N6  non d ame     -34.615  11.037  26.934  0.00  0.00    -0.355 N 
ATOM     46  H46 non d ame     -35.476  10.554  27.147  0.00  0.00     0.162 HD
BRANCH  45  47
ATOM     47  C20 non d ame     -33.319  10.373  27.188  0.00  0.00     0.013 C 
ATOM     48  H30 non d ame     -32.527  11.041  26.849  0.00  0.00     0.072 H 
BRANCH  47  49
ATOM     49  C21 non d ame     -33.263   9.074  26.416  0.00  0.00    -0.038 C 
ATOM     50  H31 non d ame     -34.296   8.734  26.337  0.00  0.00     0.036 H 
ATOM     51  H32 non d ame     -32.691   9.292  25.514  0.00  0.00     0.036 H 
BRANCH  49  52
ATOM     52  C22 non d ame     -32.494   7.964  27.164  0.00  0.00     0.018 C 
ATOM     53  H33 non d ame     -31.480   7.988  26.767  0.00  0.00     0.048 H 
ATOM     54  H34 non d ame     -32.668   8.148  28.225  0.00  0.00     0.048 H 
BRANCH  52  55
ATOM     55  C23 non d ame     -33.030   6.532  26.884  0.00  0.00     0.259 C 
ATOM     56  O7  non d ame     -34.082   6.187  27.316  0.00  0.00    -0.265 OA
BRANCH  55  57
ATOM     57  O8  non d ame     -32.242   5.631  26.116  0.00  0.00    -0.317 OA
BRANCH  57  58
ATOM     58  C29 non d ame     -32.815   5.291  24.850  0.00  0.00     0.052 C 
ATOM     59  H47 non d ame     -32.310   4.378  24.534  0.00  0.00     0.082 H 
ATOM     60  H48 non d ame     -33.893   5.293  25.004  0.00  0.00     0.082 H 
BRANCH  58  61
ATOM     61  C35 non d ame     -32.461   6.421  23.846  0.00  0.00    -0.034 A 
ATOM     62  C30 non d ame     -31.130   6.720  23.574  0.00  0.00    -0.075 A 
ATOM     63  C31 non d ame     -30.812   7.735  22.672  0.00  0.00    -0.082 A 
ATOM     64  H49 non d ame     -30.335   6.160  24.068  0.00  0.00     0.084 H 
ATOM     65  C32 non d ame     -31.832   8.453  22.043  0.00  0.00    -0.083 A 
ATOM     66  H50 non d ame     -29.768   7.966  22.461  0.00  0.00     0.083 H 
ATOM     67  C33 non d ame     -33.159   8.153  22.319  0.00  0.00    -0.082 A 
ATOM     68  H51 non d ame     -31.593   9.247  21.336  0.00  0.00     0.083 H 
ATOM     69  C34 non d ame     -33.481   7.138  23.218  0.00  0.00    -0.075 A 
ATOM     70  H52 non d ame     -33.952   8.717  21.828  0.00  0.00     0.083 H 
ATOM     71  H53 non d ame     -34.526   6.908  23.429  0.00  0.00     0.084 H 
ENDBRANCH  58  61
ENDBRANCH  57  58
ENDBRANCH  55  57
ENDBRANCH  52  55
ENDBRANCH  49  52
ENDBRANCH  47  49
BRANCH  47  72
ATOM     72  C24 non d ame     -33.168  10.086  28.680  0.00  0.00    -0.039 C 
ATOM     73  H35 non d ame     -34.141   9.714  29.003  0.00  0.00     0.036 H 
ATOM     74  H36 non d ame     -32.286   9.451  28.766  0.00  0.00     0.036 H 
BRANCH  72  75
ATOM     75  C25 non d ame     -32.873  11.422  29.514  0.00  0.00    -0.001 C 
ATOM     76  C26 non d ame     -31.466  12.102  29.001  0.00  0.00    -0.035 C 
ATOM     77  C27 non d ame     -30.678  12.338  30.077  0.00  0.00     0.085 C 
ATOM     78  H38 non d ame     -30.893  11.381  28.419  0.00  0.00     0.036 H 
ATOM     79  H39 non d ame     -31.656  13.098  28.601  0.00  0.00     0.036 H 
ATOM     80  N5  non d ame     -31.279  11.584  31.238  0.00  0.00    -0.049 N 
ATOM     81  H40 non d ame     -29.710  11.900  29.831  0.00  0.00     0.075 H 
ATOM     82  H41 non d ame     -30.759  13.407  30.268  0.00  0.00     0.075 H 
ATOM     83  C28 non d ame     -32.770  11.172  30.776  0.00  0.00     0.193 C 
ATOM     84  H42 non d ame     -30.732  10.742  31.348  0.00  0.00     0.280 HD
ATOM     85  H43 non d ame     -31.349  12.243  32.001  0.00  0.00     0.280 HD
ATOM     86  H44 non d ame     -33.637  11.712  31.157  0.00  0.00     0.129 H 
ATOM     87  H37 non d ame     -33.745  12.072  29.574  0.00  0.00     0.046 H 
BRANCH  83  88
ATOM     88  O6  non d ame     -33.016   9.796  31.075  0.00  0.00    -0.369 OA
ATOM     89  H45 non d ame     -33.962   9.650  31.155  0.00  0.00     0.212 HD
ENDBRANCH  83  88
ENDBRANCH  72  75
ENDBRANCH  47  72
ENDBRANCH  45  47
ENDBRANCH   1  43
BRANCH   1  90
ATOM     90  C16 non d ame     -36.554  12.674  24.757  0.00  0.00    -0.035 C 
ATOM     91  H21 non d ame     -37.008  13.561  24.317  0.00  0.00     0.037 H 
ATOM     92  H22 non d ame     -35.725  12.178  24.252  0.00  0.00     0.037 H 
BRANCH  90  93
ATOM     93  C17 non d ame     -37.693  11.613  24.882  0.00  0.00    -0.059 C 
ATOM     94  H23 non d ame     -38.484  11.892  24.186  0.00  0.00     0.038 H 
BRANCH  93  95
ATOM     95  C18 non d ame     -37.207  10.178  24.499  0.00  0.00    -0.073 C 
ATOM     96  H24 non d ame     -36.803  10.189  23.487  0.00  0.00     0.028 H 
ATOM     97  H25 non d ame     -36.432   9.859  25.195  0.00  0.00     0.028 H 
ATOM     98  H26 non d ame     -38.046   9.485  24.547  0.00  0.00     0.028 H 
ENDBRANCH  93  95
BRANCH  93  99
ATOM     99  C19 non d ame     -38.300  11.625  26.287  0.00  0.00    -0.073 C 
ATOM    100  H27 non d ame     -37.505  11.738  27.025  0.00  0.00     0.028 H 
ATOM    101  H28 non d ame     -38.998  12.457  26.375  0.00  0.00     0.028 H 
ATOM    102  H29 non d ame     -38.829  10.688  26.463  0.00  0.00     0.028 H 
ENDBRANCH  93  99
ENDBRANCH  90  93
ENDBRANCH   1  90
TORSDOF 26
ENDMDL
MODEL 2
REMARK VINA RESULT:      -6.5      3.485      8.409
REMARK  26 active torsions:
REMARK  status: ('A' for Active; 'I' for Inactive)
REMARK    1  A    between atoms: C2_2  and  C3_3 
REMARK    2  A    between atoms: C4_6  and  C5_7 
REMARK       I    between atoms: C5_7  and  N2_9 
REMARK    3  A    between atoms: N2_9  and  C6_10 
REMARK    4  A    between atoms: C6_10  and  C7_11 
REMARK    5  A    between atoms: C6_10  and  C8_13 
REMARK       I    between atoms: C7_11  and  N3_14 
REMARK    6  A    between atoms: N3_14  and  C9_15 
REMARK    7  A    between atoms: C9_15  and  C10_16 
REMARK    8  A    between atoms: C9_15  and  C11_18 
REMARK       I    between atoms: C10_16  and  N4_21 
REMARK    9  A    between atoms: C11_18  and  C12_19 
REMARK   10  A    between atoms: C11_18  and  C13_20 
REMARK   11  A    between atoms: N4_21  and  C14_22 
REMARK   12  A    between atoms: C14_22  and  C15_23 
REMARK   13  A    between atoms: C14_22  and  C16_25 
REMARK       I    between atoms: C15_23  and  N6_40 
REMARK   14  A    between atoms: C16_25  and  C17_26 
REMARK   15  A    between atoms: C17_26  and  C18_27 
REMARK   16  A    between atoms: C17_26  and  C19_28 
REMARK   17  A    between atoms: C20_29  and  C21_30 
REMARK   18  A    between atoms: C20_29  and  C24_33 
REMARK   19  A    between atoms: C20_29  and  N6_40 
REMARK   20  A    between atoms: C21_30  and  C22_31 
REMARK   21  A    between atoms: C22_31  and  C23_32 
REMARK   22  A    between atoms: C23_32  and  O8_43 
REMARK   23  A    between atoms: C24_33  and  C25_34 
REMARK   24  A    between atoms: C28_38  and  O6_39 
REMARK   25  A    between atoms: C29_42  and  O8_43 
REMARK   26  A    between atoms: C29_42  and  C35_49 
ROOT
ATOM      1  C14 non d ame     -34.233   6.257  26.565  0.00  0.00     0.089 C 
ATOM      2  H20 non d ame     -33.710   5.368  26.918  0.00  0.00     0.087 H 
ENDROOT
BRANCH   1   3
ATOM      3  N4  non d ame     -35.239   6.598  27.559  0.00  0.00    -0.346 N 
ATOM      4  C10 non d ame     -35.376   5.778  28.817  0.00  0.00     0.241 C 
ATOM      5  O4  non d ame     -34.666   4.846  29.006  0.00  0.00    -0.271 OA
ATOM      6  H19 non d ame     -35.835   7.394  27.379  0.00  0.00     0.163 HD
BRANCH   4   7
ATOM      7  C9  non d ame     -36.419   6.149  29.838  0.00  0.00     0.092 C 
ATOM      8  H11 non d ame     -36.072   5.854  30.829  0.00  0.00     0.088 H 
BRANCH   7   9
ATOM      9  N3  non d ame     -36.591   7.605  29.855  0.00  0.00    -0.346 N 
ATOM     10  C7  non d ame     -35.957   8.393  30.882  0.00  0.00     0.240 C 
ATOM     11  O3  non d ame     -35.306   7.873  31.704  0.00  0.00    -0.271 OA
ATOM     12  H10 non d ame     -37.152   8.067  29.154  0.00  0.00     0.163 HD
BRANCH  10  13
ATOM     13  C6  non d ame     -36.147   9.942  30.897  0.00  0.00     0.086 C 
ATOM     14  H6  non d ame     -36.265  10.343  31.903  0.00  0.00     0.086 H 
BRANCH  13  15
ATOM     15  N2  non d ame     -34.960  10.568  30.337  0.00  0.00    -0.343 N 
ATOM     16  C5  non d ame     -33.921  11.076  31.236  0.00  0.00     0.273 C 
ATOM     17  O2  non d ame     -34.050  10.979  32.406  0.00  0.00    -0.266 OA
ATOM     18  H5  non d ame     -34.858  10.649  29.335  0.00  0.00     0.163 HD
BRANCH  16  19
ATOM     19  C4  non d ame     -32.660  11.738  30.658  0.00  0.00     0.154 A 
ATOM     20  C1  non d ame     -32.602  12.801  29.702  0.00  0.00    -0.017 A 
ATOM     21  C2  non d ame     -31.224  13.040  29.507  0.00  0.00     0.077 A 
ATOM     22  H1  non d ame     -33.433  13.319  29.223  0.00  0.00     0.091 H 
ATOM     23  O1  non d ame     -30.575  12.208  30.268  0.00  0.00    -0.218 OA
ATOM     24  N1  non d ame     -31.391  11.438  30.949  0.00  0.00    -0.123 NA
BRANCH  21  25
ATOM     25  C3  non d ame     -30.612  14.081  28.579  0.00  0.00    -0.029 C 
ATOM     26  H2  non d ame     -31.292  14.274  27.750  0.00  0.00     0.036 H 
ATOM     27  H3  non d ame     -30.442  15.005  29.131  0.00  0.00     0.036 H 
ATOM     28  H4  non d ame     -29.663  13.710  28.192  0.00  0.00     0.036 H 
ENDBRANCH  21  25
ENDBRANCH  16  19
ENDBRANCH  13  15
BRANCH  13  29
ATOM     29  C8  non d ame     -37.359  10.310  30.079  0.00  0.00    -0.049 C 
ATOM     30  H7  non d ame     -37.108  10.269  29.019  0.00  0.00     0.030 H 
ATOM     31  H8  non d ame     -38.165   9.608  30.289  0.00  0.00     0.030 H 
ATOM     32  H9  non d ame     -37.679  11.320  30.338  0.00  0.00     0.030 H 
ENDBRANCH  13  29
ENDBRANCH  10  13
ENDBRANCH   7   9
BRANCH   7  33
ATOM     33  C11 non d ame     -37.772   5.473  29.467  0.00  0.00    -0.033 C 
ATOM     34  H12 non d ame     -38.106   4.907  30.336  0.00  0.00     0.042 H 
BRANCH  33  35
ATOM     35  C12 non d ame     -38.869   6.536  29.149  0.00  0.00    -0.071 C 
ATOM     36  H13 non d ame     -38.720   6.922  28.140  0.00  0.00     0.028 H 
ATOM     37  H14 non d ame     -39.853   6.074  29.219  0.00  0.00     0.028 H 
ATOM     38  H15 non d ame     -38.800   7.355  29.864  0.00  0.00     0.028 H 
ENDBRANCH  33  35
BRANCH  33  39
ATOM     39  C13 non d ame     -37.590   4.474  28.280  0.00  0.00    -0.071 C 
ATOM     40  H16 non d ame     -36.566   4.531  27.910  0.00  0.00     0.028 H 
ATOM     41  H17 non d ame     -37.797   3.460  28.623  0.00  0.00     0.028 H 
ATOM     42  H18 non d ame     -38.281   4.733  27.478  0.00  0.00     0.028 H 
ENDBRANCH  33  39
ENDBRANCH   7  33
ENDBRANCH   4   7
ENDBRANCH   1   3
BRANCH   1  43
ATOM     43  C15 non d ame     -33.276   7.471  26.392  0.00  0.00     0.240 C 
ATOM     44  O5  non d ame     -32.203   7.455  26.902  0.00  0.00    -0.271 OA
ATOM     45  N6  non d ame     -33.695   8.651  25.582  0.00  0.00    -0.355 N 
ATOM     46  H46 non d ame     -34.602   8.674  25.140  0.00  0.00     0.162 HD
BRANCH  45  47
ATOM     47  C20 non d ame     -32.772   9.797  25.426  0.00  0.00     0.013 C 
ATOM     48  H30 non d ame     -31.913   9.626  26.074  0.00  0.00     0.072 H 
BRANCH  47  49
ATOM     49  C21 non d ame     -33.482  11.068  25.833  0.00  0.00    -0.038 C 
ATOM     50  H31 non d ame     -34.198  11.274  25.037  0.00  0.00     0.036 H 
ATOM     51  H32 non d ame     -33.833  10.896  26.851  0.00  0.00     0.036 H 
BRANCH  49  52
ATOM     52  C22 non d ame     -32.537  12.288  25.897  0.00  0.00     0.018 C 
ATOM     53  H33 non d ame     -32.048  12.231  26.869  0.00  0.00     0.048 H 
ATOM     54  H34 non d ame     -31.942  12.248  24.985  0.00  0.00     0.048 H 
BRANCH  52  55
ATOM     55  C23 non d ame     -33.276  13.654  25.868  0.00  0.00     0.259 C 
ATOM     56  O7  non d ame     -34.316  13.790  26.427  0.00  0.00    -0.265 OA
BRANCH  55  57
ATOM     57  O8  non d ame     -32.701  14.742  25.154  0.00  0.00    -0.317 OA
BRANCH  57  58
ATOM     58  C29 non d ame     -31.274  14.693  25.069  0.00  0.00     0.052 C 
ATOM     59  H47 non d ame     -30.916  15.576  25.599  0.00  0.00     0.082 H 
ATOM     60  H48 non d ame     -30.991  13.699  25.415  0.00  0.00     0.082 H 
BRANCH  58  61
ATOM     61  C35 non d ame     -30.878  14.823  23.574  0.00  0.00    -0.034 A 
ATOM     62  C30 non d ame     -30.141  13.817  22.958  0.00  0.00    -0.075 A 
ATOM     63  C31 non d ame     -29.786  13.934  21.616  0.00  0.00    -0.082 A 
ATOM     64  H49 non d ame     -29.842  12.937  23.528  0.00  0.00     0.084 H 
ATOM     65  C32 non d ame     -30.168  15.064  20.888  0.00  0.00    -0.083 A 
ATOM     66  H50 non d ame     -29.209  13.142  21.135  0.00  0.00     0.083 H 
ATOM     67  C33 non d ame     -30.901  16.067  21.508  0.00  0.00    -0.082 A 
ATOM     68  H51 non d ame     -29.895  15.163  19.838  0.00  0.00     0.083 H 
ATOM     69  C34 non d ame     -31.260  15.954  22.849  0.00  0.00    -0.075 A 
ATOM     70  H52 non d ame     -31.195  16.949  20.938  0.00  0.00     0.083 H 
ATOM     71  H53 non d ame     -31.836  16.746  23.329  0.00  0.00     0.084 H 
ENDBRANCH  58  61
ENDBRANCH  57  58
ENDBRANCH  55  57
ENDBRANCH  52  55
ENDBRANCH  49  52
ENDBRANCH  47  49
BRANCH  47  72
ATOM     72  C24 non d ame     -32.326   9.906  23.969  0.00  0.00    -0.039 C 
ATOM     73  H35 non d ame     -33.137   9.472  23.384  0.00  0.00     0.036 H 
ATOM     74  H36 non d ame     -32.051  10.951  23.828  0.00  0.00     0.036 H 
BRANCH  72  75
ATOM     75  C25 non d ame     -31.016   9.029  23.684  0.00  0.00    -0.001 C 
ATOM     76  C26 non d ame     -29.901   9.933  22.882  0.00  0.00    -0.035 C 
ATOM     77  C27 non d ame     -29.493   9.251  21.785  0.00  0.00     0.085 C 
ATOM     78  H38 non d ame     -30.371  10.824  22.468  0.00  0.00     0.036 H 
ATOM     79  H39 non d ame     -28.993  10.022  23.478  0.00  0.00     0.036 H 
ATOM     80  N5  non d ame     -30.464   8.112  21.587  0.00  0.00    -0.049 N 
ATOM     81  H40 non d ame     -29.591   9.950  20.954  0.00  0.00     0.075 H 
ATOM     82  H41 non d ame     -28.516   8.843  22.042  0.00  0.00     0.075 H 
ATOM     83  C28 non d ame     -31.295   7.992  22.966  0.00  0.00     0.193 C 
ATOM     84  H42 non d ame     -31.097   8.399  20.854  0.00  0.00     0.280 HD
ATOM     85  H43 non d ame     -29.906   7.277  21.474  0.00  0.00     0.280 HD
ATOM     86  H44 non d ame     -31.077   7.194  23.677  0.00  0.00     0.129 H 
ATOM     87  H37 non d ame     -30.676   8.494  24.570  0.00  0.00     0.046 H 
BRANCH  83  88
ATOM     88  O6  non d ame     -32.693   7.886  22.692  0.00  0.00    -0.369 OA
ATOM     89  H45 non d ame     -33.070   7.177  23.218  0.00  0.00     0.212 HD
ENDBRANCH  83  88
ENDBRANCH  72  75
ENDBRANCH  47  72
ENDBRANCH  45  47
ENDBRANCH   1  43
BRANCH   1  90
ATOM     90  C16 non d ame     -34.923   5.958  25.243  0.00  0.00    -0.035 C 
ATOM     91  H21 non d ame     -35.987   5.920  25.475  0.00  0.00     0.037 H 
ATOM     92  H22 non d ame     -34.544   6.703  24.544  0.00  0.00     0.037 H 
BRANCH  90  93
ATOM     93  C17 non d ame     -34.553   4.563  24.645  0.00  0.00    -0.059 C 
ATOM     94  H23 non d ame     -33.969   4.735  23.741  0.00  0.00     0.038 H 
BRANCH  93  95
ATOM     95  C18 non d ame     -33.677   3.716  25.623  0.00  0.00    -0.073 C 
ATOM     96  H24 non d ame     -34.133   2.737  25.764  0.00  0.00     0.028 H 
ATOM     97  H25 non d ame     -32.678   3.594  25.204  0.00  0.00     0.028 H 
ATOM     98  H26 non d ame     -33.607   4.227  26.583  0.00  0.00     0.028 H 
ENDBRANCH  93  95
BRANCH  93  99
ATOM     99  C19 non d ame     -35.811   3.793  24.235  0.00  0.00    -0.073 C 
ATOM    100  H27 non d ame     -35.590   3.173  23.366  0.00  0.00     0.028 H 
ATOM    101  H28 non d ame     -36.134   3.159  25.061  0.00  0.00     0.028 H 
ATOM    102  H29 non d ame     -36.604   4.498  23.987  0.00  0.00     0.028 H 
ENDBRANCH  93  99
ENDBRANCH  90  93
ENDBRANCH   1  90
TORSDOF 26
ENDMDL
MODEL 3
REMARK VINA RESULT:      -6.5      3.234      9.584
REMARK  26 active torsions:
REMARK  status: ('A' for Active; 'I' for Inactive)
REMARK    1  A    between atoms: C2_2  and  C3_3 
REMARK    2  A    between atoms: C4_6  and  C5_7 
REMARK       I    between atoms: C5_7  and  N2_9 
REMARK    3  A    between atoms: N2_9  and  C6_10 
REMARK    4  A    between atoms: C6_10  and  C7_11 
REMARK    5  A    between atoms: C6_10  and  C8_13 
REMARK       I    between atoms: C7_11  and  N3_14 
REMARK    6  A    between atoms: N3_14  and  C9_15 
REMARK    7  A    between atoms: C9_15  and  C10_16 
REMARK    8  A    between atoms: C9_15  and  C11_18 
REMARK       I    between atoms: C10_16  and  N4_21 
REMARK    9  A    between atoms: C11_18  and  C12_19 
REMARK   10  A    between atoms: C11_18  and  C13_20 
REMARK   11  A    between atoms: N4_21  and  C14_22 
REMARK   12  A    between atoms: C14_22  and  C15_23 
REMARK   13  A    between atoms: C14_22  and  C16_25 
REMARK       I    between atoms: C15_23  and  N6_40 
REMARK   14  A    between atoms: C16_25  and  C17_26 
REMARK   15  A    between atoms: C17_26  and  C18_27 
REMARK   16  A    between atoms: C17_26  and  C19_28 
REMARK   17  A    between atoms: C20_29  and  C21_30 
REMARK   18  A    between atoms: C20_29  and  C24_33 
REMARK   19  A    between atoms: C20_29  and  N6_40 
REMARK   20  A    between atoms: C21_30  and  C22_31 
REMARK   21  A    between atoms: C22_31  and  C23_32 
REMARK   22  A    between atoms: C23_32  and  O8_43 
REMARK   23  A    between atoms: C24_33  and  C25_34 
REMARK   24  A    between atoms: C28_38  and  O6_39 
REMARK   25  A    between atoms: C29_42  and  O8_43 
REMARK   26  A    between atoms: C29_42  and  C35_49 
ROOT
ATOM      1  C14 non d ame     -32.942  10.437  26.355  0.00  0.00     0.089 C 
ATOM      2  H20 non d ame     -33.727  10.773  25.677  0.00  0.00     0.087 H 
ENDROOT
BRANCH   1   3
ATOM      3  N4  non d ame     -32.206   9.377  25.682  0.00  0.00    -0.346 N 
ATOM      4  C10 non d ame     -32.532   9.009  24.257  0.00  0.00     0.241 C 
ATOM      5  O4  non d ame     -33.393   9.579  23.672  0.00  0.00    -0.271 OA
ATOM      6  H19 non d ame     -31.478   8.903  26.198  0.00  0.00     0.163 HD
BRANCH   4   7
ATOM      7  C9  non d ame     -31.756   7.913  23.575  0.00  0.00     0.092 C 
ATOM      8  H11 non d ame     -30.825   7.744  24.115  0.00  0.00     0.088 H 
BRANCH   7   9
ATOM      9  N3  non d ame     -32.522   6.665  23.629  0.00  0.00    -0.346 N 
ATOM     10  C7  non d ame     -32.430   5.813  24.790  0.00  0.00     0.240 C 
ATOM     11  O3  non d ame     -31.743   6.116  25.687  0.00  0.00    -0.271 OA
ATOM     12  H10 non d ame     -33.118   6.389  22.862  0.00  0.00     0.163 HD
BRANCH  10  13
ATOM     13  C6  non d ame     -33.245   4.484  24.841  0.00  0.00     0.086 C 
ATOM     14  H6  non d ame     -32.718   3.685  25.362  0.00  0.00     0.086 H 
BRANCH  13  15
ATOM     15  N2  non d ame     -34.478   4.715  25.574  0.00  0.00    -0.343 N 
ATOM     16  C5  non d ame     -34.753   3.941  26.787  0.00  0.00     0.273 C 
ATOM     17  O2  non d ame     -33.976   3.133  27.162  0.00  0.00    -0.266 OA
ATOM     18  H5  non d ame     -35.138   5.406  25.245  0.00  0.00     0.163 HD
BRANCH  16  19
ATOM     19  C4  non d ame     -36.052   4.176  27.573  0.00  0.00     0.154 A 
ATOM     20  C1  non d ame     -37.296   3.489  27.412  0.00  0.00    -0.017 A 
ATOM     21  C2  non d ame     -38.160   4.074  28.365  0.00  0.00     0.077 A 
ATOM     22  H1  non d ame     -37.536   2.689  26.712  0.00  0.00     0.091 H 
ATOM     23  O1  non d ame     -37.481   4.987  28.995  0.00  0.00    -0.218 OA
ATOM     24  N1  non d ame     -36.248   5.066  28.550  0.00  0.00    -0.123 NA
BRANCH  21  25
ATOM     25  C3  non d ame     -39.617   3.702  28.610  0.00  0.00    -0.029 C 
ATOM     26  H2  non d ame     -39.673   2.681  28.987  0.00  0.00     0.036 H 
ATOM     27  H3  non d ame     -40.047   4.384  29.342  0.00  0.00     0.036 H 
ATOM     28  H4  non d ame     -40.172   3.775  27.675  0.00  0.00     0.036 H 
ENDBRANCH  21  25
ENDBRANCH  16  19
ENDBRANCH  13  15
BRANCH  13  29
ATOM     29  C8  non d ame     -33.557   4.028  23.438  0.00  0.00    -0.049 C 
ATOM     30  H7  non d ame     -34.637   4.010  23.293  0.00  0.00     0.030 H 
ATOM     31  H8  non d ame     -33.105   4.716  22.724  0.00  0.00     0.030 H 
ATOM     32  H9  non d ame     -33.153   3.027  23.283  0.00  0.00     0.030 H 
ENDBRANCH  13  29
ENDBRANCH  10  13
ENDBRANCH   7   9
BRANCH   7  33
ATOM     33  C11 non d ame     -31.508   8.302  22.088  0.00  0.00    -0.033 C 
ATOM     34  H12 non d ame     -32.045   9.231  21.897  0.00  0.00     0.042 H 
BRANCH  33  35
ATOM     35  C12 non d ame     -29.995   8.570  21.815  0.00  0.00    -0.071 C 
ATOM     36  H13 non d ame     -29.541   9.019  22.698  0.00  0.00     0.028 H 
ATOM     37  H14 non d ame     -29.495   7.629  21.587  0.00  0.00     0.028 H 
ATOM     38  H15 non d ame     -29.893   9.250  20.969  0.00  0.00     0.028 H 
ENDBRANCH  33  35
BRANCH  33  39
ATOM     39  C13 non d ame     -32.073   7.211  21.123  0.00  0.00    -0.071 C 
ATOM     40  H16 non d ame     -31.793   7.452  20.097  0.00  0.00     0.028 H 
ATOM     41  H17 non d ame     -31.661   6.238  21.393  0.00  0.00     0.028 H 
ATOM     42  H18 non d ame     -33.159   7.180  21.205  0.00  0.00     0.028 H 
ENDBRANCH  33  39
ENDBRANCH   7  33
ENDBRANCH   4   7
ENDBRANCH   1   3
BRANCH   1  43
ATOM     43  C15 non d ame     -31.949  11.579  26.714  0.00  0.00     0.240 C 
ATOM     44  O5  non d ame     -30.804  11.484  26.409  0.00  0.00    -0.271 OA
ATOM     45  N6  non d ame     -32.427  12.796  27.431  0.00  0.00    -0.355 N 
ATOM     46  H46 non d ame     -33.398  12.890  27.691  0.00  0.00     0.162 HD
BRANCH  45  47
ATOM     47  C20 non d ame     -31.470  13.873  27.764  0.00  0.00     0.013 C 
ATOM     48  H30 non d ame     -30.554  13.694  27.202  0.00  0.00     0.072 H 
BRANCH  47  49
ATOM     49  C21 non d ame     -31.181  13.844  29.248  0.00  0.00    -0.038 C 
ATOM     50  H31 non d ame     -30.266  13.261  29.358  0.00  0.00     0.036 H 
ATOM     51  H32 non d ame     -31.208  14.884  29.573  0.00  0.00     0.036 H 
BRANCH  49  52
ATOM     52  C22 non d ame     -32.269  13.104  30.056  0.00  0.00     0.018 C 
ATOM     53  H33 non d ame     -32.547  13.780  30.863  0.00  0.00     0.048 H 
ATOM     54  H34 non d ame     -33.015  12.789  29.326  0.00  0.00     0.048 H 
BRANCH  52  55
ATOM     55  C23 non d ame     -31.765  11.804  30.741  0.00  0.00     0.259 C 
ATOM     56  O7  non d ame     -30.616  11.672  31.014  0.00  0.00    -0.265 OA
BRANCH  55  57
ATOM     57  O8  non d ame     -32.691  10.763  31.028  0.00  0.00    -0.317 OA
BRANCH  57  58
ATOM     58  C29 non d ame     -33.974  11.227  31.457  0.00  0.00     0.052 C 
ATOM     59  H47 non d ame     -33.841  11.547  32.491  0.00  0.00     0.082 H 
ATOM     60  H48 non d ame     -34.296  11.945  30.703  0.00  0.00     0.082 H 
BRANCH  58  61
ATOM     61  C35 non d ame     -34.951  10.022  31.437  0.00  0.00    -0.034 A 
ATOM     62  C30 non d ame     -36.324  10.237  31.509  0.00  0.00    -0.075 A 
ATOM     63  C31 non d ame     -37.202   9.154  31.491  0.00  0.00    -0.082 A 
ATOM     64  H49 non d ame     -36.712  11.253  31.580  0.00  0.00     0.084 H 
ATOM     65  C32 non d ame     -36.702   7.852  31.403  0.00  0.00    -0.083 A 
ATOM     66  H50 non d ame     -38.277   9.326  31.546  0.00  0.00     0.083 H 
ATOM     67  C33 non d ame     -35.332   7.642  31.335  0.00  0.00    -0.082 A 
ATOM     68  H51 non d ame     -37.382   7.000  31.388  0.00  0.00     0.083 H 
ATOM     69  C34 non d ame     -34.451   8.722  31.351  0.00  0.00    -0.075 A 
ATOM     70  H52 non d ame     -34.945   6.625  31.269  0.00  0.00     0.083 H 
ATOM     71  H53 non d ame     -33.375   8.549  31.296  0.00  0.00     0.084 H 
ENDBRANCH  58  61
ENDBRANCH  57  58
ENDBRANCH  55  57
ENDBRANCH  52  55
ENDBRANCH  49  52
ENDBRANCH  47  49
BRANCH  47  72
ATOM     72  C24 non d ame     -32.066  15.228  27.388  0.00  0.00    -0.039 C 
ATOM     73  H35 non d ame     -31.873  15.878  28.242  0.00  0.00     0.036 H 
ATOM     74  H36 non d ame     -31.644  15.470  26.413  0.00  0.00     0.036 H 
BRANCH  72  75
ATOM     75  C25 non d ame     -33.656  15.146  27.207  0.00  0.00    -0.001 C 
ATOM     76  C26 non d ame     -34.062  15.503  25.654  0.00  0.00    -0.035 C 
ATOM     77  C27 non d ame     -35.021  16.459  25.662  0.00  0.00     0.085 C 
ATOM     78  H38 non d ame     -33.225  15.986  25.150  0.00  0.00     0.036 H 
ATOM     79  H39 non d ame     -34.557  14.649  25.191  0.00  0.00     0.036 H 
ATOM     80  N5  non d ame     -35.073  17.020  27.062  0.00  0.00    -0.049 N 
ATOM     81  H40 non d ame     -34.667  17.233  24.982  0.00  0.00     0.075 H 
ATOM     82  H41 non d ame     -35.955  15.937  25.454  0.00  0.00     0.075 H 
ATOM     83  C28 non d ame     -34.259  15.978  27.989  0.00  0.00     0.193 C 
ATOM     84  H42 non d ame     -34.568  17.894  27.040  0.00  0.00     0.280 HD
ATOM     85  H43 non d ame     -36.045  17.006  27.340  0.00  0.00     0.280 HD
ATOM     86  H44 non d ame     -34.790  15.287  28.643  0.00  0.00     0.129 H 
ATOM     87  H37 non d ame     -34.073  14.233  27.631  0.00  0.00     0.046 H 
BRANCH  83  88
ATOM     88  O6  non d ame     -33.347  16.680  28.835  0.00  0.00    -0.369 OA
ATOM     89  H45 non d ame     -33.604  17.604  28.887  0.00  0.00     0.212 HD
ENDBRANCH  83  88
ENDBRANCH  72  75
ENDBRANCH  47  72
ENDBRANCH  45  47
ENDBRANCH   1  43
BRANCH   1  90
ATOM     90  C16 non d ame     -33.563   9.881  27.626  0.00  0.00    -0.035 C 
ATOM     91  H21 non d ame     -32.723   9.551  28.237  0.00  0.00     0.037 H 
ATOM     92  H22 non d ame     -34.226  10.665  27.991  0.00  0.00     0.037 H 
BRANCH  90  93
ATOM     93  C17 non d ame     -34.456   8.622  27.389  0.00  0.00    -0.059 C 
ATOM     94  H23 non d ame     -34.506   8.450  26.313  0.00  0.00     0.038 H 
BRANCH  93  95
ATOM     95  C18 non d ame     -33.855   7.340  28.049  0.00  0.00    -0.073 C 
ATOM     96  H24 non d ame     -33.743   6.561  27.295  0.00  0.00     0.028 H 
ATOM     97  H25 non d ame     -32.881   7.574  28.476  0.00  0.00     0.028 H 
ATOM     98  H26 non d ame     -34.523   6.990  28.836  0.00  0.00     0.028 H 
ENDBRANCH  93  95
BRANCH  93  99
ATOM     99  C19 non d ame     -35.886   8.867  27.876  0.00  0.00    -0.073 C 
ATOM    100  H27 non d ame     -36.394   7.911  28.010  0.00  0.00     0.028 H 
ATOM    101  H28 non d ame     -35.860   9.400  28.827  0.00  0.00     0.028 H 
ATOM    102  H29 non d ame     -36.424   9.464  27.141  0.00  0.00     0.028 H 
ENDBRANCH  93  99
ENDBRANCH  90  93
ENDBRANCH   1  90
TORSDOF 26
ENDMDL
MODEL 4
REMARK VINA RESULT:      -6.5      3.008     10.683
REMARK  26 active torsions:
REMARK  status: ('A' for Active; 'I' for Inactive)
REMARK    1  A    between atoms: C2_2  and  C3_3 
REMARK    2  A    between atoms: C4_6  and  C5_7 
REMARK       I    between atoms: C5_7  and  N2_9 
REMARK    3  A    between atoms: N2_9  and  C6_10 
REMARK    4  A    between atoms: C6_10  and  C7_11 
REMARK    5  A    between atoms: C6_10  and  C8_13 
REMARK       I    between atoms: C7_11  and  N3_14 
REMARK    6  A    between atoms: N3_14  and  C9_15 
REMARK    7  A    between atoms: C9_15  and  C10_16 
REMARK    8  A    between atoms: C9_15  and  C11_18 
REMARK       I    between atoms: C10_16  and  N4_21 
REMARK    9  A    between atoms: C11_18  and  C12_19 
REMARK   10  A    between atoms: C11_18  and  C13_20 
REMARK   11  A    between atoms: N4_21  and  C14_22 
REMARK   12  A    between atoms: C14_22  and  C15_23 
REMARK   13  A    between atoms: C14_22  and  C16_25 
REMARK       I    between atoms: C15_23  and  N6_40 
REMARK   14  A    between atoms: C16_25  and  C17_26 
REMARK   15  A    between atoms: C17_26  and  C18_27 
REMARK   16  A    between atoms: C17_26  and  C19_28 
REMARK   17  A    between atoms: C20_29  and  C21_30 
REMARK   18  A    between atoms: C20_29  and  C24_33 
REMARK   19  A    between atoms: C20_29  and  N6_40 
REMARK   20  A    between atoms: C21_30  and  C22_31 
REMARK   21  A    between atoms: C22_31  and  C23_32 
REMARK   22  A    between atoms: C23_32  and  O8_43 
REMARK   23  A    between atoms: C24_33  and  C25_34 
REMARK   24  A    between atoms: C28_38  and  O6_39 
REMARK   25  A    between atoms: C29_42  and  O8_43 
REMARK   26  A    between atoms: C29_42  and  C35_49 
ROOT
ATOM      1  C14 non d ame     -33.250  10.818  26.269  0.00  0.00     0.089 C 
ATOM      2  H20 non d ame     -34.065  10.837  25.545  0.00  0.00     0.087 H 
ENDROOT
BRANCH   1   3
ATOM      3  N4  non d ame     -32.660   9.488  26.228  0.00  0.00    -0.346 N 
ATOM      4  C10 non d ame     -33.329   8.381  25.453  0.00  0.00     0.241 C 
ATOM      5  O4  non d ame     -34.343   8.584  24.871  0.00  0.00    -0.271 OA
ATOM      6  H19 non d ame     -31.797   9.335  26.732  0.00  0.00     0.163 HD
BRANCH   4   7
ATOM      7  C9  non d ame     -32.701   7.012  25.417  0.00  0.00     0.092 C 
ATOM      8  H11 non d ame     -31.753   7.038  25.954  0.00  0.00     0.088 H 
BRANCH   7   9
ATOM      9  N3  non d ame     -33.569   6.058  26.114  0.00  0.00    -0.346 N 
ATOM     10  C7  non d ame     -33.124   5.444  27.341  0.00  0.00     0.240 C 
ATOM     11  O3  non d ame     -32.071   5.705  27.781  0.00  0.00    -0.271 OA
ATOM     12  H10 non d ame     -34.479   5.822  25.746  0.00  0.00     0.163 HD
BRANCH  10  13
ATOM     13  C6  non d ame     -34.051   4.427  28.077  0.00  0.00     0.086 C 
ATOM     14  H6  non d ame     -33.564   3.953  28.929  0.00  0.00     0.086 H 
BRANCH  13  15
ATOM     15  N2  non d ame     -35.207   5.136  28.601  0.00  0.00    -0.343 N 
ATOM     16  C5  non d ame     -35.257   5.483  30.023  0.00  0.00     0.273 C 
ATOM     17  O2  non d ame     -34.364   5.185  30.737  0.00  0.00    -0.266 OA
ATOM     18  H5  non d ame     -35.967   5.384  27.983  0.00  0.00     0.163 HD
BRANCH  16  19
ATOM     19  C4  non d ame     -36.472   6.233  30.589  0.00  0.00     0.154 A 
ATOM     20  C1  non d ame     -36.731   7.639  30.518  0.00  0.00    -0.017 A 
ATOM     21  C2  non d ame     -37.964   7.816  31.183  0.00  0.00     0.077 A 
ATOM     22  H1  non d ame     -36.117   8.412  30.055  0.00  0.00     0.091 H 
ATOM     23  O1  non d ame     -38.360   6.643  31.584  0.00  0.00    -0.218 OA
ATOM     24  N1  non d ame     -37.506   5.704  31.250  0.00  0.00    -0.123 NA
BRANCH  21  25
ATOM     25  C3  non d ame     -38.696   9.136  31.391  0.00  0.00    -0.029 C 
ATOM     26  H2  non d ame     -38.047   9.831  31.923  0.00  0.00     0.036 H 
ATOM     27  H3  non d ame     -38.964   9.558  30.423  0.00  0.00     0.036 H 
ATOM     28  H4  non d ame     -39.600   8.962  31.975  0.00  0.00     0.036 H 
ENDBRANCH  21  25
ENDBRANCH  16  19
ENDBRANCH  13  15
BRANCH  13  29
ATOM     29  C8  non d ame     -34.494   3.357  27.112  0.00  0.00    -0.049 C 
ATOM     30  H7  non d ame     -34.853   2.492  27.669  0.00  0.00     0.030 H 
ATOM     31  H8  non d ame     -35.297   3.744  26.485  0.00  0.00     0.030 H 
ATOM     32  H9  non d ame     -33.653   3.062  26.485  0.00  0.00     0.030 H 
ENDBRANCH  13  29
ENDBRANCH  10  13
ENDBRANCH   7   9
BRANCH   7  33
ATOM     33  C11 non d ame     -32.523   6.562  23.937  0.00  0.00    -0.033 C 
ATOM     34  H12 non d ame     -33.250   7.110  23.337  0.00  0.00     0.042 H 
BRANCH  33  35
ATOM     35  C12 non d ame     -31.103   6.923  23.400  0.00  0.00    -0.071 C 
ATOM     36  H13 non d ame     -30.765   6.145  22.715  0.00  0.00     0.028 H 
ATOM     37  H14 non d ame     -31.145   7.876  22.875  0.00  0.00     0.028 H 
ATOM     38  H15 non d ame     -30.407   6.998  24.235  0.00  0.00     0.028 H 
ENDBRANCH  33  35
BRANCH  33  39
ATOM     39  C13 non d ame     -32.819   5.036  23.778  0.00  0.00    -0.071 C 
ATOM     40  H16 non d ame     -33.895   4.881  23.697  0.00  0.00     0.028 H 
ATOM     41  H17 non d ame     -32.329   4.663  22.877  0.00  0.00     0.028 H 
ATOM     42  H18 non d ame     -32.437   4.499  24.646  0.00  0.00     0.028 H 
ENDBRANCH  33  39
ENDBRANCH   7  33
ENDBRANCH   4   7
ENDBRANCH   1   3
BRANCH   1  43
ATOM     43  C15 non d ame     -32.144  11.860  25.936  0.00  0.00     0.240 C 
ATOM     44  O5  non d ame     -31.007  11.612  26.173  0.00  0.00    -0.271 OA
ATOM     45  N6  non d ame     -32.504  13.166  25.313  0.00  0.00    -0.355 N 
ATOM     46  H46 non d ame     -33.466  13.387  25.102  0.00  0.00     0.162 HD
BRANCH  45  47
ATOM     47  C20 non d ame     -31.441  14.146  25.001  0.00  0.00     0.013 C 
ATOM     48  H30 non d ame     -30.505  13.601  24.887  0.00  0.00     0.072 H 
BRANCH  47  49
ATOM     49  C21 non d ame     -31.326  15.137  26.137  0.00  0.00    -0.038 C 
ATOM     50  H31 non d ame     -31.116  14.543  27.027  0.00  0.00     0.036 H 
ATOM     51  H32 non d ame     -30.611  15.888  25.801  0.00  0.00     0.036 H 
BRANCH  49  52
ATOM     52  C22 non d ame     -32.648  15.886  26.415  0.00  0.00     0.018 C 
ATOM     53  H33 non d ame     -32.552  16.849  25.915  0.00  0.00     0.048 H 
ATOM     54  H34 non d ame     -33.443  15.198  26.127  0.00  0.00     0.048 H 
BRANCH  52  55
ATOM     55  C23 non d ame     -32.882  16.206  27.918  0.00  0.00     0.259 C 
ATOM     56  O7  non d ame     -32.566  15.426  28.757  0.00  0.00    -0.265 OA
BRANCH  55  57
ATOM     57  O8  non d ame     -33.493  17.438  28.281  0.00  0.00    -0.317 OA
BRANCH  57  58
ATOM     58  C29 non d ame     -33.117  18.541  27.451  0.00  0.00     0.052 C 
ATOM     59  H47 non d ame     -32.658  19.270  28.119  0.00  0.00     0.082 H 
ATOM     60  H48 non d ame     -32.538  18.111  26.634  0.00  0.00     0.082 H 
BRANCH  58  61
ATOM     61  C35 non d ame     -34.412  19.161  26.862  0.00  0.00    -0.034 A 
ATOM     62  C30 non d ame     -35.000  18.602  25.731  0.00  0.00    -0.075 A 
ATOM     63  C31 non d ame     -36.163  19.158  25.202  0.00  0.00    -0.082 A 
ATOM     64  H49 non d ame     -34.549  17.728  25.260  0.00  0.00     0.084 H 
ATOM     65  C32 non d ame     -36.737  20.280  25.806  0.00  0.00    -0.083 A 
ATOM     66  H50 non d ame     -36.622  18.717  24.317  0.00  0.00     0.083 H 
ATOM     67  C33 non d ame     -36.145  20.836  26.931  0.00  0.00    -0.082 A 
ATOM     68  H51 non d ame     -37.647  20.721  25.399  0.00  0.00     0.083 H 
ATOM     69  C34 non d ame     -34.984  20.282  27.465  0.00  0.00    -0.075 A 
ATOM     70  H52 non d ame     -36.595  21.713  27.399  0.00  0.00     0.083 H 
ATOM     71  H53 non d ame     -34.525  20.724  28.350  0.00  0.00     0.084 H 
ENDBRANCH  58  61
ENDBRANCH  57  58
ENDBRANCH  55  57
ENDBRANCH  52  55
ENDBRANCH  49  52
ENDBRANCH  47  49
BRANCH  47  72
ATOM     72  C24 non d ame     -31.784  14.887  23.711  0.00  0.00    -0.039 C 
ATOM     73  H35 non d ame     -32.776  14.533  23.428  0.00  0.00     0.036 H 
ATOM     74  H36 non d ame     -31.626  15.943  23.931  0.00  0.00     0.036 H 
BRANCH  72  75
ATOM     75  C25 non d ame     -30.786  14.498  22.520  0.00  0.00    -0.001 C 
ATOM     76  C26 non d ame     -29.346  14.000  23.137  0.00  0.00    -0.035 C 
ATOM     77  C27 non d ame     -28.349  14.691  22.533  0.00  0.00     0.085 C 
ATOM     78  H38 non d ame     -29.264  14.297  24.183  0.00  0.00     0.036 H 
ATOM     79  H39 non d ame     -29.151  12.967  22.847  0.00  0.00     0.036 H 
ATOM     80  N5  non d ame     -28.993  15.842  21.799  0.00  0.00    -0.049 N 
ATOM     81  H40 non d ame     -27.735  15.084  23.344  0.00  0.00     0.075 H 
ATOM     82  H41 non d ame     -27.918  14.004  21.807  0.00  0.00     0.075 H 
ATOM     83  C28 non d ame     -30.571  15.506  21.742  0.00  0.00     0.193 C 
ATOM     84  H42 non d ame     -28.859  16.660  22.376  0.00  0.00     0.280 HD
ATOM     85  H43 non d ame     -28.625  15.822  20.859  0.00  0.00     0.280 HD
ATOM     86  H44 non d ame     -31.027  15.146  20.820  0.00  0.00     0.129 H 
ATOM     87  H37 non d ame     -31.258  13.853  21.779  0.00  0.00     0.046 H 
BRANCH  83  88
ATOM     88  O6  non d ame     -31.333  16.653  22.122  0.00  0.00    -0.369 OA
ATOM     89  H45 non d ame     -32.142  16.685  21.607  0.00  0.00     0.212 HD
ENDBRANCH  83  88
ENDBRANCH  72  75
ENDBRANCH  47  72
ENDBRANCH  45  47
ENDBRANCH   1  43
BRANCH   1  90
ATOM     90  C16 non d ame     -33.793  11.077  27.665  0.00  0.00    -0.035 C 
ATOM     91  H21 non d ame     -33.773  12.159  27.786  0.00  0.00     0.037 H 
ATOM     92  H22 non d ame     -34.742  10.541  27.709  0.00  0.00     0.037 H 
BRANCH  90  93
ATOM     93  C17 non d ame     -32.901  10.489  28.804  0.00  0.00    -0.059 C 
ATOM     94  H23 non d ame     -32.147   9.854  28.339  0.00  0.00     0.038 H 
BRANCH  93  95
ATOM     95  C18 non d ame     -32.156  11.605  29.604  0.00  0.00    -0.073 C 
ATOM     96  H24 non d ame     -31.949  11.251  30.614  0.00  0.00     0.028 H 
ATOM     97  H25 non d ame     -31.218  11.845  29.105  0.00  0.00     0.028 H 
ATOM     98  H26 non d ame     -32.781  12.496  29.652  0.00  0.00     0.028 H 
ENDBRANCH  93  95
BRANCH  93  99
ATOM     99  C19 non d ame     -33.725   9.603  29.742  0.00  0.00    -0.073 C 
ATOM    100  H27 non d ame     -34.321  10.232  30.405  0.00  0.00     0.028 H 
ATOM    101  H28 non d ame     -34.386   8.967  29.154  0.00  0.00     0.028 H 
ATOM    102  H29 non d ame     -33.056   8.981  30.335  0.00  0.00     0.028 H 
ENDBRANCH  93  99
ENDBRANCH  90  93
ENDBRANCH   1  90
TORSDOF 26
ENDMDL
MODEL 5
REMARK VINA RESULT:      -6.3      2.114      3.309
REMARK  26 active torsions:
REMARK  status: ('A' for Active; 'I' for Inactive)
REMARK    1  A    between atoms: C2_2  and  C3_3 
REMARK    2  A    between atoms: C4_6  and  C5_7 
REMARK       I    between atoms: C5_7  and  N2_9 
REMARK    3  A    between atoms: N2_9  and  C6_10 
REMARK    4  A    between atoms: C6_10  and  C7_11 
REMARK    5  A    between atoms: C6_10  and  C8_13 
REMARK       I    between atoms: C7_11  and  N3_14 
REMARK    6  A    between atoms: N3_14  and  C9_15 
REMARK    7  A    between atoms: C9_15  and  C10_16 
REMARK    8  A    between atoms: C9_15  and  C11_18 
REMARK       I    between atoms: C10_16  and  N4_21 
REMARK    9  A    between atoms: C11_18  and  C12_19 
REMARK   10  A    between atoms: C11_18  and  C13_20 
REMARK   11  A    between atoms: N4_21  and  C14_22 
REMARK   12  A    between atoms: C14_22  and  C15_23 
REMARK   13  A    between atoms: C14_22  and  C16_25 
REMARK       I    between atoms: C15_23  and  N6_40 
REMARK   14  A    between atoms: C16_25  and  C17_26 
REMARK   15  A    between atoms: C17_26  and  C18_27 
REMARK   16  A    between atoms: C17_26  and  C19_28 
REMARK   17  A    between atoms: C20_29  and  C21_30 
REMARK   18  A    between atoms: C20_29  and  C24_33 
REMARK   19  A    between atoms: C20_29  and  N6_40 
REMARK   20  A    between atoms: C21_30  and  C22_31 
REMARK   21  A    between atoms: C22_31  and  C23_32 
REMARK   22  A    between atoms: C23_32  and  O8_43 
REMARK   23  A    between atoms: C24_33  and  C25_34 
REMARK   24  A    between atoms: C28_38  and  O6_39 
REMARK   25  A    between atoms: C29_42  and  O8_43 
REMARK   26  A    between atoms: C29_42  and  C35_49 
ROOT
ATOM      1  C14 non d ame     -36.175  13.454  26.073  0.00  0.00     0.089 C 
ATOM      2  H20 non d ame     -36.925  13.331  26.855  0.00  0.00     0.087 H 
ENDROOT
BRANCH   1   3
ATOM      3  N4  non d ame     -35.919  14.880  25.932  0.00  0.00    -0.346 N 
ATOM      4  C10 non d ame     -36.914  15.888  26.449  0.00  0.00     0.241 C 
ATOM      5  O4  non d ame     -37.917  15.527  26.972  0.00  0.00    -0.271 OA
ATOM      6  H19 non d ame     -35.061  15.166  25.481  0.00  0.00     0.163 HD
BRANCH   4   7
ATOM      7  C9  non d ame     -36.630  17.359  26.299  0.00  0.00     0.092 C 
ATOM      8  H11 non d ame     -36.942  17.878  27.205  0.00  0.00     0.088 H 
BRANCH   7   9
ATOM      9  N3  non d ame     -35.186  17.566  26.155  0.00  0.00    -0.346 N 
ATOM     10  C7  non d ame     -34.373  17.804  27.323  0.00  0.00     0.240 C 
ATOM     11  O3  non d ame     -34.865  17.833  28.385  0.00  0.00    -0.271 OA
ATOM     12  H10 non d ame     -34.748  17.546  25.246  0.00  0.00     0.163 HD
BRANCH  10  13
ATOM     13  C6  non d ame     -32.837  18.027  27.164  0.00  0.00     0.086 C 
ATOM     14  H6  non d ame     -32.256  17.522  27.935  0.00  0.00     0.086 H 
BRANCH  13  15
ATOM     15  N2  non d ame     -32.409  17.471  25.890  0.00  0.00    -0.343 N 
ATOM     16  C5  non d ame     -31.795  16.142  25.853  0.00  0.00     0.273 C 
ATOM     17  O2  non d ame     -31.646  15.530  26.853  0.00  0.00    -0.266 OA
ATOM     18  H5  non d ame     -32.538  18.003  25.041  0.00  0.00     0.163 HD
BRANCH  16  19
ATOM     19  C4  non d ame     -31.340  15.542  24.514  0.00  0.00     0.154 A 
ATOM     20  C1  non d ame     -30.658  14.300  24.310  0.00  0.00    -0.017 A 
ATOM     21  C2  non d ame     -30.471  14.214  22.912  0.00  0.00     0.077 A 
ATOM     22  H1  non d ame     -30.348  13.574  25.061  0.00  0.00     0.091 H 
ATOM     23  O1  non d ame     -30.989  15.284  22.385  0.00  0.00    -0.218 OA
ATOM     24  N1  non d ame     -31.501  16.075  23.299  0.00  0.00    -0.123 NA
BRANCH  21  25
ATOM     25  C3  non d ame     -29.790  13.076  22.163  0.00  0.00    -0.029 C 
ATOM     26  H2  non d ame     -30.212  12.997  21.161  0.00  0.00     0.036 H 
ATOM     27  H3  non d ame     -28.721  13.277  22.091  0.00  0.00     0.036 H 
ATOM     28  H4  non d ame     -29.948  12.141  22.699  0.00  0.00     0.036 H 
ENDBRANCH  21  25
ENDBRANCH  16  19
ENDBRANCH  13  15
BRANCH  13  29
ATOM     29  C8  non d ame     -32.533  19.502  27.212  0.00  0.00    -0.049 C 
ATOM     30  H7  non d ame     -31.593  19.697  26.694  0.00  0.00     0.030 H 
ATOM     31  H8  non d ame     -33.336  20.055  26.725  0.00  0.00     0.030 H 
ATOM     32  H9  non d ame     -32.449  19.823  28.250  0.00  0.00     0.030 H 
ENDBRANCH  13  29
ENDBRANCH  10  13
ENDBRANCH   7   9
BRANCH   7  33
ATOM     33  C11 non d ame     -37.357  17.902  25.034  0.00  0.00    -0.033 C 
ATOM     34  H12 non d ame     -36.710  18.651  24.579  0.00  0.00     0.042 H 
BRANCH  33  35
ATOM     35  C12 non d ame     -37.581  16.773  23.979  0.00  0.00    -0.071 C 
ATOM     36  H13 non d ame     -37.476  15.801  24.460  0.00  0.00     0.028 H 
ATOM     37  H14 non d ame     -38.581  16.864  23.557  0.00  0.00     0.028 H 
ATOM     38  H15 non d ame     -36.841  16.867  23.184  0.00  0.00     0.028 H 
ENDBRANCH  33  35
BRANCH  33  39
ATOM     39  C13 non d ame     -38.705  18.594  25.416  0.00  0.00    -0.071 C 
ATOM     40  H16 non d ame     -39.523  17.881  25.310  0.00  0.00     0.028 H 
ATOM     41  H17 non d ame     -38.655  18.940  26.450  0.00  0.00     0.028 H 
ATOM     42  H18 non d ame     -38.876  19.446  24.758  0.00  0.00     0.028 H 
ENDBRANCH  33  39
ENDBRANCH   7  33
ENDBRANCH   4   7
ENDBRANCH   1   3
BRANCH   1  43
ATOM     43  C15 non d ame     -34.837  12.743  26.425  0.00  0.00     0.240 C 
ATOM     44  O5  non d ame     -33.809  13.188  26.029  0.00  0.00    -0.271 OA
ATOM     45  N6  non d ame     -34.837  11.510  27.263  0.00  0.00    -0.355 N 
ATOM     46  H46 non d ame     -35.704  11.125  27.610  0.00  0.00     0.162 HD
BRANCH  45  47
ATOM     47  C20 non d ame     -33.557  10.847  27.590  0.00  0.00     0.013 C 
ATOM     48  H30 non d ame     -32.751  11.439  27.155  0.00  0.00     0.072 H 
BRANCH  47  49
ATOM     49  C21 non d ame     -33.551   9.454  27.000  0.00  0.00    -0.038 C 
ATOM     50  H31 non d ame     -34.276   9.476  26.187  0.00  0.00     0.036 H 
ATOM     51  H32 non d ame     -32.505   9.227  26.793  0.00  0.00     0.036 H 
BRANCH  49  52
ATOM     52  C22 non d ame     -34.042   8.380  27.995  0.00  0.00     0.018 C 
ATOM     53  H33 non d ame     -33.471   7.481  27.765  0.00  0.00     0.048 H 
ATOM     54  H34 non d ame     -33.968   8.836  28.983  0.00  0.00     0.048 H 
BRANCH  52  55
ATOM     55  C23 non d ame     -35.537   7.996  27.813  0.00  0.00     0.259 C 
ATOM     56  O7  non d ame     -36.396   8.771  28.083  0.00  0.00    -0.265 OA
BRANCH  55  57
ATOM     57  O8  non d ame     -35.869   6.699  27.331  0.00  0.00    -0.317 OA
BRANCH  57  58
ATOM     58  C29 non d ame     -36.573   5.889  28.276  0.00  0.00     0.052 C 
ATOM     59  H47 non d ame     -37.323   6.541  28.724  0.00  0.00     0.082 H 
ATOM     60  H48 non d ame     -36.882   4.999  27.730  0.00  0.00     0.082 H 
BRANCH  58  61
ATOM     61  C35 non d ame     -35.570   5.463  29.381  0.00  0.00    -0.034 A 
ATOM     62  C30 non d ame     -34.411   4.772  29.041  0.00  0.00    -0.075 A 
ATOM     63  C31 non d ame     -33.510   4.389  30.034  0.00  0.00    -0.082 A 
ATOM     64  H49 non d ame     -34.208   4.531  27.998  0.00  0.00     0.084 H 
ATOM     65  C32 non d ame     -33.773   4.696  31.371  0.00  0.00    -0.083 A 
ATOM     66  H50 non d ame     -32.602   3.850  29.764  0.00  0.00     0.083 H 
ATOM     67  C33 non d ame     -34.932   5.382  31.706  0.00  0.00    -0.082 A 
ATOM     68  H51 non d ame     -33.074   4.401  32.154  0.00  0.00     0.083 H 
ATOM     69  C34 non d ame     -35.835   5.769  30.717  0.00  0.00    -0.075 A 
ATOM     70  H52 non d ame     -35.136   5.619  32.751  0.00  0.00     0.083 H 
ATOM     71  H53 non d ame     -36.743   6.309  30.988  0.00  0.00     0.084 H 
ENDBRANCH  58  61
ENDBRANCH  57  58
ENDBRANCH  55  57
ENDBRANCH  52  55
ENDBRANCH  49  52
ENDBRANCH  47  49
BRANCH  47  72
ATOM     72  C24 non d ame     -33.392  10.759  29.106  0.00  0.00    -0.039 C 
ATOM     73  H35 non d ame     -34.406  10.710  29.505  0.00  0.00     0.036 H 
ATOM     74  H36 non d ame     -32.700   9.935  29.276  0.00  0.00     0.036 H 
BRANCH  72  75
ATOM     75  C25 non d ame     -32.712  12.079  29.706  0.00  0.00    -0.001 C 
ATOM     76  C26 non d ame     -31.408  12.500  28.796  0.00  0.00    -0.035 C 
ATOM     77  C27 non d ame     -30.342  12.673  29.615  0.00  0.00     0.085 C 
ATOM     78  H38 non d ame     -31.109  11.665  28.163  0.00  0.00     0.036 H 
ATOM     79  H39 non d ame     -31.558  13.488  28.360  0.00  0.00     0.036 H 
ATOM     80  N5  non d ame     -30.718  12.093  30.957  0.00  0.00    -0.049 N 
ATOM     81  H40 non d ame     -29.541  12.076  29.180  0.00  0.00     0.075 H 
ATOM     82  H41 non d ame     -30.225  13.752  29.714  0.00  0.00     0.075 H 
ATOM     83  C28 non d ame     -32.319  11.892  30.922  0.00  0.00     0.193 C 
ATOM     84  H42 non d ame     -30.281  11.184  31.008  0.00  0.00     0.280 HD
ATOM     85  H43 non d ame     -30.497  12.800  31.645  0.00  0.00     0.280 HD
ATOM     86  H44 non d ame     -32.976  12.583  31.450  0.00  0.00     0.129 H 
ATOM     87  H37 non d ame     -33.442  12.861  29.916  0.00  0.00     0.046 H 
BRANCH  83  88
ATOM     88  O6  non d ame     -32.664  10.593  31.405  0.00  0.00    -0.369 OA
ATOM     89  H45 non d ame     -32.873  10.020  30.663  0.00  0.00     0.212 HD
ENDBRANCH  83  88
ENDBRANCH  72  75
ENDBRANCH  47  72
ENDBRANCH  45  47
ENDBRANCH   1  43
BRANCH   1  90
ATOM     90  C16 non d ame     -36.711  12.914  24.757  0.00  0.00    -0.035 C 
ATOM     91  H21 non d ame     -37.163  13.769  24.256  0.00  0.00     0.037 H 
ATOM     92  H22 non d ame     -35.872  12.392  24.296  0.00  0.00     0.037 H 
BRANCH  90  93
ATOM     93  C17 non d ame     -37.846  11.855  24.930  0.00  0.00    -0.059 C 
ATOM     94  H23 non d ame     -38.584  12.031  24.148  0.00  0.00     0.038 H 
BRANCH  93  95
ATOM     95  C18 non d ame     -37.319  10.393  24.769  0.00  0.00    -0.073 C 
ATOM     96  H24 non d ame     -36.669  10.336  23.896  0.00  0.00     0.028 H 
ATOM     97  H25 non d ame     -36.758  10.109  25.658  0.00  0.00     0.028 H 
ATOM     98  H26 non d ame     -38.162   9.715  24.639  0.00  0.00     0.028 H 
ENDBRANCH  93  95
BRANCH  93  99
ATOM     99  C19 non d ame     -38.558  12.032  26.274  0.00  0.00    -0.073 C 
ATOM    100  H27 non d ame     -38.529  13.082  26.566  0.00  0.00     0.028 H 
ATOM    101  H28 non d ame     -39.596  11.710  26.182  0.00  0.00     0.028 H 
ATOM    102  H29 non d ame     -38.058  11.430  27.032  0.00  0.00     0.028 H 
ENDBRANCH  93  99
ENDBRANCH  90  93
ENDBRANCH   1  90
TORSDOF 26
ENDMDL
MODEL 6
REMARK VINA RESULT:      -6.3      4.027      8.138
REMARK  26 active torsions:
REMARK  status: ('A' for Active; 'I' for Inactive)
REMARK    1  A    between atoms: C2_2  and  C3_3 
REMARK    2  A    between atoms: C4_6  and  C5_7 
REMARK       I    between atoms: C5_7  and  N2_9 
REMARK    3  A    between atoms: N2_9  and  C6_10 
REMARK    4  A    between atoms: C6_10  and  C7_11 
REMARK    5  A    between atoms: C6_10  and  C8_13 
REMARK       I    between atoms: C7_11  and  N3_14 
REMARK    6  A    between atoms: N3_14  and  C9_15 
REMARK    7  A    between atoms: C9_15  and  C10_16 
REMARK    8  A    between atoms: C9_15  and  C11_18 
REMARK       I    between atoms: C10_16  and  N4_21 
REMARK    9  A    between atoms: C11_18  and  C12_19 
REMARK   10  A    between atoms: C11_18  and  C13_20 
REMARK   11  A    between atoms: N4_21  and  C14_22 
REMARK   12  A    between atoms: C14_22  and  C15_23 
REMARK   13  A    between atoms: C14_22  and  C16_25 
REMARK       I    between atoms: C15_23  and  N6_40 
REMARK   14  A    between atoms: C16_25  and  C17_26 
REMARK   15  A    between atoms: C17_26  and  C18_27 
REMARK   16  A    between atoms: C17_26  and  C19_28 
REMARK   17  A    between atoms: C20_29  and  C21_30 
REMARK   18  A    between atoms: C20_29  and  C24_33 
REMARK   19  A    between atoms: C20_29  and  N6_40 
REMARK   20  A    between atoms: C21_30  and  C22_31 
REMARK   21  A    between atoms: C22_31  and  C23_32 
REMARK   22  A    between atoms: C23_32  and  O8_43 
REMARK   23  A    between atoms: C24_33  and  C25_34 
REMARK   24  A    between atoms: C28_38  and  O6_39 
REMARK   25  A    between atoms: C29_42  and  O8_43 
REMARK   26  A    between atoms: C29_42  and  C35_49 
ROOT
ATOM      1  C14 non d ame     -34.954   5.626  25.769  0.00  0.00     0.089 C 
ATOM      2  H20 non d ame     -34.018   5.489  26.311  0.00  0.00     0.087 H 
ENDROOT
BRANCH   1   3
ATOM      3  N4  non d ame     -35.994   5.894  26.752  0.00  0.00    -0.346 N 
ATOM      4  C10 non d ame     -35.628   6.243  28.172  0.00  0.00     0.241 C 
ATOM      5  O4  non d ame     -34.490   6.300  28.502  0.00  0.00    -0.271 OA
ATOM      6  H19 non d ame     -36.957   5.838  26.451  0.00  0.00     0.163 HD
BRANCH   4   7
ATOM      7  C9  non d ame     -36.717   6.523  29.174  0.00  0.00     0.092 C 
ATOM      8  H11 non d ame     -36.476   6.026  30.114  0.00  0.00     0.088 H 
BRANCH   7   9
ATOM      9  N3  non d ame     -36.774   7.962  29.447  0.00  0.00    -0.346 N 
ATOM     10  C7  non d ame     -36.258   8.481  30.690  0.00  0.00     0.240 C 
ATOM     11  O3  non d ame     -35.795   7.754  31.482  0.00  0.00    -0.271 OA
ATOM     12  H10 non d ame     -37.172   8.601  28.773  0.00  0.00     0.163 HD
BRANCH  10  13
ATOM     13  C6  non d ame     -36.324  10.014  30.975  0.00  0.00     0.086 C 
ATOM     14  H6  non d ame     -36.331  10.244  32.040  0.00  0.00     0.086 H 
BRANCH  13  15
ATOM     15  N2  non d ame     -35.139  10.648  30.420  0.00  0.00    -0.343 N 
ATOM     16  C5  non d ame     -34.056  11.061  31.315  0.00  0.00     0.273 C 
ATOM     17  O2  non d ame     -34.149  10.882  32.480  0.00  0.00    -0.266 OA
ATOM     18  H5  non d ame     -35.070  10.799  29.424  0.00  0.00     0.163 HD
BRANCH  16  19
ATOM     19  C4  non d ame     -32.798  11.731  30.742  0.00  0.00     0.154 A 
ATOM     20  C1  non d ame     -32.729  12.959  30.009  0.00  0.00    -0.017 A 
ATOM     21  C2  non d ame     -31.358  13.130  29.715  0.00  0.00     0.077 A 
ATOM     22  H1  non d ame     -33.548  13.623  29.734  0.00  0.00     0.091 H 
ATOM     23  O1  non d ame     -30.723  12.115  30.224  0.00  0.00    -0.218 OA
ATOM     24  N1  non d ame     -31.541  11.285  30.828  0.00  0.00    -0.123 NA
BRANCH  21  25
ATOM     25  C3  non d ame     -30.739  14.289  28.944  0.00  0.00    -0.029 C 
ATOM     26  H2  non d ame     -29.656  14.268  29.063  0.00  0.00     0.036 H 
ATOM     27  H3  non d ame     -30.990  14.197  27.888  0.00  0.00     0.036 H 
ATOM     28  H4  non d ame     -31.129  15.231  29.330  0.00  0.00     0.036 H 
ENDBRANCH  21  25
ENDBRANCH  16  19
ENDBRANCH  13  15
BRANCH  13  29
ATOM     29  C8  non d ame     -37.564  10.593  30.343  0.00  0.00    -0.049 C 
ATOM     30  H7  non d ame     -38.221   9.783  30.024  0.00  0.00     0.030 H 
ATOM     31  H8  non d ame     -38.084  11.217  31.069  0.00  0.00     0.030 H 
ATOM     32  H9  non d ame     -37.284  11.195  29.479  0.00  0.00     0.030 H 
ENDBRANCH  13  29
ENDBRANCH  10  13
ENDBRANCH   7   9
BRANCH   7  33
ATOM     33  C11 non d ame     -38.085   6.052  28.598  0.00  0.00    -0.033 C 
ATOM     34  H12 non d ame     -37.976   5.972  27.517  0.00  0.00     0.042 H 
BRANCH  33  35
ATOM     35  C12 non d ame     -38.473   4.640  29.137  0.00  0.00    -0.071 C 
ATOM     36  H13 non d ame     -38.975   4.077  28.351  0.00  0.00     0.028 H 
ATOM     37  H14 non d ame     -37.573   4.110  29.447  0.00  0.00     0.028 H 
ATOM     38  H15 non d ame     -39.143   4.748  29.990  0.00  0.00     0.028 H 
ENDBRANCH  33  35
BRANCH  33  39
ATOM     39  C13 non d ame     -39.206   7.100  28.895  0.00  0.00    -0.071 C 
ATOM     40  H16 non d ame     -39.857   6.722  29.684  0.00  0.00     0.028 H 
ATOM     41  H17 non d ame     -38.752   8.038  29.215  0.00  0.00     0.028 H 
ATOM     42  H18 non d ame     -39.792   7.271  27.991  0.00  0.00     0.028 H 
ENDBRANCH  33  39
ENDBRANCH   7  33
ENDBRANCH   4   7
ENDBRANCH   1   3
BRANCH   1  43
ATOM     43  C15 non d ame     -34.890   6.824  24.778  0.00  0.00     0.240 C 
ATOM     44  O5  non d ame     -35.253   6.682  23.655  0.00  0.00    -0.271 OA
ATOM     45  N6  non d ame     -34.382   8.150  25.231  0.00  0.00    -0.355 N 
ATOM     46  H46 non d ame     -34.075   8.284  26.184  0.00  0.00     0.162 HD
BRANCH  45  47
ATOM     47  C20 non d ame     -34.328   9.279  24.277  0.00  0.00     0.013 C 
ATOM     48  H30 non d ame     -33.889  10.133  24.793  0.00  0.00     0.072 H 
BRANCH  47  49
ATOM     49  C21 non d ame     -35.730   9.615  23.821  0.00  0.00    -0.038 C 
ATOM     50  H31 non d ame     -35.610  10.267  22.956  0.00  0.00     0.036 H 
ATOM     51  H32 non d ame     -36.243   8.659  23.717  0.00  0.00     0.036 H 
BRANCH  49  52
ATOM     52  C22 non d ame     -36.523  10.424  24.871  0.00  0.00     0.018 C 
ATOM     53  H33 non d ame     -35.954  11.340  25.030  0.00  0.00     0.048 H 
ATOM     54  H34 non d ame     -37.545  10.476  24.493  0.00  0.00     0.048 H 
BRANCH  52  55
ATOM     55  C23 non d ame     -36.614   9.731  26.258  0.00  0.00     0.259 C 
ATOM     56  O7  non d ame     -37.335   8.801  26.422  0.00  0.00    -0.265 OA
BRANCH  55  57
ATOM     57  O8  non d ame     -35.833  10.228  27.338  0.00  0.00    -0.317 OA
BRANCH  57  58
ATOM     58  C29 non d ame     -35.504  11.616  27.228  0.00  0.00     0.052 C 
ATOM     59  H47 non d ame     -36.113  12.000  26.410  0.00  0.00     0.082 H 
ATOM     60  H48 non d ame     -35.619  12.027  28.231  0.00  0.00     0.082 H 
BRANCH  58  61
ATOM     61  C35 non d ame     -34.011  11.724  26.822  0.00  0.00    -0.034 A 
ATOM     62  C30 non d ame     -33.570  12.808  26.070  0.00  0.00    -0.075 A 
ATOM     63  C31 non d ame     -32.228  12.905  25.704  0.00  0.00    -0.082 A 
ATOM     64  H49 non d ame     -34.275  13.582  25.767  0.00  0.00     0.084 H 
ATOM     65  C32 non d ame     -31.326  11.910  26.091  0.00  0.00    -0.083 A 
ATOM     66  H50 non d ame     -31.885  13.757  25.117  0.00  0.00     0.083 H 
ATOM     67  C33 non d ame     -31.771  10.829  26.839  0.00  0.00    -0.082 A 
ATOM     68  H51 non d ame     -30.275  11.979  25.810  0.00  0.00     0.083 H 
ATOM     69  C34 non d ame     -33.111  10.729  27.208  0.00  0.00    -0.075 A 
ATOM     70  H52 non d ame     -31.065  10.053  27.137  0.00  0.00     0.083 H 
ATOM     71  H53 non d ame     -33.453   9.877  27.796  0.00  0.00     0.084 H 
ENDBRANCH  58  61
ENDBRANCH  57  58
ENDBRANCH  55  57
ENDBRANCH  52  55
ENDBRANCH  49  52
ENDBRANCH  47  49
BRANCH  47  72
ATOM     72  C24 non d ame     -33.477   8.893  23.069  0.00  0.00    -0.039 C 
ATOM     73  H35 non d ame     -33.880   7.941  22.722  0.00  0.00     0.036 H 
ATOM     74  H36 non d ame     -33.495   9.763  22.412  0.00  0.00     0.036 H 
BRANCH  72  75
ATOM     75  C25 non d ame     -31.949   8.640  23.476  0.00  0.00    -0.001 C 
ATOM     76  C26 non d ame     -31.019   9.900  22.974  0.00  0.00    -0.035 C 
ATOM     77  C27 non d ame     -29.967   9.414  22.273  0.00  0.00     0.085 C 
ATOM     78  H38 non d ame     -31.561  10.495  22.240  0.00  0.00     0.036 H 
ATOM     79  H39 non d ame     -30.552  10.384  23.832  0.00  0.00     0.036 H 
ATOM     80  N5  non d ame     -30.269   7.966  21.971  0.00  0.00    -0.049 N 
ATOM     81  H40 non d ame     -29.955   9.976  21.339  0.00  0.00     0.075 H 
ATOM     82  H41 non d ame     -29.116   9.465  22.951  0.00  0.00     0.075 H 
ATOM     83  C28 non d ame     -31.495   7.557  22.938  0.00  0.00     0.193 C 
ATOM     84  H42 non d ame     -30.589   7.933  21.014  0.00  0.00     0.280 HD
ATOM     85  H43 non d ame     -29.452   7.440  22.248  0.00  0.00     0.280 HD
ATOM     86  H44 non d ame     -31.321   6.952  23.828  0.00  0.00     0.129 H 
ATOM     87  H37 non d ame     -31.845   8.330  24.516  0.00  0.00     0.046 H 
BRANCH  83  88
ATOM     88  O6  non d ame     -32.499   6.863  22.195  0.00  0.00    -0.369 OA
ATOM     89  H45 non d ame     -32.354   7.000  21.256  0.00  0.00     0.212 HD
ENDBRANCH  83  88
ENDBRANCH  72  75
ENDBRANCH  47  72
ENDBRANCH  45  47
ENDBRANCH   1  43
BRANCH   1  90
ATOM     90  C16 non d ame     -35.302   4.355  25.012  0.00  0.00    -0.035 C 
ATOM     91  H21 non d ame     -36.390   4.295  25.033  0.00  0.00     0.037 H 
ATOM     92  H22 non d ame     -34.779   4.434  24.059  0.00  0.00     0.037 H 
BRANCH  90  93
ATOM     93  C17 non d ame     -34.776   3.054  25.698  0.00  0.00    -0.059 C 
ATOM     94  H23 non d ame     -34.431   2.382  24.912  0.00  0.00     0.038 H 
BRANCH  93  95
ATOM     95  C18 non d ame     -33.569   3.335  26.649  0.00  0.00    -0.073 C 
ATOM     96  H24 non d ame     -32.764   3.805  26.085  0.00  0.00     0.028 H 
ATOM     97  H25 non d ame     -33.887   4.001  27.452  0.00  0.00     0.028 H 
ATOM     98  H26 non d ame     -33.215   2.397  27.075  0.00  0.00     0.028 H 
ENDBRANCH  93  95
BRANCH  93  99
ATOM     99  C19 non d ame     -35.903   2.336  26.446  0.00  0.00    -0.073 C 
ATOM    100  H27 non d ame     -36.497   1.756  25.739  0.00  0.00     0.028 H 
ATOM    101  H28 non d ame     -35.476   1.668  27.194  0.00  0.00     0.028 H 
ATOM    102  H29 non d ame     -36.539   3.072  26.938  0.00  0.00     0.028 H 
ENDBRANCH  93  99
ENDBRANCH  90  93
ENDBRANCH   1  90
TORSDOF 26
ENDMDL
MODEL 7
REMARK VINA RESULT:      -6.3      2.523      6.023
REMARK  26 active torsions:
REMARK  status: ('A' for Active; 'I' for Inactive)
REMARK    1  A    between atoms: C2_2  and  C3_3 
REMARK    2  A    between atoms: C4_6  and  C5_7 
REMARK       I    between atoms: C5_7  and  N2_9 
REMARK    3  A    between atoms: N2_9  and  C6_10 
REMARK    4  A    between atoms: C6_10  and  C7_11 
REMARK    5  A    between atoms: C6_10  and  C8_13 
REMARK       I    between atoms: C7_11  and  N3_14 
REMARK    6  A    between atoms: N3_14  and  C9_15 
REMARK    7  A    between atoms: C9_15  and  C10_16 
REMARK    8  A    between atoms: C9_15  and  C11_18 
REMARK       I    between atoms: C10_16  and  N4_21 
REMARK    9  A    between atoms: C11_18  and  C12_19 
REMARK   10  A    between atoms: C11_18  and  C13_20 
REMARK   11  A    between atoms: N4_21  and  C14_22 
REMARK   12  A    between atoms: C14_22  and  C15_23 
REMARK   13  A    between atoms: C14_22  and  C16_25 
REMARK       I    between atoms: C15_23  and  N6_40 
REMARK   14  A    between atoms: C16_25  and  C17_26 
REMARK   15  A    between atoms: C17_26  and  C18_27 
REMARK   16  A    between atoms: C17_26  and  C19_28 
REMARK   17  A    between atoms: C20_29  and  C21_30 
REMARK   18  A    between atoms: C20_29  and  C24_33 
REMARK   19  A    between atoms: C20_29  and  N6_40 
REMARK   20  A    between atoms: C21_30  and  C22_31 
REMARK   21  A    between atoms: C22_31  and  C23_32 
REMARK   22  A    between atoms: C23_32  and  O8_43 
REMARK   23  A    between atoms: C24_33  and  C25_34 
REMARK   24  A    between atoms: C28_38  and  O6_39 
REMARK   25  A    between atoms: C29_42  and  O8_43 
REMARK   26  A    between atoms: C29_42  and  C35_49 
ROOT
ATOM      1  C14 non d ame     -32.930  10.697  29.747  0.00  0.00     0.089 C 
ATOM      2  H20 non d ame     -31.895  10.374  29.631  0.00  0.00     0.087 H 
ENDROOT
BRANCH   1   3
ATOM      3  N4  non d ame     -33.487  10.869  28.413  0.00  0.00    -0.346 N 
ATOM      4  C10 non d ame     -32.580  10.911  27.209  0.00  0.00     0.241 C 
ATOM      5  O4  non d ame     -31.405  10.806  27.338  0.00  0.00    -0.271 OA
ATOM      6  H19 non d ame     -34.489  10.958  28.325  0.00  0.00     0.163 HD
BRANCH   4   7
ATOM      7  C9  non d ame     -33.174  11.083  25.835  0.00  0.00     0.092 C 
ATOM      8  H11 non d ame     -34.260  11.013  25.903  0.00  0.00     0.088 H 
BRANCH   7   9
ATOM      9  N3  non d ame     -32.857  12.423  25.331  0.00  0.00    -0.346 N 
ATOM     10  C7  non d ame     -33.419  13.586  25.972  0.00  0.00     0.240 C 
ATOM     11  O3  non d ame     -34.130  13.462  26.894  0.00  0.00    -0.271 OA
ATOM     12  H10 non d ame     -32.247  12.545  24.535  0.00  0.00     0.163 HD
BRANCH  10  13
ATOM     13  C6  non d ame     -33.081  15.009  25.428  0.00  0.00     0.086 C 
ATOM     14  H6  non d ame     -33.561  15.221  24.473  0.00  0.00     0.086 H 
BRANCH  13  15
ATOM     15  N2  non d ame     -33.571  16.002  26.370  0.00  0.00    -0.343 N 
ATOM     16  C5  non d ame     -34.816  16.717  26.081  0.00  0.00     0.273 C 
ATOM     17  O2  non d ame     -35.414  16.489  25.087  0.00  0.00    -0.266 OA
ATOM     18  H5  non d ame     -33.052  16.193  27.215  0.00  0.00     0.163 HD
BRANCH  16  19
ATOM     19  C4  non d ame     -35.346  17.769  27.068  0.00  0.00     0.154 A 
ATOM     20  C1  non d ame     -36.010  18.996  26.749  0.00  0.00    -0.017 A 
ATOM     21  C2  non d ame     -36.291  19.592  27.999  0.00  0.00     0.077 A 
ATOM     22  H1  non d ame     -36.251  19.393  25.763  0.00  0.00     0.091 H 
ATOM     23  O1  non d ame     -35.838  18.792  28.920  0.00  0.00    -0.218 OA
ATOM     24  N1  non d ame     -35.283  17.722  28.401  0.00  0.00    -0.123 NA
BRANCH  21  25
ATOM     25  C3  non d ame     -36.994  20.924  28.225  0.00  0.00    -0.029 C 
ATOM     26  H2  non d ame     -36.252  21.719  28.299  0.00  0.00     0.036 H 
ATOM     27  H3  non d ame     -37.662  21.128  27.389  0.00  0.00     0.036 H 
ATOM     28  H4  non d ame     -37.571  20.878  29.149  0.00  0.00     0.036 H 
ENDBRANCH  21  25
ENDBRANCH  16  19
ENDBRANCH  13  15
BRANCH  13  29
ATOM     29  C8  non d ame     -31.588  15.145  25.264  0.00  0.00    -0.049 C 
ATOM     30  H7  non d ame     -31.221  14.353  24.611  0.00  0.00     0.030 H 
ATOM     31  H8  non d ame     -31.359  16.115  24.823  0.00  0.00     0.030 H 
ATOM     32  H9  non d ame     -31.107  15.065  26.239  0.00  0.00     0.030 H 
ENDBRANCH  13  29
ENDBRANCH  10  13
ENDBRANCH   7   9
BRANCH   7  33
ATOM     33  C11 non d ame     -32.577  10.015  24.874  0.00  0.00    -0.033 C 
ATOM     34  H12 non d ame     -32.093   9.254  25.487  0.00  0.00     0.042 H 
BRANCH  33  35
ATOM     35  C12 non d ame     -33.694   9.308  24.045  0.00  0.00    -0.071 C 
ATOM     36  H13 non d ame     -34.643   9.386  24.574  0.00  0.00     0.028 H 
ATOM     37  H14 non d ame     -33.781   9.788  23.070  0.00  0.00     0.028 H 
ATOM     38  H15 non d ame     -33.438   8.257  23.912  0.00  0.00     0.028 H 
ENDBRANCH  33  35
BRANCH  33  39
ATOM     39  C13 non d ame     -31.492  10.645  23.942  0.00  0.00    -0.071 C 
ATOM     40  H16 non d ame     -31.063  11.523  24.425  0.00  0.00     0.028 H 
ATOM     41  H17 non d ame     -30.706   9.914  23.752  0.00  0.00     0.028 H 
ATOM     42  H18 non d ame     -31.951  10.937  22.997  0.00  0.00     0.028 H 
ENDBRANCH  33  39
ENDBRANCH   7  33
ENDBRANCH   4   7
ENDBRANCH   1   3
BRANCH   1  43
ATOM     43  C15 non d ame     -33.790   9.651  30.511  0.00  0.00     0.240 C 
ATOM     44  O5  non d ame     -34.019   9.805  31.667  0.00  0.00    -0.271 OA
ATOM     45  N6  non d ame     -34.336   8.460  29.800  0.00  0.00    -0.355 N 
ATOM     46  H46 non d ame     -34.153   8.320  28.817  0.00  0.00     0.162 HD
BRANCH  45  47
ATOM     47  C20 non d ame     -35.153   7.475  30.541  0.00  0.00     0.013 C 
ATOM     48  H30 non d ame     -34.772   7.421  31.560  0.00  0.00     0.072 H 
BRANCH  47  49
ATOM     49  C21 non d ame     -35.034   6.123  29.873  0.00  0.00    -0.038 C 
ATOM     50  H31 non d ame     -34.395   5.528  30.525  0.00  0.00     0.036 H 
ATOM     51  H32 non d ame     -36.057   5.804  29.672  0.00  0.00     0.036 H 
BRANCH  49  52
ATOM     52  C22 non d ame     -34.321   6.192  28.505  0.00  0.00     0.018 C 
ATOM     53  H33 non d ame     -35.100   6.038  27.758  0.00  0.00     0.048 H 
ATOM     54  H34 non d ame     -33.751   7.121  28.515  0.00  0.00     0.048 H 
BRANCH  52  55
ATOM     55  C23 non d ame     -33.284   5.056  28.282  0.00  0.00     0.259 C 
ATOM     56  O7  non d ame     -33.052   4.273  29.145  0.00  0.00    -0.265 OA
BRANCH  55  57
ATOM     57  O8  non d ame     -32.603   4.969  27.036  0.00  0.00    -0.317 OA
BRANCH  57  58
ATOM     58  C29 non d ame     -33.466   4.755  25.915  0.00  0.00     0.052 C 
ATOM     59  H47 non d ame     -33.562   3.674  25.819  0.00  0.00     0.082 H 
ATOM     60  H48 non d ame     -34.349   5.367  26.101  0.00  0.00     0.082 H 
BRANCH  58  61
ATOM     61  C35 non d ame     -32.750   5.299  24.650  0.00  0.00    -0.034 A 
ATOM     62  C30 non d ame     -33.137   4.859  23.388  0.00  0.00    -0.075 A 
ATOM     63  C31 non d ame     -32.494   5.346  22.251  0.00  0.00    -0.082 A 
ATOM     64  H49 non d ame     -33.943   4.131  23.289  0.00  0.00     0.084 H 
ATOM     65  C32 non d ame     -31.458   6.276  22.380  0.00  0.00    -0.083 A 
ATOM     66  H50 non d ame     -32.800   5.001  21.263  0.00  0.00     0.083 H 
ATOM     67  C33 non d ame     -31.074   6.710  23.641  0.00  0.00    -0.082 A 
ATOM     68  H51 non d ame     -30.951   6.663  21.496  0.00  0.00     0.083 H 
ATOM     69  C34 non d ame     -31.715   6.227  24.780  0.00  0.00    -0.075 A 
ATOM     70  H52 non d ame     -30.264   7.434  23.738  0.00  0.00     0.083 H 
ATOM     71  H53 non d ame     -31.408   6.573  25.767  0.00  0.00     0.084 H 
ENDBRANCH  58  61
ENDBRANCH  57  58
ENDBRANCH  55  57
ENDBRANCH  52  55
ENDBRANCH  49  52
ENDBRANCH  47  49
BRANCH  47  72
ATOM     72  C24 non d ame     -36.616   7.915  30.544  0.00  0.00    -0.039 C 
ATOM     73  H35 non d ame     -37.197   6.993  30.509  0.00  0.00     0.036 H 
ATOM     74  H36 non d ame     -36.714   8.589  31.396  0.00  0.00     0.036 H 
BRANCH  72  75
ATOM     75  C25 non d ame     -36.985   8.755  29.231  0.00  0.00    -0.001 C 
ATOM     76  C26 non d ame     -37.341  10.307  29.642  0.00  0.00    -0.035 C 
ATOM     77  C27 non d ame     -38.532  10.642  29.090  0.00  0.00     0.085 C 
ATOM     78  H38 non d ame     -37.528  10.377  30.713  0.00  0.00     0.036 H 
ATOM     79  H39 non d ame     -36.639  10.991  29.165  0.00  0.00     0.036 H 
ATOM     80  N5  non d ame     -39.175   9.361  28.615  0.00  0.00    -0.049 N 
ATOM     81  H40 non d ame     -39.125  11.056  29.906  0.00  0.00     0.075 H 
ATOM     82  H41 non d ame     -38.289  11.259  28.225  0.00  0.00     0.075 H 
ATOM     83  C28 non d ame     -38.005   8.248  28.623  0.00  0.00     0.193 C 
ATOM     84  H42 non d ame     -39.862   9.110  29.312  0.00  0.00     0.280 HD
ATOM     85  H43 non d ame     -39.459   9.522  27.660  0.00  0.00     0.280 HD
ATOM     86  H44 non d ame     -37.540   7.927  27.691  0.00  0.00     0.129 H 
ATOM     87  H37 non d ame     -36.261   8.608  28.430  0.00  0.00     0.046 H 
BRANCH  83  88
ATOM     88  O6  non d ame     -38.467   7.052  29.251  0.00  0.00    -0.369 OA
ATOM     89  H45 non d ame     -37.847   6.790  29.936  0.00  0.00     0.212 HD
ENDBRANCH  83  88
ENDBRANCH  72  75
ENDBRANCH  47  72
ENDBRANCH  45  47
ENDBRANCH   1  43
BRANCH   1  90
ATOM     90  C16 non d ame     -32.975  12.029  30.479  0.00  0.00    -0.035 C 
ATOM     91  H21 non d ame     -33.608  12.672  29.868  0.00  0.00     0.037 H 
ATOM     92  H22 non d ame     -33.269  11.787  31.500  0.00  0.00     0.037 H 
BRANCH  90  93
ATOM     93  C17 non d ame     -31.587  12.738  30.574  0.00  0.00    -0.059 C 
ATOM     94  H23 non d ame     -31.596  13.363  31.468  0.00  0.00     0.038 H 
BRANCH  93  95
ATOM     95  C18 non d ame     -30.412  11.718  30.717  0.00  0.00    -0.073 C 
ATOM     96  H24 non d ame     -30.815  10.727  30.922  0.00  0.00     0.028 H 
ATOM     97  H25 non d ame     -29.839  11.692  29.791  0.00  0.00     0.028 H 
ATOM     98  H26 non d ame     -29.763  12.024  31.538  0.00  0.00     0.028 H 
ENDBRANCH  93  95
BRANCH  93  99
ATOM     99  C19 non d ame     -31.362  13.664  29.376  0.00  0.00    -0.073 C 
ATOM    100  H27 non d ame     -31.710  13.172  28.467  0.00  0.00     0.028 H 
ATOM    101  H28 non d ame     -31.917  14.591  29.522  0.00  0.00     0.028 H 
ATOM    102  H29 non d ame     -30.300  13.888  29.284  0.00  0.00     0.028 H 
ENDBRANCH  93  99
ENDBRANCH  90  93
ENDBRANCH   1  90
TORSDOF 26
ENDMDL
MODEL 8
REMARK VINA RESULT:      -6.3      3.275      5.867
REMARK  26 active torsions:
REMARK  status: ('A' for Active; 'I' for Inactive)
REMARK    1  A    between atoms: C2_2  and  C3_3 
REMARK    2  A    between atoms: C4_6  and  C5_7 
REMARK       I    between atoms: C5_7  and  N2_9 
REMARK    3  A    between atoms: N2_9  and  C6_10 
REMARK    4  A    between atoms: C6_10  and  C7_11 
REMARK    5  A    between atoms: C6_10  and  C8_13 
REMARK       I    between atoms: C7_11  and  N3_14 
REMARK    6  A    between atoms: N3_14  and  C9_15 
REMARK    7  A    between atoms: C9_15  and  C10_16 
REMARK    8  A    between atoms: C9_15  and  C11_18 
REMARK       I    between atoms: C10_16  and  N4_21 
REMARK    9  A    between atoms: C11_18  and  C12_19 
REMARK   10  A    between atoms: C11_18  and  C13_20 
REMARK   11  A    between atoms: N4_21  and  C14_22 
REMARK   12  A    between atoms: C14_22  and  C15_23 
REMARK   13  A    between atoms: C14_22  and  C16_25 
REMARK       I    between atoms: C15_23  and  N6_40 
REMARK   14  A    between atoms: C16_25  and  C17_26 
REMARK   15  A    between atoms: C17_26  and  C18_27 
REMARK   16  A    between atoms: C17_26  and  C19_28 
REMARK   17  A    between atoms: C20_29  and  C21_30 
REMARK   18  A    between atoms: C20_29  and  C24_33 
REMARK   19  A    between atoms: C20_29  and  N6_40 
REMARK   20  A    between atoms: C21_30  and  C22_31 
REMARK   21  A    between atoms: C22_31  and  C23_32 
REMARK   22  A    between atoms: C23_32  and  O8_43 
REMARK   23  A    between atoms: C24_33  and  C25_34 
REMARK   24  A    between atoms: C28_38  and  O6_39 
REMARK   25  A    between atoms: C29_42  and  O8_43 
REMARK   26  A    between atoms: C29_42  and  C35_49 
ROOT
ATOM      1  C14 non d ame     -34.839   8.387  31.031  0.00  0.00     0.089 C 
ATOM      2  H20 non d ame     -33.934   8.597  31.601  0.00  0.00     0.087 H 
ENDROOT
BRANCH   1   3
ATOM      3  N4  non d ame     -34.764   9.149  29.793  0.00  0.00    -0.346 N 
ATOM      4  C10 non d ame     -33.704  10.206  29.613  0.00  0.00     0.241 C 
ATOM      5  O4  non d ame     -32.924  10.428  30.479  0.00  0.00    -0.271 OA
ATOM      6  H19 non d ame     -35.439   8.947  29.069  0.00  0.00     0.163 HD
BRANCH   4   7
ATOM      7  C9  non d ame     -33.637  10.981  28.323  0.00  0.00     0.092 C 
ATOM      8  H11 non d ame     -34.400  11.760  28.333  0.00  0.00     0.088 H 
BRANCH   7   9
ATOM      9  N3  non d ame     -32.337  11.649  28.221  0.00  0.00    -0.346 N 
ATOM     10  C7  non d ame     -32.271  13.087  28.128  0.00  0.00     0.240 C 
ATOM     11  O3  non d ame     -33.255  13.721  28.132  0.00  0.00    -0.271 OA
ATOM     12  H10 non d ame     -31.479  11.115  28.214  0.00  0.00     0.163 HD
BRANCH  10  13
ATOM     13  C6  non d ame     -30.884  13.793  28.016  0.00  0.00     0.086 C 
ATOM     14  H6  non d ame     -30.055  13.087  27.966  0.00  0.00     0.086 H 
BRANCH  13  15
ATOM     15  N2  non d ame     -30.846  14.566  26.786  0.00  0.00    -0.343 N 
ATOM     16  C5  non d ame     -30.953  13.879  25.497  0.00  0.00     0.273 C 
ATOM     17  O2  non d ame     -31.066  12.703  25.461  0.00  0.00    -0.266 OA
ATOM     18  H5  non d ame     -30.747  15.571  26.826  0.00  0.00     0.163 HD
BRANCH  16  19
ATOM     19  C4  non d ame     -30.916  14.684  24.189  0.00  0.00     0.154 A 
ATOM     20  C1  non d ame     -30.668  14.183  22.872  0.00  0.00    -0.017 A 
ATOM     21  C2  non d ame     -30.744  15.316  22.032  0.00  0.00     0.077 A 
ATOM     22  H1  non d ame     -30.465  13.155  22.572  0.00  0.00     0.091 H 
ATOM     23  O1  non d ame     -31.007  16.342  22.788  0.00  0.00    -0.218 OA
ATOM     24  N1  non d ame     -31.112  15.998  24.051  0.00  0.00    -0.123 NA
BRANCH  21  25
ATOM     25  C3  non d ame     -30.555  15.333  20.521  0.00  0.00    -0.029 C 
ATOM     26  H2  non d ame     -30.725  16.341  20.144  0.00  0.00     0.036 H 
ATOM     27  H3  non d ame     -29.539  15.021  20.279  0.00  0.00     0.036 H 
ATOM     28  H4  non d ame     -31.265  14.647  20.058  0.00  0.00     0.036 H 
ENDBRANCH  21  25
ENDBRANCH  16  19
ENDBRANCH  13  15
BRANCH  13  29
ATOM     29  C8  non d ame     -30.681  14.700  29.203  0.00  0.00    -0.049 C 
ATOM     30  H7  non d ame     -30.012  15.515  28.927  0.00  0.00     0.030 H 
ATOM     31  H8  non d ame     -31.641  15.108  29.516  0.00  0.00     0.030 H 
ATOM     32  H9  non d ame     -30.243  14.132  30.024  0.00  0.00     0.030 H 
ENDBRANCH  13  29
ENDBRANCH  10  13
ENDBRANCH   7   9
BRANCH   7  33
ATOM     33  C11 non d ame     -33.812  10.006  27.122  0.00  0.00    -0.033 C 
ATOM     34  H12 non d ame     -34.236   9.079  27.510  0.00  0.00     0.042 H 
BRANCH  33  35
ATOM     35  C12 non d ame     -34.813  10.574  26.069  0.00  0.00    -0.071 C 
ATOM     36  H13 non d ame     -35.442  11.332  26.537  0.00  0.00     0.028 H 
ATOM     37  H14 non d ame     -34.258  11.022  25.245  0.00  0.00     0.028 H 
ATOM     38  H15 non d ame     -35.439   9.767  25.689  0.00  0.00     0.028 H 
ENDBRANCH  33  35
BRANCH  33  39
ATOM     39  C13 non d ame     -32.433   9.670  26.469  0.00  0.00    -0.071 C 
ATOM     40  H16 non d ame     -32.593   9.270  25.468  0.00  0.00     0.028 H 
ATOM     41  H17 non d ame     -31.829  10.576  26.408  0.00  0.00     0.028 H 
ATOM     42  H18 non d ame     -31.914   8.929  27.078  0.00  0.00     0.028 H 
ENDBRANCH  33  39
ENDBRANCH   7  33
ENDBRANCH   4   7
ENDBRANCH   1   3
BRANCH   1  43
ATOM     43  C15 non d ame     -34.973   6.878  30.676  0.00  0.00     0.240 C 
ATOM     44  O5  non d ame     -35.450   6.126  31.463  0.00  0.00    -0.271 OA
ATOM     45  N6  non d ame     -34.513   6.372  29.352  0.00  0.00    -0.355 N 
ATOM     46  H46 non d ame     -34.110   7.002  28.673  0.00  0.00     0.162 HD
BRANCH  45  47
ATOM     47  C20 non d ame     -34.648   4.935  29.029  0.00  0.00     0.013 C 
ATOM     48  H30 non d ame     -34.969   4.417  29.933  0.00  0.00     0.072 H 
BRANCH  47  49
ATOM     49  C21 non d ame     -33.310   4.397  28.574  0.00  0.00    -0.038 C 
ATOM     50  H31 non d ame     -32.560   5.024  29.057  0.00  0.00     0.036 H 
ATOM     51  H32 non d ame     -33.339   3.326  28.776  0.00  0.00     0.036 H 
BRANCH  49  52
ATOM     52  C22 non d ame     -33.090   4.548  27.053  0.00  0.00     0.018 C 
ATOM     53  H33 non d ame     -32.486   3.692  26.755  0.00  0.00     0.048 H 
ATOM     54  H34 non d ame     -34.082   4.691  26.624  0.00  0.00     0.048 H 
BRANCH  52  55
ATOM     55  C23 non d ame     -32.269   5.808  26.661  0.00  0.00     0.259 C 
ATOM     56  O7  non d ame     -31.842   6.534  27.499  0.00  0.00    -0.265 OA
BRANCH  55  57
ATOM     57  O8  non d ame     -32.044   6.093  25.285  0.00  0.00    -0.317 OA
BRANCH  57  58
ATOM     58  C29 non d ame     -32.636   5.147  24.390  0.00  0.00     0.052 C 
ATOM     59  H47 non d ame     -31.980   4.277  24.404  0.00  0.00     0.082 H 
ATOM     60  H48 non d ame     -33.675   5.052  24.707  0.00  0.00     0.082 H 
BRANCH  58  61
ATOM     61  C35 non d ame     -32.612   5.758  22.964  0.00  0.00    -0.034 A 
ATOM     62  C30 non d ame     -32.644   4.926  21.849  0.00  0.00    -0.075 A 
ATOM     63  C31 non d ame     -32.621   5.474  20.568  0.00  0.00    -0.082 A 
ATOM     64  H49 non d ame     -32.685   3.844  21.980  0.00  0.00     0.084 H 
ATOM     65  C32 non d ame     -32.565   6.861  20.403  0.00  0.00    -0.083 A 
ATOM     66  H50 non d ame     -32.648   4.819  19.696  0.00  0.00     0.083 H 
ATOM     67  C33 non d ame     -32.530   7.687  21.518  0.00  0.00    -0.082 A 
ATOM     68  H51 non d ame     -32.548   7.298  19.405  0.00  0.00     0.083 H 
ATOM     69  C34 non d ame     -32.554   7.143  22.801  0.00  0.00    -0.075 A 
ATOM     70  H52 non d ame     -32.484   8.768  21.386  0.00  0.00     0.083 H 
ATOM     71  H53 non d ame     -32.528   7.799  23.672  0.00  0.00     0.084 H 
ENDBRANCH  58  61
ENDBRANCH  57  58
ENDBRANCH  55  57
ENDBRANCH  52  55
ENDBRANCH  49  52
ENDBRANCH  47  49
BRANCH  47  72
ATOM     72  C24 non d ame     -35.678   4.750  27.917  0.00  0.00    -0.039 C 
ATOM     73  H35 non d ame     -35.605   5.647  27.302  0.00  0.00     0.036 H 
ATOM     74  H36 non d ame     -35.464   3.773  27.483  0.00  0.00     0.036 H 
BRANCH  72  75
ATOM     75  C25 non d ame     -37.171   4.693  28.495  0.00  0.00    -0.001 C 
ATOM     76  C26 non d ame     -37.980   3.423  27.834  0.00  0.00    -0.035 C 
ATOM     77  C27 non d ame     -39.158   3.869  27.335  0.00  0.00     0.085 C 
ATOM     78  H38 non d ame     -37.451   3.061  26.953  0.00  0.00     0.036 H 
ATOM     79  H39 non d ame     -38.281   2.725  28.614  0.00  0.00     0.036 H 
ATOM     80  N5  non d ame     -39.082   5.376  27.303  0.00  0.00    -0.049 N 
ATOM     81  H40 non d ame     -39.202   3.493  26.313  0.00  0.00     0.075 H 
ATOM     82  H41 non d ame     -39.913   3.567  28.059  0.00  0.00     0.075 H 
ATOM     83  C28 non d ame     -37.818   5.777  28.224  0.00  0.00     0.193 C 
ATOM     84  H42 non d ame     -38.878   5.632  26.348  0.00  0.00     0.280 HD
ATOM     85  H43 non d ame     -39.924   5.714  27.747  0.00  0.00     0.280 HD
ATOM     86  H44 non d ame     -37.969   6.174  29.228  0.00  0.00     0.129 H 
ATOM     87  H37 non d ame     -37.197   4.786  29.581  0.00  0.00     0.046 H 
BRANCH  83  88
ATOM     88  O6  non d ame     -37.003   6.738  27.551  0.00  0.00    -0.369 OA
ATOM     89  H45 non d ame     -37.150   6.676  26.604  0.00  0.00     0.212 HD
ENDBRANCH  83  88
ENDBRANCH  72  75
ENDBRANCH  47  72
ENDBRANCH  45  47
ENDBRANCH   1  43
BRANCH   1  90
ATOM     90  C16 non d ame     -36.060   8.837  31.817  0.00  0.00    -0.035 C 
ATOM     91  H21 non d ame     -36.320   7.993  32.456  0.00  0.00     0.037 H 
ATOM     92  H22 non d ame     -35.780   9.792  32.263  0.00  0.00     0.037 H 
BRANCH  90  93
ATOM     93  C17 non d ame     -37.312   9.116  30.926  0.00  0.00    -0.059 C 
ATOM     94  H23 non d ame     -37.023   8.946  29.888  0.00  0.00     0.038 H 
BRANCH  93  95
ATOM     95  C18 non d ame     -38.496   8.152  31.255  0.00  0.00    -0.073 C 
ATOM     96  H24 non d ame     -39.025   8.513  32.137  0.00  0.00     0.028 H 
ATOM     97  H25 non d ame     -39.183   8.118  30.409  0.00  0.00     0.028 H 
ATOM     98  H26 non d ame     -38.108   7.153  31.448  0.00  0.00     0.028 H 
ENDBRANCH  93  95
BRANCH  93  99
ATOM     99  C19 non d ame     -37.751  10.578  31.042  0.00  0.00    -0.073 C 
ATOM    100  H27 non d ame     -38.331  10.855  30.162  0.00  0.00     0.028 H 
ATOM    101  H28 non d ame     -38.363  10.704  31.935  0.00  0.00     0.028 H 
ATOM    102  H29 non d ame     -36.871  11.217  31.113  0.00  0.00     0.028 H 
ENDBRANCH  93  99
ENDBRANCH  90  93
ENDBRANCH   1  90
TORSDOF 26
ENDMDL
MODEL 9
REMARK VINA RESULT:      -6.2      2.401      6.154
REMARK  26 active torsions:
REMARK  status: ('A' for Active; 'I' for Inactive)
REMARK    1  A    between atoms: C2_2  and  C3_3 
REMARK    2  A    between atoms: C4_6  and  C5_7 
REMARK       I    between atoms: C5_7  and  N2_9 
REMARK    3  A    between atoms: N2_9  and  C6_10 
REMARK    4  A    between atoms: C6_10  and  C7_11 
REMARK    5  A    between atoms: C6_10  and  C8_13 
REMARK       I    between atoms: C7_11  and  N3_14 
REMARK    6  A    between atoms: N3_14  and  C9_15 
REMARK    7  A    between atoms: C9_15  and  C10_16 
REMARK    8  A    between atoms: C9_15  and  C11_18 
REMARK       I    between atoms: C10_16  and  N4_21 
REMARK    9  A    between atoms: C11_18  and  C12_19 
REMARK   10  A    between atoms: C11_18  and  C13_20 
REMARK   11  A    between atoms: N4_21  and  C14_22 
REMARK   12  A    between atoms: C14_22  and  C15_23 
REMARK   13  A    between atoms: C14_22  and  C16_25 
REMARK       I    between atoms: C15_23  and  N6_40 
REMARK   14  A    between atoms: C16_25  and  C17_26 
REMARK   15  A    between atoms: C17_26  and  C18_27 
REMARK   16  A    between atoms: C17_26  and  C19_28 
REMARK   17  A    between atoms: C20_29  and  C21_30 
REMARK   18  A    between atoms: C20_29  and  C24_33 
REMARK   19  A    between atoms: C20_29  and  N6_40 
REMARK   20  A    between atoms: C21_30  and  C22_31 
REMARK   21  A    between atoms: C22_31  and  C23_32 
REMARK   22  A    between atoms: C23_32  and  O8_43 
REMARK   23  A    between atoms: C24_33  and  C25_34 
REMARK   24  A    between atoms: C28_38  and  O6_39 
REMARK   25  A    between atoms: C29_42  and  O8_43 
REMARK   26  A    between atoms: C29_42  and  C35_49 
ROOT
ATOM      1  C14 non d ame     -34.479  15.590  27.232  0.00  0.00     0.089 C 
ATOM      2  H20 non d ame     -33.988  16.039  26.367  0.00  0.00     0.087 H 
ENDROOT
BRANCH   1   3
ATOM      3  N4  non d ame     -35.362  14.544  26.740  0.00  0.00    -0.346 N 
ATOM      4  C10 non d ame     -35.903  14.602  25.333  0.00  0.00     0.241 C 
ATOM      5  O4  non d ame     -35.615  15.503  24.617  0.00  0.00    -0.271 OA
ATOM      6  H19 non d ame     -35.596  13.787  27.366  0.00  0.00     0.163 HD
BRANCH   4   7
ATOM      7  C9  non d ame     -36.811  13.507  24.839  0.00  0.00     0.092 C 
ATOM      8  H11 non d ame     -36.952  13.616  23.764  0.00  0.00     0.088 H 
BRANCH   7   9
ATOM      9  N3  non d ame     -36.175  12.205  25.063  0.00  0.00    -0.346 N 
ATOM     10  C7  non d ame     -36.386  11.130  24.125  0.00  0.00     0.240 C 
ATOM     11  O3  non d ame     -37.065  11.294  23.186  0.00  0.00    -0.271 OA
ATOM     12  H10 non d ame     -35.588  12.048  25.869  0.00  0.00     0.163 HD
BRANCH  10  13
ATOM     13  C6  non d ame     -35.709   9.746  24.370  0.00  0.00     0.086 C 
ATOM     14  H6  non d ame     -36.014   8.993  23.644  0.00  0.00     0.086 H 
BRANCH  13  15
ATOM     15  N2  non d ame     -34.269   9.895  24.235  0.00  0.00    -0.343 N 
ATOM     16  C5  non d ame     -33.570   9.199  23.152  0.00  0.00     0.273 C 
ATOM     17  O2  non d ame     -34.175   8.519  22.397  0.00  0.00    -0.266 OA
ATOM     18  H5  non d ame     -33.760  10.475  24.886  0.00  0.00     0.163 HD
BRANCH  16  19
ATOM     19  C4  non d ame     -32.049   9.349  22.997  0.00  0.00     0.154 A 
ATOM     20  C1  non d ame     -31.144   8.411  22.405  0.00  0.00    -0.017 A 
ATOM     21  C2  non d ame     -29.872   9.018  22.509  0.00  0.00     0.077 A 
ATOM     22  H1  non d ame     -31.374   7.440  21.967  0.00  0.00     0.091 H 
ATOM     23  O1  non d ame     -30.039  10.169  23.091  0.00  0.00    -0.218 OA
ATOM     24  N1  non d ame     -31.301  10.384  23.386  0.00  0.00    -0.123 NA
BRANCH  21  25
ATOM     25  C3  non d ame     -28.552   8.433  22.026  0.00  0.00    -0.029 C 
ATOM     26  H2  non d ame     -28.402   7.453  22.477  0.00  0.00     0.036 H 
ATOM     27  H3  non d ame     -28.574   8.334  20.941  0.00  0.00     0.036 H 
ATOM     28  H4  non d ame     -27.735   9.095  22.313  0.00  0.00     0.036 H 
ENDBRANCH  21  25
ENDBRANCH  16  19
ENDBRANCH  13  15
BRANCH  13  29
ATOM     29  C8  non d ame     -36.049   9.255  25.754  0.00  0.00    -0.049 C 
ATOM     30  H7  non d ame     -36.155  10.106  26.426  0.00  0.00     0.030 H 
ATOM     31  H8  non d ame     -36.986   8.699  25.722  0.00  0.00     0.030 H 
ATOM     32  H9  non d ame     -35.253   8.604  26.115  0.00  0.00     0.030 H 
ENDBRANCH  13  29
ENDBRANCH  10  13
ENDBRANCH   7   9
BRANCH   7  33
ATOM     33  C11 non d ame     -38.160  13.562  25.615  0.00  0.00    -0.033 C 
ATOM     34  H12 non d ame     -38.947  13.248  24.929  0.00  0.00     0.042 H 
BRANCH  33  35
ATOM     35  C12 non d ame     -38.164  12.571  26.820  0.00  0.00    -0.071 C 
ATOM     36  H13 non d ame     -38.828  12.947  27.598  0.00  0.00     0.028 H 
ATOM     37  H14 non d ame     -38.512  11.594  26.485  0.00  0.00     0.028 H 
ATOM     38  H15 non d ame     -37.153  12.480  27.218  0.00  0.00     0.028 H 
ENDBRANCH  33  35
BRANCH  33  39
ATOM     39  C13 non d ame     -38.478  15.020  26.079  0.00  0.00    -0.071 C 
ATOM     40  H16 non d ame     -37.609  15.437  26.589  0.00  0.00     0.028 H 
ATOM     41  H17 non d ame     -38.720  15.634  25.211  0.00  0.00     0.028 H 
ATOM     42  H18 non d ame     -39.329  15.006  26.761  0.00  0.00     0.028 H 
ENDBRANCH  33  39
ENDBRANCH   7  33
ENDBRANCH   4   7
ENDBRANCH   1   3
BRANCH   1  43
ATOM     43  C15 non d ame     -33.461  14.955  28.222  0.00  0.00     0.240 C 
ATOM     44  O5  non d ame     -32.705  15.650  28.819  0.00  0.00    -0.271 OA
ATOM     45  N6  non d ame     -33.435  13.479  28.431  0.00  0.00    -0.355 N 
ATOM     46  H46 non d ame     -34.075  12.879  27.933  0.00  0.00     0.162 HD
BRANCH  45  47
ATOM     47  C20 non d ame     -32.462  12.890  29.377  0.00  0.00     0.013 C 
ATOM     48  H30 non d ame     -32.105  13.687  30.030  0.00  0.00     0.072 H 
BRANCH  47  49
ATOM     49  C21 non d ame     -31.305  12.302  28.601  0.00  0.00    -0.038 C 
ATOM     50  H31 non d ame     -30.729  13.154  28.238  0.00  0.00     0.036 H 
ATOM     51  H32 non d ame     -30.842  11.576  29.270  0.00  0.00     0.036 H 
BRANCH  49  52
ATOM     52  C22 non d ame     -31.759  11.517  27.351  0.00  0.00     0.018 C 
ATOM     53  H33 non d ame     -30.900  10.916  27.052  0.00  0.00     0.048 H 
ATOM     54  H34 non d ame     -32.693  11.030  27.631  0.00  0.00     0.048 H 
BRANCH  52  55
ATOM     55  C23 non d ame     -32.095  12.420  26.132  0.00  0.00     0.259 C 
ATOM     56  O7  non d ame     -33.197  12.451  25.690  0.00  0.00    -0.265 OA
BRANCH  55  57
ATOM     57  O8  non d ame     -31.065  13.203  25.540  0.00  0.00    -0.317 OA
BRANCH  57  58
ATOM     58  C29 non d ame     -31.481  14.516  25.153  0.00  0.00     0.052 C 
ATOM     59  H47 non d ame     -32.570  14.497  25.169  0.00  0.00     0.082 H 
ATOM     60  H48 non d ame     -30.938  15.201  25.804  0.00  0.00     0.082 H 
BRANCH  58  61
ATOM     61  C35 non d ame     -31.015  14.754  23.692  0.00  0.00    -0.034 A 
ATOM     62  C30 non d ame     -31.448  15.879  22.998  0.00  0.00    -0.075 A 
ATOM     63  C31 non d ame     -31.030  16.094  21.685  0.00  0.00    -0.082 A 
ATOM     64  H49 non d ame     -32.116  16.593  23.482  0.00  0.00     0.084 H 
ATOM     65  C32 non d ame     -30.177  15.176  21.066  0.00  0.00    -0.083 A 
ATOM     66  H50 non d ame     -31.371  16.977  21.145  0.00  0.00     0.083 H 
ATOM     67  C33 non d ame     -29.750  14.054  21.762  0.00  0.00    -0.082 A 
ATOM     68  H51 non d ame     -29.845  15.337  20.040  0.00  0.00     0.083 H 
ATOM     69  C34 non d ame     -30.164  13.836  23.074  0.00  0.00    -0.075 A 
ATOM     70  H52 non d ame     -29.086  13.338  21.275  0.00  0.00     0.083 H 
ATOM     71  H53 non d ame     -29.823  12.953  23.615  0.00  0.00     0.084 H 
ENDBRANCH  58  61
ENDBRANCH  57  58
ENDBRANCH  55  57
ENDBRANCH  52  55
ENDBRANCH  49  52
ENDBRANCH  47  49
BRANCH  47  72
ATOM     72  C24 non d ame     -33.137  11.793  30.196  0.00  0.00    -0.039 C 
ATOM     73  H35 non d ame     -32.335  11.315  30.759  0.00  0.00     0.036 H 
ATOM     74  H36 non d ame     -33.953  12.287  30.725  0.00  0.00     0.036 H 
BRANCH  72  75
ATOM     75  C25 non d ame     -33.791  10.671  29.259  0.00  0.00    -0.001 C 
ATOM     76  C26 non d ame     -35.387  10.993  29.029  0.00  0.00    -0.035 C 
ATOM     77  C27 non d ame     -36.103   9.880  29.320  0.00  0.00     0.085 C 
ATOM     78  H38 non d ame     -35.732  11.717  29.767  0.00  0.00     0.036 H 
ATOM     79  H39 non d ame     -35.587  11.156  27.970  0.00  0.00     0.036 H 
ATOM     80  N5  non d ame     -35.174   8.932  30.038  0.00  0.00    -0.049 N 
ATOM     81  H40 non d ame     -36.882  10.207  30.009  0.00  0.00     0.075 H 
ATOM     82  H41 non d ame     -36.375   9.450  28.356  0.00  0.00     0.075 H 
ATOM     83  C28 non d ame     -33.683   9.498  29.789  0.00  0.00     0.193 C 
ATOM     84  H42 non d ame     -35.388   9.012  31.022  0.00  0.00     0.280 HD
ATOM     85  H43 non d ame     -35.262   8.040  29.573  0.00  0.00     0.280 HD
ATOM     86  H44 non d ame     -33.021   9.016  29.069  0.00  0.00     0.129 H 
ATOM     87  H37 non d ame     -33.192  10.475  28.370  0.00  0.00     0.046 H 
BRANCH  83  88
ATOM     88  O6  non d ame     -32.955   9.527  31.018  0.00  0.00    -0.369 OA
ATOM     89  H45 non d ame     -32.065   9.196  30.871  0.00  0.00     0.212 HD
ENDBRANCH  83  88
ENDBRANCH  72  75
ENDBRANCH  47  72
ENDBRANCH  45  47
ENDBRANCH   1  43
BRANCH   1  90
ATOM     90  C16 non d ame     -35.308  16.640  27.955  0.00  0.00    -0.035 C 
ATOM     91  H21 non d ame     -36.346  16.369  27.765  0.00  0.00     0.037 H 
ATOM     92  H22 non d ame     -34.926  16.656  28.976  0.00  0.00     0.037 H 
BRANCH  90  93
ATOM     93  C17 non d ame     -35.120  18.084  27.391  0.00  0.00    -0.059 C 
ATOM     94  H23 non d ame     -34.834  18.729  28.222  0.00  0.00     0.038 H 
BRANCH  93  95
ATOM     95  C18 non d ame     -33.985  18.156  26.320  0.00  0.00    -0.073 C 
ATOM     96  H24 non d ame     -34.245  18.894  25.562  0.00  0.00     0.028 H 
ATOM     97  H25 non d ame     -33.050  18.444  26.799  0.00  0.00     0.028 H 
ATOM     98  H26 non d ame     -33.867  17.180  25.850  0.00  0.00     0.028 H 
ENDBRANCH  93  95
BRANCH  93  99
ATOM     99  C19 non d ame     -36.436  18.627  26.827  0.00  0.00    -0.073 C 
ATOM    100  H27 non d ame     -37.095  18.907  27.648  0.00  0.00     0.028 H 
ATOM    101  H28 non d ame     -36.233  19.501  26.208  0.00  0.00     0.028 H 
ATOM    102  H29 non d ame     -36.916  17.858  26.222  0.00  0.00     0.028 H 
ENDBRANCH  93  99
ENDBRANCH  90  93
ENDBRANCH   1  90
TORSDOF 26
ENDMDL
MODEL 10
REMARK VINA RESULT:      -6.1      2.918      9.924
REMARK  26 active torsions:
REMARK  status: ('A' for Active; 'I' for Inactive)
REMARK    1  A    between atoms: C2_2  and  C3_3 
REMARK    2  A    between atoms: C4_6  and  C5_7 
REMARK       I    between atoms: C5_7  and  N2_9 
REMARK    3  A    between atoms: N2_9  and  C6_10 
REMARK    4  A    between atoms: C6_10  and  C7_11 
REMARK    5  A    between atoms: C6_10  and  C8_13 
REMARK       I    between atoms: C7_11  and  N3_14 
REMARK    6  A    between atoms: N3_14  and  C9_15 
REMARK    7  A    between atoms: C9_15  and  C10_16 
REMARK    8  A    between atoms: C9_15  and  C11_18 
REMARK       I    between atoms: C10_16  and  N4_21 
REMARK    9  A    between atoms: C11_18  and  C12_19 
REMARK   10  A    between atoms: C11_18  and  C13_20 
REMARK   11  A    between atoms: N4_21  and  C14_22 
REMARK   12  A    between atoms: C14_22  and  C15_23 
REMARK   13  A    between atoms: C14_22  and  C16_25 
REMARK       I    between atoms: C15_23  and  N6_40 
REMARK   14  A    between atoms: C16_25  and  C17_26 
REMARK   15  A    between atoms: C17_26  and  C18_27 
REMARK   16  A    between atoms: C17_26  and  C19_28 
REMARK   17  A    between atoms: C20_29  and  C21_30 
REMARK   18  A    between atoms: C20_29  and  C24_33 
REMARK   19  A    between atoms: C20_29  and  N6_40 
REMARK   20  A    between atoms: C21_30  and  C22_31 
REMARK   21  A    between atoms: C22_31  and  C23_32 
REMARK   22  A    between atoms: C23_32  and  O8_43 
REMARK   23  A    between atoms: C24_33  and  C25_34 
REMARK   24  A    between atoms: C28_38  and  O6_39 
REMARK   25  A    between atoms: C29_42  and  O8_43 
REMARK   26  A    between atoms: C29_42  and  C35_49 
ROOT
ATOM      1  C14 non d ame     -32.656  11.714  28.051  0.00  0.00     0.089 C 
ATOM      2  H20 non d ame     -33.402  11.451  28.802  0.00  0.00     0.087 H 
ENDROOT
BRANCH   1   3
ATOM      3  N4  non d ame     -32.372  10.514  27.277  0.00  0.00    -0.346 N 
ATOM      4  C10 non d ame     -32.940   9.183  27.700  0.00  0.00     0.241 C 
ATOM      5  O4  non d ame     -33.621   9.101  28.668  0.00  0.00    -0.271 OA
ATOM      6  H19 non d ame     -31.789  10.605  26.457  0.00  0.00     0.163 HD
BRANCH   4   7
ATOM      7  C9  non d ame     -32.641   7.953  26.883  0.00  0.00     0.092 C 
ATOM      8  H11 non d ame     -31.668   7.557  27.175  0.00  0.00     0.088 H 
BRANCH   7   9
ATOM      9  N3  non d ame     -33.636   6.917  27.177  0.00  0.00    -0.346 N 
ATOM     10  C7  non d ame     -33.210   5.621  27.645  0.00  0.00     0.240 C 
ATOM     11  O3  non d ame     -32.070   5.394  27.790  0.00  0.00    -0.271 OA
ATOM     12  H10 non d ame     -34.622   7.097  27.055  0.00  0.00     0.163 HD
BRANCH  10  13
ATOM     13  C6  non d ame     -34.273   4.521  27.953  0.00  0.00     0.086 C 
ATOM     14  H6  non d ame     -33.931   3.801  28.695  0.00  0.00     0.086 H 
BRANCH  13  15
ATOM     15  N2  non d ame     -35.460   5.154  28.503  0.00  0.00    -0.343 N 
ATOM     16  C5  non d ame     -35.420   5.707  29.859  0.00  0.00     0.273 C 
ATOM     17  O2  non d ame     -34.429   5.634  30.499  0.00  0.00    -0.266 OA
ATOM     18  H5  non d ame     -36.303   5.210  27.949  0.00  0.00     0.163 HD
BRANCH  16  19
ATOM     19  C4  non d ame     -36.667   6.380  30.453  0.00  0.00     0.154 A 
ATOM     20  C1  non d ame     -36.971   7.779  30.466  0.00  0.00    -0.017 A 
ATOM     21  C2  non d ame     -38.219   7.873  31.122  0.00  0.00     0.077 A 
ATOM     22  H1  non d ame     -36.377   8.599  30.063  0.00  0.00     0.091 H 
ATOM     23  O1  non d ame     -38.581   6.665  31.441  0.00  0.00    -0.218 OA
ATOM     24  N1  non d ame     -37.692   5.777  31.062  0.00  0.00    -0.123 NA
BRANCH  21  25
ATOM     25  C3  non d ame     -38.996   9.153  31.401  0.00  0.00    -0.029 C 
ATOM     26  H2  non d ame     -38.327   9.899  31.828  0.00  0.00     0.036 H 
ATOM     27  H3  non d ame     -39.416   9.532  30.470  0.00  0.00     0.036 H 
ATOM     28  H4  non d ame     -39.802   8.942  32.104  0.00  0.00     0.036 H 
ENDBRANCH  21  25
ENDBRANCH  16  19
ENDBRANCH  13  15
BRANCH  13  29
ATOM     29  C8  non d ame     -34.621   3.786  26.684  0.00  0.00    -0.049 C 
ATOM     30  H7  non d ame     -35.483   3.142  26.861  0.00  0.00     0.030 H 
ATOM     31  H8  non d ame     -34.860   4.505  25.901  0.00  0.00     0.030 H 
ATOM     32  H9  non d ame     -33.772   3.178  26.371  0.00  0.00     0.030 H 
ENDBRANCH  13  29
ENDBRANCH  10  13
ENDBRANCH   7   9
BRANCH   7  33
ATOM     33  C11 non d ame     -32.698   8.309  25.369  0.00  0.00    -0.033 C 
ATOM     34  H12 non d ame     -32.099   9.207  25.219  0.00  0.00     0.042 H 
BRANCH  33  35
ATOM     35  C12 non d ame     -32.073   7.177  24.495  0.00  0.00    -0.071 C 
ATOM     36  H13 non d ame     -31.675   6.396  25.142  0.00  0.00     0.028 H 
ATOM     37  H14 non d ame     -32.839   6.756  23.845  0.00  0.00     0.028 H 
ATOM     38  H15 non d ame     -31.268   7.590  23.888  0.00  0.00     0.028 H 
ENDBRANCH  33  35
BRANCH  33  39
ATOM     39  C13 non d ame     -34.162   8.626  24.924  0.00  0.00    -0.071 C 
ATOM     40  H16 non d ame     -34.314   8.279  23.901  0.00  0.00     0.028 H 
ATOM     41  H17 non d ame     -34.862   8.117  25.588  0.00  0.00     0.028 H 
ATOM     42  H18 non d ame     -34.332   9.701  24.972  0.00  0.00     0.028 H 
ENDBRANCH  33  39
ENDBRANCH   7  33
ENDBRANCH   4   7
ENDBRANCH   1   3
BRANCH   1  43
ATOM     43  C15 non d ame     -33.163  12.820  27.082  0.00  0.00     0.240 C 
ATOM     44  O5  non d ame     -32.854  12.789  25.935  0.00  0.00    -0.271 OA
ATOM     45  N6  non d ame     -34.042  13.915  27.583  0.00  0.00    -0.355 N 
ATOM     46  H46 non d ame     -34.316  13.950  28.555  0.00  0.00     0.162 HD
BRANCH  45  47
ATOM     47  C20 non d ame     -34.517  14.959  26.649  0.00  0.00     0.013 C 
ATOM     48  H30 non d ame     -33.882  14.930  25.764  0.00  0.00     0.072 H 
BRANCH  47  49
ATOM     49  C21 non d ame     -34.413  16.311  27.317  0.00  0.00    -0.038 C 
ATOM     50  H31 non d ame     -34.961  17.000  26.674  0.00  0.00     0.036 H 
ATOM     51  H32 non d ame     -34.731  16.156  28.348  0.00  0.00     0.036 H 
BRANCH  49  52
ATOM     52  C22 non d ame     -32.962  16.837  27.382  0.00  0.00     0.018 C 
ATOM     53  H33 non d ame     -32.932  17.515  28.234  0.00  0.00     0.048 H 
ATOM     54  H34 non d ame     -32.326  15.951  27.368  0.00  0.00     0.048 H 
BRANCH  52  55
ATOM     55  C23 non d ame     -32.546  17.683  26.147  0.00  0.00     0.259 C 
ATOM     56  O7  non d ame     -32.508  18.869  26.213  0.00  0.00    -0.265 OA
BRANCH  55  57
ATOM     57  O8  non d ame     -32.222  17.024  24.929  0.00  0.00    -0.317 OA
BRANCH  57  58
ATOM     58  C29 non d ame     -31.354  15.899  25.088  0.00  0.00     0.052 C 
ATOM     59  H47 non d ame     -30.505  16.261  25.669  0.00  0.00     0.082 H 
ATOM     60  H48 non d ame     -31.979  15.097  25.480  0.00  0.00     0.082 H 
BRANCH  58  61
ATOM     61  C35 non d ame     -30.846  15.483  23.682  0.00  0.00    -0.034 A 
ATOM     62  C30 non d ame     -30.098  14.319  23.527  0.00  0.00    -0.075 A 
ATOM     63  C31 non d ame     -29.642  13.945  22.264  0.00  0.00    -0.082 A 
ATOM     64  H49 non d ame     -29.870  13.700  24.395  0.00  0.00     0.084 H 
ATOM     65  C32 non d ame     -29.932  14.742  21.153  0.00  0.00    -0.083 A 
ATOM     66  H50 non d ame     -29.058  13.032  22.146  0.00  0.00     0.083 H 
ATOM     67  C33 non d ame     -30.675  15.903  21.313  0.00  0.00    -0.082 A 
ATOM     68  H51 non d ame     -29.580  14.456  20.162  0.00  0.00     0.083 H 
ATOM     69  C34 non d ame     -31.136  16.280  22.573  0.00  0.00    -0.075 A 
ATOM     70  H52 non d ame     -30.899  16.524  20.445  0.00  0.00     0.083 H 
ATOM     71  H53 non d ame     -31.720  17.193  22.690  0.00  0.00     0.084 H 
ENDBRANCH  58  61
ENDBRANCH  57  58
ENDBRANCH  55  57
ENDBRANCH  52  55
ENDBRANCH  49  52
ENDBRANCH  47  49
BRANCH  47  72
ATOM     72  C24 non d ame     -35.971  14.689  26.269  0.00  0.00    -0.039 C 
ATOM     73  H35 non d ame     -35.938  13.856  25.565  0.00  0.00     0.036 H 
ATOM     74  H36 non d ame     -36.503  14.582  27.214  0.00  0.00     0.036 H 
BRANCH  72  75
ATOM     75  C25 non d ame     -36.623  15.933  25.498  0.00  0.00    -0.001 C 
ATOM     76  C26 non d ame     -38.044  16.351  26.211  0.00  0.00    -0.035 C 
ATOM     77  C27 non d ame     -39.006  16.420  25.260  0.00  0.00     0.085 C 
ATOM     78  H38 non d ame     -38.387  15.548  26.863  0.00  0.00     0.036 H 
ATOM     79  H39 non d ame     -37.987  17.372  26.589  0.00  0.00     0.036 H 
ATOM     80  N5  non d ame     -38.446  15.769  24.018  0.00  0.00    -0.049 N 
ATOM     81  H40 non d ame     -39.832  15.816  25.637  0.00  0.00     0.075 H 
ATOM     82  H41 non d ame     -39.152  17.483  25.069  0.00  0.00     0.075 H 
ATOM     83  C28 non d ame     -36.855  15.646  24.260  0.00  0.00     0.193 C 
ATOM     84  H42 non d ame     -38.839  14.840  23.980  0.00  0.00     0.280 HD
ATOM     85  H43 non d ame     -38.607  16.417  23.260  0.00  0.00     0.280 HD
ATOM     86  H44 non d ame     -36.165  16.330  23.766  0.00  0.00     0.129 H 
ATOM     87  H37 non d ame     -35.903  16.732  25.320  0.00  0.00     0.046 H 
BRANCH  83  88
ATOM     88  O6  non d ame     -36.404  14.335  23.917  0.00  0.00    -0.369 OA
ATOM     89  H45 non d ame     -35.760  14.393  23.207  0.00  0.00     0.212 HD
ENDBRANCH  83  88
ENDBRANCH  72  75
ENDBRANCH  47  72
ENDBRANCH  45  47
ENDBRANCH   1  43
BRANCH   1  90
ATOM     90  C16 non d ame     -31.380  12.177  28.734  0.00  0.00    -0.035 C 
ATOM     91  H21 non d ame     -30.666  11.366  28.593  0.00  0.00     0.037 H 
ATOM     92  H22 non d ame     -31.173  13.164  28.319  0.00  0.00     0.037 H 
BRANCH  90  93
ATOM     93  C17 non d ame     -31.528  12.370  30.277  0.00  0.00    -0.059 C 
ATOM     94  H23 non d ame     -31.552  13.441  30.476  0.00  0.00     0.038 H 
BRANCH  93  95
ATOM     95  C18 non d ame     -32.856  11.753  30.822  0.00  0.00    -0.073 C 
ATOM     96  H24 non d ame     -32.797  11.665  31.907  0.00  0.00     0.028 H 
ATOM     97  H25 non d ame     -33.693  12.399  30.556  0.00  0.00     0.028 H 
ATOM     98  H26 non d ame     -33.005  10.767  30.384  0.00  0.00     0.028 H 
ENDBRANCH  93  95
BRANCH  93  99
ATOM     99  C19 non d ame     -30.317  11.797  31.018  0.00  0.00    -0.073 C 
ATOM    100  H27 non d ame     -30.415  12.000  32.085  0.00  0.00     0.028 H 
ATOM    101  H28 non d ame     -30.268  10.720  30.856  0.00  0.00     0.028 H 
ATOM    102  H29 non d ame     -29.407  12.262  30.641  0.00  0.00     0.028 H 
ENDBRANCH  93  99
ENDBRANCH  90  93
ENDBRANCH   1  90
TORSDOF 26
ENDMDL
MODEL 11
REMARK VINA RESULT:      -6.1      2.333      5.975
REMARK  26 active torsions:
REMARK  status: ('A' for Active; 'I' for Inactive)
REMARK    1  A    between atoms: C2_2  and  C3_3 
REMARK    2  A    between atoms: C4_6  and  C5_7 
REMARK       I    between atoms: C5_7  and  N2_9 
REMARK    3  A    between atoms: N2_9  and  C6_10 
REMARK    4  A    between atoms: C6_10  and  C7_11 
REMARK    5  A    between atoms: C6_10  and  C8_13 
REMARK       I    between atoms: C7_11  and  N3_14 
REMARK    6  A    between atoms: N3_14  and  C9_15 
REMARK    7  A    between atoms: C9_15  and  C10_16 
REMARK    8  A    between atoms: C9_15  and  C11_18 
REMARK       I    between atoms: C10_16  and  N4_21 
REMARK    9  A    between atoms: C11_18  and  C12_19 
REMARK   10  A    between atoms: C11_18  and  C13_20 
REMARK   11  A    between atoms: N4_21  and  C14_22 
REMARK   12  A    between atoms: C14_22  and  C15_23 
REMARK   13  A    between atoms: C14_22  and  C16_25 
REMARK       I    between atoms: C15_23  and  N6_40 
REMARK   14  A    between atoms: C16_25  and  C17_26 
REMARK   15  A    between atoms: C17_26  and  C18_27 
REMARK   16  A    between atoms: C17_26  and  C19_28 
REMARK   17  A    between atoms: C20_29  and  C21_30 
REMARK   18  A    between atoms: C20_29  and  C24_33 
REMARK   19  A    between atoms: C20_29  and  N6_40 
REMARK   20  A    between atoms: C21_30  and  C22_31 
REMARK   21  A    between atoms: C22_31  and  C23_32 
REMARK   22  A    between atoms: C23_32  and  O8_43 
REMARK   23  A    between atoms: C24_33  and  C25_34 
REMARK   24  A    between atoms: C28_38  and  O6_39 
REMARK   25  A    between atoms: C29_42  and  O8_43 
REMARK   26  A    between atoms: C29_42  and  C35_49 
ROOT
ATOM      1  C14 non d ame     -31.527  14.158  26.580  0.00  0.00     0.089 C 
ATOM      2  H20 non d ame     -30.875  14.321  25.721  0.00  0.00     0.087 H 
ENDROOT
BRANCH   1   3
ATOM      3  N4  non d ame     -32.392  15.322  26.700  0.00  0.00    -0.346 N 
ATOM      4  C10 non d ame     -32.160  16.536  25.837  0.00  0.00     0.241 C 
ATOM      5  O4  non d ame     -31.267  16.555  25.055  0.00  0.00    -0.271 OA
ATOM      6  H19 non d ame     -33.145  15.287  27.373  0.00  0.00     0.163 HD
BRANCH   4   7
ATOM      7  C9  non d ame     -33.069  17.730  25.970  0.00  0.00     0.092 C 
ATOM      8  H11 non d ame     -33.293  18.122  24.978  0.00  0.00     0.088 H 
BRANCH   7   9
ATOM      9  N3  non d ame     -34.340  17.311  26.569  0.00  0.00    -0.346 N 
ATOM     10  C7  non d ame     -35.587  17.728  25.975  0.00  0.00     0.240 C 
ATOM     11  O3  non d ame     -35.586  18.400  25.017  0.00  0.00    -0.271 OA
ATOM     12  H10 non d ame     -34.357  16.732  27.396  0.00  0.00     0.163 HD
BRANCH  10  13
ATOM     13  C6  non d ame     -36.937  17.282  26.618  0.00  0.00     0.086 C 
ATOM     14  H6  non d ame     -37.789  17.430  25.955  0.00  0.00     0.086 H 
BRANCH  13  15
ATOM     15  N2  non d ame     -36.875  15.858  26.905  0.00  0.00    -0.343 N 
ATOM     16  C5  non d ame     -37.079  14.895  25.821  0.00  0.00     0.273 C 
ATOM     17  O2  non d ame     -37.295  15.275  24.723  0.00  0.00    -0.266 OA
ATOM     18  H5  non d ame     -36.693  15.542  27.847  0.00  0.00     0.163 HD
BRANCH  16  19
ATOM     19  C4  non d ame     -37.015  13.387  26.110  0.00  0.00     0.154 A 
ATOM     20  C1  non d ame     -36.651  12.347  25.197  0.00  0.00    -0.017 A 
ATOM     21  C2  non d ame     -36.750  11.153  25.947  0.00  0.00     0.077 A 
ATOM     22  H1  non d ame     -36.359  12.443  24.151  0.00  0.00     0.091 H 
ATOM     23  O1  non d ame     -37.126  11.481  27.148  0.00  0.00    -0.218 OA
ATOM     24  N1  non d ame     -37.288  12.779  27.268  0.00  0.00    -0.123 NA
BRANCH  21  25
ATOM     25  C3  non d ame     -36.467   9.745  25.442  0.00  0.00    -0.029 C 
ATOM     26  H2  non d ame     -35.406   9.648  25.211  0.00  0.00     0.036 H 
ATOM     27  H3  non d ame     -36.738   9.022  26.211  0.00  0.00     0.036 H 
ATOM     28  H4  non d ame     -37.053   9.556  24.543  0.00  0.00     0.036 H 
ENDBRANCH  21  25
ENDBRANCH  16  19
ENDBRANCH  13  15
BRANCH  13  29
ATOM     29  C8  non d ame     -37.171  18.055  27.891  0.00  0.00    -0.049 C 
ATOM     30  H7  non d ame     -37.776  18.936  27.675  0.00  0.00     0.030 H 
ATOM     31  H8  non d ame     -37.692  17.424  28.609  0.00  0.00     0.030 H 
ATOM     32  H9  non d ame     -36.213  18.367  28.308  0.00  0.00     0.030 H 
ENDBRANCH  13  29
ENDBRANCH  10  13
ENDBRANCH   7   9
BRANCH   7  33
ATOM     33  C11 non d ame     -32.395  18.795  26.883  0.00  0.00    -0.033 C 
ATOM     34  H12 non d ame     -31.329  18.797  26.655  0.00  0.00     0.042 H 
BRANCH  33  35
ATOM     35  C12 non d ame     -32.941  20.227  26.584  0.00  0.00    -0.071 C 
ATOM     36  H13 non d ame     -32.217  20.772  25.979  0.00  0.00     0.028 H 
ATOM     37  H14 non d ame     -33.883  20.150  26.043  0.00  0.00     0.028 H 
ATOM     38  H15 non d ame     -33.102  20.757  27.523  0.00  0.00     0.028 H 
ENDBRANCH  33  35
BRANCH  33  39
ATOM     39  C13 non d ame     -32.566  18.428  28.392  0.00  0.00    -0.071 C 
ATOM     40  H16 non d ame     -32.504  17.346  28.512  0.00  0.00     0.028 H 
ATOM     41  H17 non d ame     -31.776  18.904  28.974  0.00  0.00     0.028 H 
ATOM     42  H18 non d ame     -33.537  18.778  28.744  0.00  0.00     0.028 H 
ENDBRANCH  33  39
ENDBRANCH   7  33
ENDBRANCH   4   7
ENDBRANCH   1   3
BRANCH   1  43
ATOM     43  C15 non d ame     -32.417  12.894  26.410  0.00  0.00     0.240 C 
ATOM     44  O5  non d ame     -33.472  12.982  25.871  0.00  0.00    -0.271 OA
ATOM     45  N6  non d ame     -31.949  11.570  26.912  0.00  0.00    -0.355 N 
ATOM     46  H46 non d ame     -31.052  11.482  27.367  0.00  0.00     0.162 HD
BRANCH  45  47
ATOM     47  C20 non d ame     -32.807  10.377  26.742  0.00  0.00     0.013 C 
ATOM     48  H30 non d ame     -33.779  10.712  26.380  0.00  0.00     0.072 H 
BRANCH  47  49
ATOM     49  C21 non d ame     -32.964   9.680  28.075  0.00  0.00    -0.038 C 
ATOM     50  H31 non d ame     -33.131   8.629  27.840  0.00  0.00     0.036 H 
ATOM     51  H32 non d ame     -32.096   9.976  28.665  0.00  0.00     0.036 H 
BRANCH  49  52
ATOM     52  C22 non d ame     -34.207  10.156  28.857  0.00  0.00     0.018 C 
ATOM     53  H33 non d ame     -34.005  11.190  29.132  0.00  0.00     0.048 H 
ATOM     54  H34 non d ame     -35.063   9.917  28.224  0.00  0.00     0.048 H 
BRANCH  52  55
ATOM     55  C23 non d ame     -34.436   9.395  30.192  0.00  0.00     0.259 C 
ATOM     56  O7  non d ame     -33.689   9.540  31.105  0.00  0.00    -0.265 OA
BRANCH  55  57
ATOM     57  O8  non d ame     -35.544   8.510  30.308  0.00  0.00    -0.317 OA
BRANCH  57  58
ATOM     58  C29 non d ame     -35.948   7.917  29.071  0.00  0.00     0.052 C 
ATOM     59  H47 non d ame     -36.977   7.590  29.223  0.00  0.00     0.082 H 
ATOM     60  H48 non d ame     -35.718   8.653  28.302  0.00  0.00     0.082 H 
BRANCH  58  61
ATOM     61  C35 non d ame     -35.065   6.663  28.831  0.00  0.00    -0.034 A 
ATOM     62  C30 non d ame     -34.811   5.779  29.874  0.00  0.00    -0.075 A 
ATOM     63  C31 non d ame     -34.018   4.653  29.659  0.00  0.00    -0.082 A 
ATOM     64  H49 non d ame     -35.233   5.968  30.862  0.00  0.00     0.084 H 
ATOM     65  C32 non d ame     -33.476   4.414  28.393  0.00  0.00    -0.083 A 
ATOM     66  H50 non d ame     -33.823   3.961  30.478  0.00  0.00     0.083 H 
ATOM     67  C33 non d ame     -33.729   5.300  27.355  0.00  0.00    -0.082 A 
ATOM     68  H51 non d ame     -32.855   3.535  28.216  0.00  0.00     0.083 H 
ATOM     69  C34 non d ame     -34.523   6.426  27.566  0.00  0.00    -0.075 A 
ATOM     70  H52 non d ame     -33.303   5.112  26.370  0.00  0.00     0.083 H 
ATOM     71  H53 non d ame     -34.718   7.117  26.746  0.00  0.00     0.084 H 
ENDBRANCH  58  61
ENDBRANCH  57  58
ENDBRANCH  55  57
ENDBRANCH  52  55
ENDBRANCH  49  52
ENDBRANCH  47  49
BRANCH  47  72
ATOM     72  C24 non d ame     -32.167   9.420  25.738  0.00  0.00    -0.039 C 
ATOM     73  H35 non d ame     -31.092   9.502  25.904  0.00  0.00     0.036 H 
ATOM     74  H36 non d ame     -32.670   8.465  25.887  0.00  0.00     0.036 H 
BRANCH  72  75
ATOM     75  C25 non d ame     -32.447   9.872  24.227  0.00  0.00    -0.001 C 
ATOM     76  C26 non d ame     -33.048   8.606  23.366  0.00  0.00    -0.035 C 
ATOM     77  C27 non d ame     -32.320   8.465  22.233  0.00  0.00     0.085 C 
ATOM     78  H38 non d ame     -32.870   7.673  23.901  0.00  0.00     0.036 H 
ATOM     79  H39 non d ame     -34.047   8.843  23.000  0.00  0.00     0.036 H 
ATOM     80  N5  non d ame     -31.078   9.308  22.398  0.00  0.00    -0.049 N 
ATOM     81  H40 non d ame     -32.035   7.414  22.199  0.00  0.00     0.075 H 
ATOM     82  H41 non d ame     -32.933   8.889  21.438  0.00  0.00     0.075 H 
ATOM     83  C28 non d ame     -31.365  10.281  23.653  0.00  0.00     0.193 C 
ATOM     84  H42 non d ame     -30.333   8.673  22.646  0.00  0.00     0.280 HD
ATOM     85  H43 non d ame     -31.003   9.872  21.563  0.00  0.00     0.280 HD
ATOM     86  H44 non d ame     -31.610  11.331  23.495  0.00  0.00     0.129 H 
ATOM     87  H37 non d ame     -32.995  10.813  24.172  0.00  0.00     0.046 H 
BRANCH  83  88
ATOM     88  O6  non d ame     -30.248  10.279  24.544  0.00  0.00    -0.369 OA
ATOM     89  H45 non d ame     -30.393  10.924  25.241  0.00  0.00     0.212 HD
ENDBRANCH  83  88
ENDBRANCH  72  75
ENDBRANCH  47  72
ENDBRANCH  45  47
ENDBRANCH   1  43
BRANCH   1  90
ATOM     90  C16 non d ame     -30.691  14.029  27.843  0.00  0.00    -0.035 C 
ATOM     91  H21 non d ame     -30.336  12.999  27.851  0.00  0.00     0.037 H 
ATOM     92  H22 non d ame     -29.976  14.851  27.802  0.00  0.00     0.037 H 
BRANCH  90  93
ATOM     93  C17 non d ame     -31.510  14.222  29.159  0.00  0.00    -0.059 C 
ATOM     94  H23 non d ame     -32.554  14.366  28.880  0.00  0.00     0.038 H 
BRANCH  93  95
ATOM     95  C18 non d ame     -31.434  12.970  30.090  0.00  0.00    -0.073 C 
ATOM     96  H24 non d ame     -31.564  12.067  29.496  0.00  0.00     0.028 H 
ATOM     97  H25 non d ame     -30.463  12.943  30.584  0.00  0.00     0.028 H 
ATOM     98  H26 non d ame     -32.221  13.028  30.841  0.00  0.00     0.028 H 
ENDBRANCH  93  95
BRANCH  93  99
ATOM     99  C19 non d ame     -31.060  15.483  29.903  0.00  0.00    -0.073 C 
ATOM    100  H27 non d ame     -30.020  15.699  29.656  0.00  0.00     0.028 H 
ATOM    101  H28 non d ame     -31.686  16.324  29.605  0.00  0.00     0.028 H 
ATOM    102  H29 non d ame     -31.154  15.323  30.977  0.00  0.00     0.028 H 
ENDBRANCH  93  99
ENDBRANCH  90  93
ENDBRANCH   1  90
TORSDOF 26
ENDMDL
MODEL 12
REMARK VINA RESULT:      -6.1      3.235      6.293
REMARK  26 active torsions:
REMARK  status: ('A' for Active; 'I' for Inactive)
REMARK    1  A    between atoms: C2_2  and  C3_3 
REMARK    2  A    between atoms: C4_6  and  C5_7 
REMARK       I    between atoms: C5_7  and  N2_9 
REMARK    3  A    between atoms: N2_9  and  C6_10 
REMARK    4  A    between atoms: C6_10  and  C7_11 
REMARK    5  A    between atoms: C6_10  and  C8_13 
REMARK       I    between atoms: C7_11  and  N3_14 
REMARK    6  A    between atoms: N3_14  and  C9_15 
REMARK    7  A    between atoms: C9_15  and  C10_16 
REMARK    8  A    between atoms: C9_15  and  C11_18 
REMARK       I    between atoms: C10_16  and  N4_21 
REMARK    9  A    between atoms: C11_18  and  C12_19 
REMARK   10  A    between atoms: C11_18  and  C13_20 
REMARK   11  A    between atoms: N4_21  and  C14_22 
REMARK   12  A    between atoms: C14_22  and  C15_23 
REMARK   13  A    between atoms: C14_22  and  C16_25 
REMARK       I    between atoms: C15_23  and  N6_40 
REMARK   14  A    between atoms: C16_25  and  C17_26 
REMARK   15  A    between atoms: C17_26  and  C18_27 
REMARK   16  A    between atoms: C17_26  and  C19_28 
REMARK   17  A    between atoms: C20_29  and  C21_30 
REMARK   18  A    between atoms: C20_29  and  C24_33 
REMARK   19  A    between atoms: C20_29  and  N6_40 
REMARK   20  A    between atoms: C21_30  and  C22_31 
REMARK   21  A    between atoms: C22_31  and  C23_32 
REMARK   22  A    between atoms: C23_32  and  O8_43 
REMARK   23  A    between atoms: C24_33  and  C25_34 
REMARK   24  A    between atoms: C28_38  and  O6_39 
REMARK   25  A    between atoms: C29_42  and  O8_43 
REMARK   26  A    between atoms: C29_42  and  C35_49 
ROOT
ATOM      1  C14 non d ame     -34.711   8.816  30.717  0.00  0.00     0.089 C 
ATOM      2  H20 non d ame     -33.782   9.065  31.232  0.00  0.00     0.087 H 
ENDROOT
BRANCH   1   3
ATOM      3  N4  non d ame     -34.655   9.420  29.395  0.00  0.00    -0.346 N 
ATOM      4  C10 non d ame     -33.448  10.221  28.974  0.00  0.00     0.241 C 
ATOM      5  O4  non d ame     -32.536  10.368  29.719  0.00  0.00    -0.271 OA
ATOM      6  H19 non d ame     -35.442   9.286  28.777  0.00  0.00     0.163 HD
BRANCH   4   7
ATOM      7  C9  non d ame     -33.404  10.835  27.599  0.00  0.00     0.092 C 
ATOM      8  H11 non d ame     -34.363  11.308  27.387  0.00  0.00     0.088 H 
BRANCH   7   9
ATOM      9  N3  non d ame     -32.385  11.889  27.566  0.00  0.00    -0.346 N 
ATOM     10  C7  non d ame     -32.754  13.237  27.209  0.00  0.00     0.240 C 
ATOM     11  O3  non d ame     -33.866  13.491  26.944  0.00  0.00    -0.271 OA
ATOM     12  H10 non d ame     -31.422  11.684  27.790  0.00  0.00     0.163 HD
BRANCH  10  13
ATOM     13  C6  non d ame     -31.665  14.353  27.173  0.00  0.00     0.086 C 
ATOM     14  H6  non d ame     -31.154  14.412  26.212  0.00  0.00     0.086 H 
BRANCH  13  15
ATOM     15  N2  non d ame     -32.303  15.641  27.385  0.00  0.00    -0.343 N 
ATOM     16  C5  non d ame     -32.132  16.703  26.390  0.00  0.00     0.273 C 
ATOM     17  O2  non d ame     -31.478  16.511  25.425  0.00  0.00    -0.266 OA
ATOM     18  H5  non d ame     -32.858  15.797  28.214  0.00  0.00     0.163 HD
BRANCH  16  19
ATOM     19  C4  non d ame     -32.803  18.070  26.601  0.00  0.00     0.154 A 
ATOM     20  C1  non d ame     -34.200  18.367  26.531  0.00  0.00    -0.017 A 
ATOM     21  C2  non d ame     -34.291  19.751  26.799  0.00  0.00     0.077 A 
ATOM     22  H1  non d ame     -35.023  17.684  26.318  0.00  0.00     0.091 H 
ATOM     23  O1  non d ame     -33.082  20.187  27.000  0.00  0.00    -0.218 OA
ATOM     24  N1  non d ame     -32.196  19.225  26.889  0.00  0.00    -0.123 NA
BRANCH  21  25
ATOM     25  C3  non d ame     -35.569  20.579  26.846  0.00  0.00    -0.029 C 
ATOM     26  H2  non d ame     -35.487  21.330  27.631  0.00  0.00     0.036 H 
ATOM     27  H3  non d ame     -35.718  21.072  25.886  0.00  0.00     0.036 H 
ATOM     28  H4  non d ame     -36.417  19.926  27.054  0.00  0.00     0.036 H 
ENDBRANCH  21  25
ENDBRANCH  16  19
ENDBRANCH  13  15
BRANCH  13  29
ATOM     29  C8  non d ame     -30.644  14.098  28.252  0.00  0.00    -0.049 C 
ATOM     30  H7  non d ame     -31.132  14.120  29.226  0.00  0.00     0.030 H 
ATOM     31  H8  non d ame     -30.187  13.120  28.097  0.00  0.00     0.030 H 
ATOM     32  H9  non d ame     -29.874  14.869  28.214  0.00  0.00     0.030 H 
ENDBRANCH  13  29
ENDBRANCH  10  13
ENDBRANCH   7   9
BRANCH   7  33
ATOM     33  C11 non d ame     -33.047   9.739  26.553  0.00  0.00    -0.033 C 
ATOM     34  H12 non d ame     -33.956   9.506  25.998  0.00  0.00     0.042 H 
BRANCH  33  35
ATOM     35  C12 non d ame     -31.990  10.255  25.527  0.00  0.00    -0.071 C 
ATOM     36  H13 non d ame     -32.343  11.182  25.077  0.00  0.00     0.028 H 
ATOM     37  H14 non d ame     -31.046  10.436  26.040  0.00  0.00     0.028 H 
ATOM     38  H15 non d ame     -31.844   9.506  24.749  0.00  0.00     0.028 H 
ENDBRANCH  33  35
BRANCH  33  39
ATOM     39  C13 non d ame     -32.563   8.431  27.257  0.00  0.00    -0.071 C 
ATOM     40  H16 non d ame     -32.408   8.625  28.318  0.00  0.00     0.028 H 
ATOM     41  H17 non d ame     -33.317   7.652  27.136  0.00  0.00     0.028 H 
ATOM     42  H18 non d ame     -31.627   8.101  26.806  0.00  0.00     0.028 H 
ENDBRANCH  33  39
ENDBRANCH   7  33
ENDBRANCH   4   7
ENDBRANCH   1   3
BRANCH   1  43
ATOM     43  C15 non d ame     -34.898   7.280  30.553  0.00  0.00     0.240 C 
ATOM     44  O5  non d ame     -34.934   6.583  31.514  0.00  0.00    -0.271 OA
ATOM     45  N6  non d ame     -35.040   6.680  29.196  0.00  0.00    -0.355 N 
ATOM     46  H46 non d ame     -35.016   7.263  28.372  0.00  0.00     0.162 HD
BRANCH  45  47
ATOM     47  C20 non d ame     -35.218   5.219  29.056  0.00  0.00     0.013 C 
ATOM     48  H30 non d ame     -35.328   4.797  30.055  0.00  0.00     0.072 H 
BRANCH  47  49
ATOM     49  C21 non d ame     -34.003   4.630  28.377  0.00  0.00    -0.038 C 
ATOM     50  H31 non d ame     -33.493   5.470  27.905  0.00  0.00     0.036 H 
ATOM     51  H32 non d ame     -33.494   4.043  29.142  0.00  0.00     0.036 H 
BRANCH  49  52
ATOM     52  C22 non d ame     -34.367   3.647  27.243  0.00  0.00     0.018 C 
ATOM     53  H33 non d ame     -34.039   2.666  27.586  0.00  0.00     0.048 H 
ATOM     54  H34 non d ame     -35.421   3.824  27.026  0.00  0.00     0.048 H 
BRANCH  52  55
ATOM     55  C23 non d ame     -33.606   3.913  25.915  0.00  0.00     0.259 C 
ATOM     56  O7  non d ame     -33.473   3.047  25.112  0.00  0.00    -0.265 OA
BRANCH  55  57
ATOM     57  O8  non d ame     -33.055   5.202  25.674  0.00  0.00    -0.317 OA
BRANCH  57  58
ATOM     58  C29 non d ame     -33.851   6.023  24.815  0.00  0.00     0.052 C 
ATOM     59  H47 non d ame     -34.423   5.334  24.195  0.00  0.00     0.082 H 
ATOM     60  H48 non d ame     -34.368   6.723  25.471  0.00  0.00     0.082 H 
BRANCH  58  61
ATOM     61  C35 non d ame     -32.892   6.828  23.898  0.00  0.00    -0.034 A 
ATOM     62  C30 non d ame     -31.521   6.596  23.950  0.00  0.00    -0.075 A 
ATOM     63  C31 non d ame     -30.659   7.319  23.126  0.00  0.00    -0.082 A 
ATOM     64  H49 non d ame     -31.122   5.849  24.636  0.00  0.00     0.084 H 
ATOM     65  C32 non d ame     -31.172   8.279  22.250  0.00  0.00    -0.083 A 
ATOM     66  H50 non d ame     -29.585   7.134  23.168  0.00  0.00     0.083 H 
ATOM     67  C33 non d ame     -32.541   8.509  22.204  0.00  0.00    -0.082 A 
ATOM     68  H51 non d ame     -30.506   8.848  21.602  0.00  0.00     0.083 H 
ATOM     69  C34 non d ame     -33.406   7.787  23.024  0.00  0.00    -0.075 A 
ATOM     70  H52 non d ame     -32.938   9.260  21.521  0.00  0.00     0.083 H 
ATOM     71  H53 non d ame     -34.480   7.973  22.981  0.00  0.00     0.084 H 
ENDBRANCH  58  61
ENDBRANCH  57  58
ENDBRANCH  55  57
ENDBRANCH  52  55
ENDBRANCH  49  52
ENDBRANCH  47  49
BRANCH  47  72
ATOM     72  C24 non d ame     -36.462   4.928  28.218  0.00  0.00    -0.039 C 
ATOM     73  H35 non d ame     -36.324   5.485  27.291  0.00  0.00     0.036 H 
ATOM     74  H36 non d ame     -36.547   3.841  28.193  0.00  0.00     0.036 H 
BRANCH  72  75
ATOM     75  C25 non d ame     -37.790   5.490  28.914  0.00  0.00    -0.001 C 
ATOM     76  C26 non d ame     -38.889   4.278  29.086  0.00  0.00    -0.035 C 
ATOM     77  C27 non d ame     -40.073   4.687  28.571  0.00  0.00     0.085 C 
ATOM     78  H38 non d ame     -38.614   3.433  28.455  0.00  0.00     0.036 H 
ATOM     79  H39 non d ame     -39.110   4.121  30.142  0.00  0.00     0.036 H 
ATOM     80  N5  non d ame     -39.799   5.938  27.772  0.00  0.00    -0.049 N 
ATOM     81  H40 non d ame     -40.385   3.892  27.893  0.00  0.00     0.075 H 
ATOM     82  H41 non d ame     -40.691   4.943  29.431  0.00  0.00     0.075 H 
ATOM     83  C28 non d ame     -38.326   6.430  28.209  0.00  0.00     0.193 C 
ATOM     84  H42 non d ame     -39.770   5.657  26.802  0.00  0.00     0.280 HD
ATOM     85  H43 non d ame     -40.473   6.625  28.079  0.00  0.00     0.280 HD
ATOM     86  H44 non d ame     -38.202   7.278  28.884  0.00  0.00     0.129 H 
ATOM     87  H37 non d ame     -37.572   6.090  29.798  0.00  0.00     0.046 H 
BRANCH  83  88
ATOM     88  O6  non d ame     -37.548   6.746  27.053  0.00  0.00    -0.369 OA
ATOM     89  H45 non d ame     -36.759   6.199  27.039  0.00  0.00     0.212 HD
ENDBRANCH  83  88
ENDBRANCH  72  75
ENDBRANCH  47  72
ENDBRANCH  45  47
ENDBRANCH   1  43
BRANCH   1  90
ATOM     90  C16 non d ame     -35.892   9.396  31.478  0.00  0.00    -0.035 C 
ATOM     91  H21 non d ame     -35.989   8.783  32.373  0.00  0.00     0.037 H 
ATOM     92  H22 non d ame     -35.683  10.462  31.568  0.00  0.00     0.037 H 
BRANCH  90  93
ATOM     93  C17 non d ame     -37.249   9.276  30.714  0.00  0.00    -0.059 C 
ATOM     94  H23 non d ame     -37.033   8.906  29.712  0.00  0.00     0.038 H 
BRANCH  93  95
ATOM     95  C18 non d ame     -38.222   8.261  31.396  0.00  0.00    -0.073 C 
ATOM     96  H24 non d ame     -38.193   7.313  30.860  0.00  0.00     0.028 H 
ATOM     97  H25 non d ame     -37.916   8.103  32.430  0.00  0.00     0.028 H 
ATOM     98  H26 non d ame     -39.236   8.660  31.375  0.00  0.00     0.028 H 
ENDBRANCH  93  95
BRANCH  93  99
ATOM     99  C19 non d ame     -37.913  10.647  30.559  0.00  0.00    -0.073 C 
ATOM    100  H27 non d ame     -37.818  10.983  29.526  0.00  0.00     0.028 H 
ATOM    101  H28 non d ame     -38.969  10.572  30.821  0.00  0.00     0.028 H 
ATOM    102  H29 non d ame     -37.426  11.363  31.221  0.00  0.00     0.028 H 
ENDBRANCH  93  99
ENDBRANCH  90  93
ENDBRANCH   1  90
TORSDOF 26
ENDMDL
MODEL 13
REMARK VINA RESULT:      -5.9      3.318      7.345
REMARK  26 active torsions:
REMARK  status: ('A' for Active; 'I' for Inactive)
REMARK    1  A    between atoms: C2_2  and  C3_3 
REMARK    2  A    between atoms: C4_6  and  C5_7 
REMARK       I    between atoms: C5_7  and  N2_9 
REMARK    3  A    between atoms: N2_9  and  C6_10 
REMARK    4  A    between atoms: C6_10  and  C7_11 
REMARK    5  A    between atoms: C6_10  and  C8_13 
REMARK       I    between atoms: C7_11  and  N3_14 
REMARK    6  A    between atoms: N3_14  and  C9_15 
REMARK    7  A    between atoms: C9_15  and  C10_16 
REMARK    8  A    between atoms: C9_15  and  C11_18 
REMARK       I    between atoms: C10_16  and  N4_21 
REMARK    9  A    between atoms: C11_18  and  C12_19 
REMARK   10  A    between atoms: C11_18  and  C13_20 
REMARK   11  A    between atoms: N4_21  and  C14_22 
REMARK   12  A    between atoms: C14_22  and  C15_23 
REMARK   13  A    between atoms: C14_22  and  C16_25 
REMARK       I    between atoms: C15_23  and  N6_40 
REMARK   14  A    between atoms: C16_25  and  C17_26 
REMARK   15  A    between atoms: C17_26  and  C18_27 
REMARK   16  A    between atoms: C17_26  and  C19_28 
REMARK   17  A    between atoms: C20_29  and  C21_30 
REMARK   18  A    between atoms: C20_29  and  C24_33 
REMARK   19  A    between atoms: C20_29  and  N6_40 
REMARK   20  A    between atoms: C21_30  and  C22_31 
REMARK   21  A    between atoms: C22_31  and  C23_32 
REMARK   22  A    between atoms: C23_32  and  O8_43 
REMARK   23  A    between atoms: C24_33  and  C25_34 
REMARK   24  A    between atoms: C28_38  and  O6_39 
REMARK   25  A    between atoms: C29_42  and  O8_43 
REMARK   26  A    between atoms: C29_42  and  C35_49 
ROOT
ATOM      1  C14 non d ame     -34.773   6.203  29.629  0.00  0.00     0.089 C 
ATOM      2  H20 non d ame     -34.157   6.086  30.521  0.00  0.00     0.087 H 
ENDROOT
BRANCH   1   3
ATOM      3  N4  non d ame     -35.105   7.615  29.508  0.00  0.00    -0.346 N 
ATOM      4  C10 non d ame     -35.173   8.489  30.734  0.00  0.00     0.241 C 
ATOM      5  O4  non d ame     -34.960   8.033  31.809  0.00  0.00    -0.271 OA
ATOM      6  H19 non d ame     -35.285   7.983  28.584  0.00  0.00     0.163 HD
BRANCH   4   7
ATOM      7  C9  non d ame     -35.513   9.949  30.589  0.00  0.00     0.092 C 
ATOM      8  H11 non d ame     -35.642  10.387  31.579  0.00  0.00     0.088 H 
BRANCH   7   9
ATOM      9  N3  non d ame     -34.396  10.650  29.948  0.00  0.00    -0.346 N 
ATOM     10  C7  non d ame     -33.324  11.184  30.751  0.00  0.00     0.240 C 
ATOM     11  O3  non d ame     -33.344  11.060  31.915  0.00  0.00    -0.271 OA
ATOM     12  H10 non d ame     -34.365  10.766  28.945  0.00  0.00     0.163 HD
BRANCH  10  13
ATOM     13  C6  non d ame     -32.139  11.931  30.063  0.00  0.00     0.086 C 
ATOM     14  H6  non d ame     -31.938  11.565  29.057  0.00  0.00     0.086 H 
BRANCH  13  15
ATOM     15  N2  non d ame     -32.481  13.338  29.933  0.00  0.00    -0.343 N 
ATOM     16  C5  non d ame     -31.621  14.219  29.140  0.00  0.00     0.273 C 
ATOM     17  O2  non d ame     -30.655  13.787  28.614  0.00  0.00    -0.266 OA
ATOM     18  H5  non d ame     -33.308  13.699  30.388  0.00  0.00     0.163 HD
BRANCH  16  19
ATOM     19  C4  non d ame     -31.971  15.708  28.993  0.00  0.00     0.154 A 
ATOM     20  C1  non d ame     -32.586  16.344  27.868  0.00  0.00    -0.017 A 
ATOM     21  C2  non d ame     -32.689  17.705  28.232  0.00  0.00     0.077 A 
ATOM     22  H1  non d ame     -32.909  15.888  26.932  0.00  0.00     0.091 H 
ATOM     23  O1  non d ame     -32.190  17.825  29.427  0.00  0.00    -0.218 OA
ATOM     24  N1  non d ame     -31.764  16.673  29.892  0.00  0.00    -0.123 NA
BRANCH  21  25
ATOM     25  C3  non d ame     -33.276  18.824  27.381  0.00  0.00    -0.029 C 
ATOM     26  H2  non d ame     -32.902  18.740  26.361  0.00  0.00     0.036 H 
ATOM     27  H3  non d ame     -34.363  18.745  27.377  0.00  0.00     0.036 H 
ATOM     28  H4  non d ame     -32.984  19.788  27.797  0.00  0.00     0.036 H 
ENDBRANCH  21  25
ENDBRANCH  16  19
ENDBRANCH  13  15
BRANCH  13  29
ATOM     29  C8  non d ame     -30.893  11.778  30.897  0.00  0.00    -0.049 C 
ATOM     30  H7  non d ame     -30.068  11.454  30.261  0.00  0.00     0.030 H 
ATOM     31  H8  non d ame     -30.643  12.734  31.356  0.00  0.00     0.030 H 
ATOM     32  H9  non d ame     -31.065  11.034  31.675  0.00  0.00     0.030 H 
ENDBRANCH  13  29
ENDBRANCH  10  13
ENDBRANCH   7   9
BRANCH   7  33
ATOM     33  C11 non d ame     -36.789  10.101  29.711  0.00  0.00    -0.033 C 
ATOM     34  H12 non d ame     -37.007  11.165  29.628  0.00  0.00     0.042 H 
BRANCH  33  35
ATOM     35  C12 non d ame     -36.554   9.555  28.268  0.00  0.00    -0.071 C 
ATOM     36  H13 non d ame     -37.017  10.228  27.546  0.00  0.00     0.028 H 
ATOM     37  H14 non d ame     -35.484   9.493  28.073  0.00  0.00     0.028 H 
ATOM     38  H15 non d ame     -36.998   8.564  28.177  0.00  0.00     0.028 H 
ENDBRANCH  33  35
BRANCH  33  39
ATOM     39  C13 non d ame     -38.017   9.408  30.385  0.00  0.00    -0.071 C 
ATOM     40  H16 non d ame     -38.288   9.951  31.291  0.00  0.00     0.028 H 
ATOM     41  H17 non d ame     -38.860   9.410  29.694  0.00  0.00     0.028 H 
ATOM     42  H18 non d ame     -37.760   8.380  30.640  0.00  0.00     0.028 H 
ENDBRANCH  33  39
ENDBRANCH   7  33
ENDBRANCH   4   7
ENDBRANCH   1   3
BRANCH   1  43
ATOM     43  C15 non d ame     -34.029   5.756  28.338  0.00  0.00     0.240 C 
ATOM     44  O5  non d ame     -33.504   4.691  28.298  0.00  0.00    -0.271 OA
ATOM     45  N6  non d ame     -33.979   6.653  27.149  0.00  0.00    -0.355 N 
ATOM     46  H46 non d ame     -34.425   7.559  27.170  0.00  0.00     0.162 HD
BRANCH  45  47
ATOM     47  C20 non d ame     -33.269   6.213  25.929  0.00  0.00     0.013 C 
ATOM     48  H30 non d ame     -32.343   5.727  26.236  0.00  0.00     0.072 H 
BRANCH  47  49
ATOM     49  C21 non d ame     -32.958   7.418  25.069  0.00  0.00    -0.038 C 
ATOM     50  H31 non d ame     -33.865   7.613  24.496  0.00  0.00     0.036 H 
ATOM     51  H32 non d ame     -32.572   8.175  25.752  0.00  0.00     0.036 H 
BRANCH  49  52
ATOM     52  C22 non d ame     -31.840   7.148  24.039  0.00  0.00     0.018 C 
ATOM     53  H33 non d ame     -30.943   6.946  24.624  0.00  0.00     0.048 H 
ATOM     54  H34 non d ame     -32.236   6.385  23.368  0.00  0.00     0.048 H 
BRANCH  52  55
ATOM     55  C23 non d ame     -31.503   8.373  23.145  0.00  0.00     0.259 C 
ATOM     56  O7  non d ame     -32.125   8.587  22.156  0.00  0.00    -0.265 OA
BRANCH  55  57
ATOM     57  O8  non d ame     -30.430   9.231  23.515  0.00  0.00    -0.317 OA
BRANCH  57  58
ATOM     58  C29 non d ame     -30.301  10.391  22.688  0.00  0.00     0.052 C 
ATOM     59  H47 non d ame     -29.242  10.460  22.441  0.00  0.00     0.082 H 
ATOM     60  H48 non d ame     -31.039  10.272  21.896  0.00  0.00     0.082 H 
BRANCH  58  61
ATOM     61  C35 non d ame     -30.689  11.631  23.538  0.00  0.00    -0.034 A 
ATOM     62  C30 non d ame     -31.408  11.469  24.718  0.00  0.00    -0.075 A 
ATOM     63  C31 non d ame     -31.757  12.582  25.481  0.00  0.00    -0.082 A 
ATOM     64  H49 non d ame     -31.699  10.470  25.045  0.00  0.00     0.084 H 
ATOM     65  C32 non d ame     -31.386  13.862  25.059  0.00  0.00    -0.083 A 
ATOM     66  H50 non d ame     -32.319  12.452  26.406  0.00  0.00     0.083 H 
ATOM     67  C33 non d ame     -30.671  14.018  23.879  0.00  0.00    -0.082 A 
ATOM     68  H51 non d ame     -31.654  14.737  25.650  0.00  0.00     0.083 H 
ATOM     69  C34 non d ame     -30.319  12.908  23.115  0.00  0.00    -0.075 A 
ATOM     70  H52 non d ame     -30.385  15.018  23.552  0.00  0.00     0.083 H 
ATOM     71  H53 non d ame     -29.756  13.040  22.190  0.00  0.00     0.084 H 
ENDBRANCH  58  61
ENDBRANCH  57  58
ENDBRANCH  55  57
ENDBRANCH  52  55
ENDBRANCH  49  52
ENDBRANCH  47  49
BRANCH  47  72
ATOM     72  C24 non d ame     -34.145   5.239  25.144  0.00  0.00    -0.039 C 
ATOM     73  H35 non d ame     -34.891   4.882  25.855  0.00  0.00     0.036 H 
ATOM     74  H36 non d ame     -34.459   5.784  24.253  0.00  0.00     0.036 H 
BRANCH  72  75
ATOM     75  C25 non d ame     -33.315   3.962  24.648  0.00  0.00    -0.001 C 
ATOM     76  C26 non d ame     -33.412   3.831  23.012  0.00  0.00    -0.035 C 
ATOM     77  C27 non d ame     -33.797   2.572  22.697  0.00  0.00     0.085 C 
ATOM     78  H38 non d ame     -34.227   4.449  22.636  0.00  0.00     0.036 H 
ATOM     79  H39 non d ame     -32.418   3.912  22.571  0.00  0.00     0.036 H 
ATOM     80  N5  non d ame     -34.287   1.928  23.971  0.00  0.00    -0.049 N 
ATOM     81  H40 non d ame     -34.636   2.687  22.011  0.00  0.00     0.075 H 
ATOM     82  H41 non d ame     -32.891   2.064  22.369  0.00  0.00     0.075 H 
ATOM     83  C28 non d ame     -33.772   2.875  25.174  0.00  0.00     0.193 C 
ATOM     84  H42 non d ame     -35.296   1.966  23.942  0.00  0.00     0.280 HD
ATOM     85  H43 non d ame     -33.818   1.037  24.040  0.00  0.00     0.280 HD
ATOM     86  H44 non d ame     -32.921   2.577  25.787  0.00  0.00     0.129 H 
ATOM     87  H37 non d ame     -32.320   3.919  25.091  0.00  0.00     0.046 H 
BRANCH  83  88
ATOM     88  O6  non d ame     -34.836   3.126  26.093  0.00  0.00    -0.369 OA
ATOM     89  H45 non d ame     -34.486   3.159  26.987  0.00  0.00     0.212 HD
ENDBRANCH  83  88
ENDBRANCH  72  75
ENDBRANCH  47  72
ENDBRANCH  45  47
ENDBRANCH   1  43
BRANCH   1  90
ATOM     90  C16 non d ame     -36.057   5.403  29.782  0.00  0.00    -0.035 C 
ATOM     91  H21 non d ame     -35.789   4.377  29.533  0.00  0.00     0.037 H 
ATOM     92  H22 non d ame     -36.429   5.642  30.779  0.00  0.00     0.037 H 
BRANCH  90  93
ATOM     93  C17 non d ame     -37.179   5.821  28.780  0.00  0.00    -0.059 C 
ATOM     94  H23 non d ame     -36.881   6.765  28.325  0.00  0.00     0.038 H 
BRANCH  93  95
ATOM     95  C18 non d ame     -37.365   4.777  27.633  0.00  0.00    -0.073 C 
ATOM     96  H24 non d ame     -37.266   3.770  28.039  0.00  0.00     0.028 H 
ATOM     97  H25 non d ame     -38.354   4.894  27.192  0.00  0.00     0.028 H 
ATOM     98  H26 non d ame     -36.605   4.937  26.869  0.00  0.00     0.028 H 
ENDBRANCH  93  95
BRANCH  93  99
ATOM     99  C19 non d ame     -38.501   6.068  29.512  0.00  0.00    -0.073 C 
ATOM    100  H27 non d ame     -39.329   5.722  28.893  0.00  0.00     0.028 H 
ATOM    101  H28 non d ame     -38.502   5.523  30.456  0.00  0.00     0.028 H 
ATOM    102  H29 non d ame     -38.614   7.134  29.709  0.00  0.00     0.028 H 
ENDBRANCH  93  99
ENDBRANCH  90  93
ENDBRANCH   1  90
TORSDOF 26
ENDMDL
MODEL 14
REMARK VINA RESULT:      -5.8      3.114      6.535
REMARK  26 active torsions:
REMARK  status: ('A' for Active; 'I' for Inactive)
REMARK    1  A    between atoms: C2_2  and  C3_3 
REMARK    2  A    between atoms: C4_6  and  C5_7 
REMARK       I    between atoms: C5_7  and  N2_9 
REMARK    3  A    between atoms: N2_9  and  C6_10 
REMARK    4  A    between atoms: C6_10  and  C7_11 
REMARK    5  A    between atoms: C6_10  and  C8_13 
REMARK       I    between atoms: C7_11  and  N3_14 
REMARK    6  A    between atoms: N3_14  and  C9_15 
REMARK    7  A    between atoms: C9_15  and  C10_16 
REMARK    8  A    between atoms: C9_15  and  C11_18 
REMARK       I    between atoms: C10_16  and  N4_21 
REMARK    9  A    between atoms: C11_18  and  C12_19 
REMARK   10  A    between atoms: C11_18  and  C13_20 
REMARK   11  A    between atoms: N4_21  and  C14_22 
REMARK   12  A    between atoms: C14_22  and  C15_23 
REMARK   13  A    between atoms: C14_22  and  C16_25 
REMARK       I    between atoms: C15_23  and  N6_40 
REMARK   14  A    between atoms: C16_25  and  C17_26 
REMARK   15  A    between atoms: C17_26  and  C18_27 
REMARK   16  A    between atoms: C17_26  and  C19_28 
REMARK   17  A    between atoms: C20_29  and  C21_30 
REMARK   18  A    between atoms: C20_29  and  C24_33 
REMARK   19  A    between atoms: C20_29  and  N6_40 
REMARK   20  A    between atoms: C21_30  and  C22_31 
REMARK   21  A    between atoms: C22_31  and  C23_32 
REMARK   22  A    between atoms: C23_32  and  O8_43 
REMARK   23  A    between atoms: C24_33  and  C25_34 
REMARK   24  A    between atoms: C28_38  and  O6_39 
REMARK   25  A    between atoms: C29_42  and  O8_43 
REMARK   26  A    between atoms: C29_42  and  C35_49 
ROOT
ATOM      1  C14 non d ame     -34.734   8.343  31.588  0.00  0.00     0.089 C 
ATOM      2  H20 non d ame     -34.100   8.355  32.475  0.00  0.00     0.087 H 
ENDROOT
BRANCH   1   3
ATOM      3  N4  non d ame     -34.057   9.112  30.555  0.00  0.00    -0.346 N 
ATOM      4  C10 non d ame     -33.555  10.504  30.847  0.00  0.00     0.241 C 
ATOM      5  O4  non d ame     -33.709  10.985  31.921  0.00  0.00    -0.271 OA
ATOM      6  H19 non d ame     -33.938   8.686  29.647  0.00  0.00     0.163 HD
BRANCH   4   7
ATOM      7  C9  non d ame     -32.851  11.283  29.767  0.00  0.00     0.092 C 
ATOM      8  H11 non d ame     -32.232  10.604  29.180  0.00  0.00     0.088 H 
BRANCH   7   9
ATOM      9  N3  non d ame     -33.844  11.862  28.856  0.00  0.00    -0.346 N 
ATOM     10  C7  non d ame     -34.235  11.145  27.667  0.00  0.00     0.240 C 
ATOM     11  O3  non d ame     -33.760  10.102  27.428  0.00  0.00    -0.271 OA
ATOM     12  H10 non d ame     -34.260  12.761  29.049  0.00  0.00     0.163 HD
BRANCH  10  13
ATOM     13  C6  non d ame     -35.289  11.768  26.700  0.00  0.00     0.086 C 
ATOM     14  H6  non d ame     -36.290  11.797  27.130  0.00  0.00     0.086 H 
BRANCH  13  15
ATOM     15  N2  non d ame     -34.916  13.144  26.420  0.00  0.00    -0.343 N 
ATOM     16  C5  non d ame     -35.917  14.204  26.555  0.00  0.00     0.273 C 
ATOM     17  O2  non d ame     -37.020  13.939  26.888  0.00  0.00    -0.266 OA
ATOM     18  H5  non d ame     -33.972  13.361  26.133  0.00  0.00     0.163 HD
BRANCH  16  19
ATOM     19  C4  non d ame     -35.537  15.664  26.263  0.00  0.00     0.154 A 
ATOM     20  C1  non d ame     -34.222  16.227  26.241  0.00  0.00    -0.017 A 
ATOM     21  C2  non d ame     -34.415  17.591  25.926  0.00  0.00     0.077 A 
ATOM     22  H1  non d ame     -33.273  15.724  26.426  0.00  0.00     0.091 H 
ATOM     23  O1  non d ame     -35.695  17.778  25.784  0.00  0.00    -0.218 OA
ATOM     24  N1  non d ame     -36.370  16.668  25.976  0.00  0.00    -0.123 NA
BRANCH  21  25
ATOM     25  C3  non d ame     -33.326  18.645  25.778  0.00  0.00    -0.029 C 
ATOM     26  H2  non d ame     -33.716  19.616  26.083  0.00  0.00     0.036 H 
ATOM     27  H3  non d ame     -32.477  18.381  26.409  0.00  0.00     0.036 H 
ATOM     28  H4  non d ame     -33.005  18.693  24.738  0.00  0.00     0.036 H 
ENDBRANCH  21  25
ENDBRANCH  16  19
ENDBRANCH  13  15
BRANCH  13  29
ATOM     29  C8  non d ame     -35.332  10.973  25.420  0.00  0.00    -0.049 C 
ATOM     30  H7  non d ame     -35.664  11.615  24.604  0.00  0.00     0.030 H 
ATOM     31  H8  non d ame     -34.336  10.589  25.197  0.00  0.00     0.030 H 
ATOM     32  H9  non d ame     -36.026  10.140  25.532  0.00  0.00     0.030 H 
ENDBRANCH  13  29
ENDBRANCH  10  13
ENDBRANCH   7   9
BRANCH   7  33
ATOM     33  C11 non d ame     -32.016  12.427  30.414  0.00  0.00    -0.033 C 
ATOM     34  H12 non d ame     -32.454  12.644  31.387  0.00  0.00     0.042 H 
BRANCH  33  35
ATOM     35  C12 non d ame     -30.538  11.985  30.653  0.00  0.00    -0.071 C 
ATOM     36  H13 non d ame     -30.237  12.256  31.665  0.00  0.00     0.028 H 
ATOM     37  H14 non d ame     -30.456  10.906  30.526  0.00  0.00     0.028 H 
ATOM     38  H15 non d ame     -29.888  12.486  29.935  0.00  0.00     0.028 H 
ENDBRANCH  33  35
BRANCH  33  39
ATOM     39  C13 non d ame     -32.085  13.727  29.551  0.00  0.00    -0.071 C 
ATOM     40  H16 non d ame     -32.865  14.381  29.942  0.00  0.00     0.028 H 
ATOM     41  H17 non d ame     -31.125  14.242  29.591  0.00  0.00     0.028 H 
ATOM     42  H18 non d ame     -32.314  13.466  28.517  0.00  0.00     0.028 H 
ENDBRANCH  33  39
ENDBRANCH   7  33
ENDBRANCH   4   7
ENDBRANCH   1   3
BRANCH   1  43
ATOM     43  C15 non d ame     -34.974   6.901  31.056  0.00  0.00     0.240 C 
ATOM     44  O5  non d ame     -35.551   6.111  31.730  0.00  0.00    -0.271 OA
ATOM     45  N6  non d ame     -34.490   6.508  29.702  0.00  0.00    -0.355 N 
ATOM     46  H46 non d ame     -34.003   7.173  29.118  0.00  0.00     0.162 HD
BRANCH  45  47
ATOM     47  C20 non d ame     -34.727   5.134  29.210  0.00  0.00     0.013 C 
ATOM     48  H30 non d ame     -35.071   4.531  30.050  0.00  0.00     0.072 H 
BRANCH  47  49
ATOM     49  C21 non d ame     -33.435   4.569  28.664  0.00  0.00    -0.038 C 
ATOM     50  H31 non d ame     -32.871   4.231  29.533  0.00  0.00     0.036 H 
ATOM     51  H32 non d ame     -33.728   3.856  27.893  0.00  0.00     0.036 H 
BRANCH  49  52
ATOM     52  C22 non d ame     -32.563   5.635  27.965  0.00  0.00     0.018 C 
ATOM     53  H33 non d ame     -32.962   6.598  28.282  0.00  0.00     0.048 H 
ATOM     54  H34 non d ame     -31.531   5.370  28.196  0.00  0.00     0.048 H 
BRANCH  52  55
ATOM     55  C23 non d ame     -32.673   5.616  26.415  0.00  0.00     0.259 C 
ATOM     56  O7  non d ame     -33.033   4.636  25.848  0.00  0.00    -0.265 OA
BRANCH  55  57
ATOM     57  O8  non d ame     -32.327   6.782  25.678  0.00  0.00    -0.317 OA
BRANCH  57  58
ATOM     58  C29 non d ame     -31.515   6.524  24.529  0.00  0.00     0.052 C 
ATOM     59  H47 non d ame     -30.610   7.116  24.668  0.00  0.00     0.082 H 
ATOM     60  H48 non d ame     -31.450   5.439  24.450  0.00  0.00     0.082 H 
BRANCH  58  61
ATOM     61  C35 non d ame     -32.266   7.062  23.281  0.00  0.00    -0.034 A 
ATOM     62  C30 non d ame     -33.352   7.917  23.437  0.00  0.00    -0.075 A 
ATOM     63  C31 non d ame     -34.027   8.400  22.317  0.00  0.00    -0.082 A 
ATOM     64  H49 non d ame     -33.675   8.209  24.437  0.00  0.00     0.084 H 
ATOM     65  C32 non d ame     -33.614   8.022  21.037  0.00  0.00    -0.083 A 
ATOM     66  H50 non d ame     -34.877   9.071  22.442  0.00  0.00     0.083 H 
ATOM     67  C33 non d ame     -32.531   7.166  20.886  0.00  0.00    -0.082 A 
ATOM     68  H51 non d ame     -34.135   8.396  20.155  0.00  0.00     0.083 H 
ATOM     69  C34 non d ame     -31.853   6.683  22.003  0.00  0.00    -0.075 A 
ATOM     70  H52 non d ame     -32.213   6.871  19.886  0.00  0.00     0.083 H 
ATOM     71  H53 non d ame     -31.003   6.011  21.877  0.00  0.00     0.084 H 
ENDBRANCH  58  61
ENDBRANCH  57  58
ENDBRANCH  55  57
ENDBRANCH  52  55
ENDBRANCH  49  52
ENDBRANCH  47  49
BRANCH  47  72
ATOM     72  C24 non d ame     -35.781   5.155  28.105  0.00  0.00    -0.039 C 
ATOM     73  H35 non d ame     -35.681   6.131  27.627  0.00  0.00     0.036 H 
ATOM     74  H36 non d ame     -35.614   4.246  27.527  0.00  0.00     0.036 H 
BRANCH  72  75
ATOM     75  C25 non d ame     -37.266   5.071  28.700  0.00  0.00    -0.001 C 
ATOM     76  C26 non d ame     -38.069   3.805  28.024  0.00  0.00    -0.035 C 
ATOM     77  C27 non d ame     -39.258   4.246  27.549  0.00  0.00     0.085 C 
ATOM     78  H38 non d ame     -37.547   3.466  27.130  0.00  0.00     0.036 H 
ATOM     79  H39 non d ame     -38.353   3.088  28.795  0.00  0.00     0.036 H 
ATOM     80  N5  non d ame     -39.200   5.755  27.546  0.00  0.00    -0.049 N 
ATOM     81  H40 non d ame     -39.311   3.890  26.521  0.00  0.00     0.075 H 
ATOM     82  H41 non d ame     -40.001   3.922  28.277  0.00  0.00     0.075 H 
ATOM     83  C28 non d ame     -37.929   6.152  28.458  0.00  0.00     0.193 C 
ATOM     84  H42 non d ame     -39.011   6.032  26.593  0.00  0.00     0.280 HD
ATOM     85  H43 non d ame     -40.040   6.074  28.007  0.00  0.00     0.280 HD
ATOM     86  H44 non d ame     -38.071   6.528  29.472  0.00  0.00     0.129 H 
ATOM     87  H37 non d ame     -37.279   5.143  29.788  0.00  0.00     0.046 H 
BRANCH  83  88
ATOM     88  O6  non d ame     -37.133   7.135  27.794  0.00  0.00    -0.369 OA
ATOM     89  H45 non d ame     -36.218   6.846  27.775  0.00  0.00     0.212 HD
ENDBRANCH  83  88
ENDBRANCH  72  75
ENDBRANCH  47  72
ENDBRANCH  45  47
ENDBRANCH   1  43
BRANCH   1  90
ATOM     90  C16 non d ame     -36.069   9.001  31.902  0.00  0.00    -0.035 C 
ATOM     91  H21 non d ame     -36.477   8.439  32.742  0.00  0.00     0.037 H 
ATOM     92  H22 non d ame     -35.849  10.063  32.012  0.00  0.00     0.037 H 
BRANCH  90  93
ATOM     93  C17 non d ame     -37.112   8.883  30.746  0.00  0.00    -0.059 C 
ATOM     94  H23 non d ame     -36.743   8.138  30.041  0.00  0.00     0.038 H 
BRANCH  93  95
ATOM     95  C18 non d ame     -38.508   8.403  31.258  0.00  0.00    -0.073 C 
ATOM     96  H24 non d ame     -39.064   9.255  31.649  0.00  0.00     0.028 H 
ATOM     97  H25 non d ame     -39.063   7.955  30.434  0.00  0.00     0.028 H 
ATOM     98  H26 non d ame     -38.371   7.665  32.047  0.00  0.00     0.028 H 
ENDBRANCH  93  95
BRANCH  93  99
ATOM     99  C19 non d ame     -37.237  10.206  29.985  0.00  0.00    -0.073 C 
ATOM    100  H27 non d ame     -38.269  10.345  29.664  0.00  0.00     0.028 H 
ATOM    101  H28 non d ame     -36.945  11.029  30.637  0.00  0.00     0.028 H 
ATOM    102  H29 non d ame     -36.584  10.186  29.112  0.00  0.00     0.028 H 
ENDBRANCH  93  99
ENDBRANCH  90  93
ENDBRANCH   1  90
TORSDOF 26
ENDMDL
MODEL 15
REMARK VINA RESULT:      -5.8      2.280      6.741
REMARK  26 active torsions:
REMARK  status: ('A' for Active; 'I' for Inactive)
REMARK    1  A    between atoms: C2_2  and  C3_3 
REMARK    2  A    between atoms: C4_6  and  C5_7 
REMARK       I    between atoms: C5_7  and  N2_9 
REMARK    3  A    between atoms: N2_9  and  C6_10 
REMARK    4  A    between atoms: C6_10  and  C7_11 
REMARK    5  A    between atoms: C6_10  and  C8_13 
REMARK       I    between atoms: C7_11  and  N3_14 
REMARK    6  A    between atoms: N3_14  and  C9_15 
REMARK    7  A    between atoms: C9_15  and  C10_16 
REMARK    8  A    between atoms: C9_15  and  C11_18 
REMARK       I    between atoms: C10_16  and  N4_21 
REMARK    9  A    between atoms: C11_18  and  C12_19 
REMARK   10  A    between atoms: C11_18  and  C13_20 
REMARK   11  A    between atoms: N4_21  and  C14_22 
REMARK   12  A    between atoms: C14_22  and  C15_23 
REMARK   13  A    between atoms: C14_22  and  C16_25 
REMARK       I    between atoms: C15_23  and  N6_40 
REMARK   14  A    between atoms: C16_25  and  C17_26 
REMARK   15  A    between atoms: C17_26  and  C18_27 
REMARK   16  A    between atoms: C17_26  and  C19_28 
REMARK   17  A    between atoms: C20_29  and  C21_30 
REMARK   18  A    between atoms: C20_29  and  C24_33 
REMARK   19  A    between atoms: C20_29  and  N6_40 
REMARK   20  A    between atoms: C21_30  and  C22_31 
REMARK   21  A    between atoms: C22_31  and  C23_32 
REMARK   22  A    between atoms: C23_32  and  O8_43 
REMARK   23  A    between atoms: C24_33  and  C25_34 
REMARK   24  A    between atoms: C28_38  and  O6_39 
REMARK   25  A    between atoms: C29_42  and  O8_43 
REMARK   26  A    between atoms: C29_42  and  C35_49 
ROOT
ATOM      1  C14 non d ame     -35.963  16.668  25.250  0.00  0.00     0.089 C 
ATOM      2  H20 non d ame     -35.909  16.727  24.163  0.00  0.00     0.087 H 
ENDROOT
BRANCH   1   3
ATOM      3  N4  non d ame     -36.437  15.335  25.593  0.00  0.00    -0.346 N 
ATOM      4  C10 non d ame     -37.251  14.538  24.606  0.00  0.00     0.241 C 
ATOM      5  O4  non d ame     -37.515  14.992  23.541  0.00  0.00    -0.271 OA
ATOM      6  H19 non d ame     -36.203  14.968  26.505  0.00  0.00     0.163 HD
BRANCH   4   7
ATOM      7  C9  non d ame     -37.727  13.158  24.975  0.00  0.00     0.092 C 
ATOM      8  H11 non d ame     -38.261  12.724  24.129  0.00  0.00     0.088 H 
BRANCH   7   9
ATOM      9  N3  non d ame     -36.572  12.297  25.246  0.00  0.00    -0.346 N 
ATOM     10  C7  non d ame     -36.410  11.060  24.523  0.00  0.00     0.240 C 
ATOM     11  O3  non d ame     -37.201  10.740  23.721  0.00  0.00    -0.271 OA
ATOM     12  H10 non d ame     -35.882  12.559  25.936  0.00  0.00     0.163 HD
BRANCH  10  13
ATOM     13  C6  non d ame     -35.180  10.147  24.818  0.00  0.00     0.086 C 
ATOM     14  H6  non d ame     -34.242  10.700  24.848  0.00  0.00     0.086 H 
BRANCH  13  15
ATOM     15  N2  non d ame     -35.347   9.539  26.127  0.00  0.00    -0.343 N 
ATOM     16  C5  non d ame     -34.306   9.716  27.143  0.00  0.00     0.273 C 
ATOM     17  O2  non d ame     -33.338  10.347  26.895  0.00  0.00    -0.266 OA
ATOM     18  H5  non d ame     -36.177   8.999  26.330  0.00  0.00     0.163 HD
BRANCH  16  19
ATOM     19  C4  non d ame     -34.470   9.080  28.532  0.00  0.00     0.154 A 
ATOM     20  C1  non d ame     -34.829   7.727  28.827  0.00  0.00    -0.017 A 
ATOM     21  C2  non d ame     -34.843   7.653  30.238  0.00  0.00     0.077 A 
ATOM     22  H1  non d ame     -35.046   6.921  28.125  0.00  0.00     0.091 H 
ATOM     23  O1  non d ame     -34.527   8.831  30.690  0.00  0.00    -0.218 OA
ATOM     24  N1  non d ame     -34.305   9.681  29.714  0.00  0.00    -0.123 NA
BRANCH  21  25
ATOM     25  C3  non d ame     -35.168   6.422  31.073  0.00  0.00    -0.029 C 
ATOM     26  H2  non d ame     -34.245   5.902  31.328  0.00  0.00     0.036 H 
ATOM     27  H3  non d ame     -35.676   6.728  31.987  0.00  0.00     0.036 H 
ATOM     28  H4  non d ame     -35.815   5.756  30.503  0.00  0.00     0.036 H 
ENDBRANCH  21  25
ENDBRANCH  16  19
ENDBRANCH  13  15
BRANCH  13  29
ATOM     29  C8  non d ame     -35.080   9.076  23.761  0.00  0.00    -0.049 C 
ATOM     30  H7  non d ame     -35.959   8.434  23.810  0.00  0.00     0.030 H 
ATOM     31  H8  non d ame     -35.025   9.542  22.777  0.00  0.00     0.030 H 
ATOM     32  H9  non d ame     -34.184   8.479  23.931  0.00  0.00     0.030 H 
ENDBRANCH  13  29
ENDBRANCH  10  13
ENDBRANCH   7   9
BRANCH   7  33
ATOM     33  C11 non d ame     -38.618  13.241  26.249  0.00  0.00    -0.033 C 
ATOM     34  H12 non d ame     -38.007  13.653  27.052  0.00  0.00     0.042 H 
BRANCH  33  35
ATOM     35  C12 non d ame     -39.825  14.207  26.037  0.00  0.00    -0.071 C 
ATOM     36  H13 non d ame     -39.698  15.091  26.661  0.00  0.00     0.028 H 
ATOM     37  H14 non d ame     -39.872  14.506  24.990  0.00  0.00     0.028 H 
ATOM     38  H15 non d ame     -40.750  13.699  26.311  0.00  0.00     0.028 H 
ENDBRANCH  33  35
BRANCH  33  39
ATOM     39  C13 non d ame     -39.100  11.821  26.688  0.00  0.00    -0.071 C 
ATOM     40  H16 non d ame     -40.190  11.800  26.719  0.00  0.00     0.028 H 
ATOM     41  H17 non d ame     -38.742  11.079  25.975  0.00  0.00     0.028 H 
ATOM     42  H18 non d ame     -38.704  11.593  27.678  0.00  0.00     0.028 H 
ENDBRANCH  33  39
ENDBRANCH   7  33
ENDBRANCH   4   7
ENDBRANCH   1   3
BRANCH   1  43
ATOM     43  C15 non d ame     -34.577  16.889  25.921  0.00  0.00     0.240 C 
ATOM     44  O5  non d ame     -34.091  17.973  25.929  0.00  0.00    -0.271 OA
ATOM     45  N6  non d ame     -33.859  15.750  26.560  0.00  0.00    -0.355 N 
ATOM     46  H46 non d ame     -34.264  14.825  26.564  0.00  0.00     0.162 HD
BRANCH  45  47
ATOM     47  C20 non d ame     -32.543  15.977  27.195  0.00  0.00     0.013 C 
ATOM     48  H30 non d ame     -32.327  17.044  27.148  0.00  0.00     0.072 H 
BRANCH  47  49
ATOM     49  C21 non d ame     -31.485  15.203  26.441  0.00  0.00    -0.038 C 
ATOM     50  H31 non d ame     -30.713  15.930  26.187  0.00  0.00     0.036 H 
ATOM     51  H32 non d ame     -31.241  14.347  27.070  0.00  0.00     0.036 H 
BRANCH  49  52
ATOM     52  C22 non d ame     -32.001  14.629  25.104  0.00  0.00     0.018 C 
ATOM     53  H33 non d ame     -32.359  13.625  25.332  0.00  0.00     0.048 H 
ATOM     54  H34 non d ame     -32.689  15.376  24.707  0.00  0.00     0.048 H 
BRANCH  52  55
ATOM     55  C23 non d ame     -30.893  14.454  24.028  0.00  0.00     0.259 C 
ATOM     56  O7  non d ame     -30.295  15.395  23.619  0.00  0.00    -0.265 OA
BRANCH  55  57
ATOM     57  O8  non d ame     -30.610  13.153  23.525  0.00  0.00    -0.317 OA
BRANCH  57  58
ATOM     58  C29 non d ame     -31.161  12.093  24.310  0.00  0.00     0.052 C 
ATOM     59  H47 non d ame     -30.604  12.098  25.247  0.00  0.00     0.082 H 
ATOM     60  H48 non d ame     -32.238  12.259  24.317  0.00  0.00     0.082 H 
BRANCH  58  61
ATOM     61  C35 non d ame     -30.876  10.755  23.576  0.00  0.00    -0.034 A 
ATOM     62  C30 non d ame     -31.625   9.622  23.876  0.00  0.00    -0.075 A 
ATOM     63  C31 non d ame     -31.369   8.421  23.217  0.00  0.00    -0.082 A 
ATOM     64  H49 non d ame     -32.413   9.675  24.628  0.00  0.00     0.084 H 
ATOM     65  C32 non d ame     -30.357   8.354  22.256  0.00  0.00    -0.083 A 
ATOM     66  H50 non d ame     -31.959   7.535  23.454  0.00  0.00     0.083 H 
ATOM     67  C33 non d ame     -29.609   9.487  21.962  0.00  0.00    -0.082 A 
ATOM     68  H51 non d ame     -30.150   7.419  21.736  0.00  0.00     0.083 H 
ATOM     69  C34 non d ame     -29.863  10.690  22.617  0.00  0.00    -0.075 A 
ATOM     70  H52 non d ame     -28.819   9.431  21.214  0.00  0.00     0.083 H 
ATOM     71  H53 non d ame     -29.273  11.575  22.380  0.00  0.00     0.084 H 
ENDBRANCH  58  61
ENDBRANCH  57  58
ENDBRANCH  55  57
ENDBRANCH  52  55
ENDBRANCH  49  52
ENDBRANCH  47  49
BRANCH  47  72
ATOM     72  C24 non d ame     -32.581  15.506  28.647  0.00  0.00    -0.039 C 
ATOM     73  H35 non d ame     -32.191  16.339  29.233  0.00  0.00     0.036 H 
ATOM     74  H36 non d ame     -33.600  15.154  28.811  0.00  0.00     0.036 H 
BRANCH  72  75
ATOM     75  C25 non d ame     -31.605  14.259  28.892  0.00  0.00    -0.001 C 
ATOM     76  C26 non d ame     -32.487  12.924  29.272  0.00  0.00    -0.035 C 
ATOM     77  C27 non d ame     -31.986  12.379  30.407  0.00  0.00     0.085 C 
ATOM     78  H38 non d ame     -33.500  13.213  29.553  0.00  0.00     0.036 H 
ATOM     79  H39 non d ame     -32.330  12.146  28.525  0.00  0.00     0.036 H 
ATOM     80  N5  non d ame     -31.055  13.401  31.013  0.00  0.00    -0.049 N 
ATOM     81  H40 non d ame     -32.843  12.243  31.067  0.00  0.00     0.075 H 
ATOM     82  H41 non d ame     -31.405  11.516  30.083  0.00  0.00     0.075 H 
ATOM     83  C28 non d ame     -30.780  14.493  29.857  0.00  0.00     0.193 C 
ATOM     84  H42 non d ame     -31.567  13.846  31.761  0.00  0.00     0.280 HD
ATOM     85  H43 non d ame     -30.190  12.917  31.211  0.00  0.00     0.280 HD
ATOM     86  H44 non d ame     -29.835  14.498  29.313  0.00  0.00     0.129 H 
ATOM     87  H37 non d ame     -30.863  14.154  28.100  0.00  0.00     0.046 H 
BRANCH  83  88
ATOM     88  O6  non d ame     -30.926  15.814  30.382  0.00  0.00    -0.369 OA
ATOM     89  H45 non d ame     -30.495  16.441  29.795  0.00  0.00     0.212 HD
ENDBRANCH  83  88
ENDBRANCH  72  75
ENDBRANCH  47  72
ENDBRANCH  45  47
ENDBRANCH   1  43
BRANCH   1  90
ATOM     90  C16 non d ame     -36.954  17.696  25.773  0.00  0.00    -0.035 C 
ATOM     91  H21 non d ame     -37.832  17.124  26.071  0.00  0.00     0.037 H 
ATOM     92  H22 non d ame     -36.404  18.276  26.514  0.00  0.00     0.037 H 
BRANCH  90  93
ATOM     93  C17 non d ame     -37.436  18.710  24.687  0.00  0.00    -0.059 C 
ATOM     94  H23 non d ame     -36.884  18.500  23.771  0.00  0.00     0.038 H 
BRANCH  93  95
ATOM     95  C18 non d ame     -38.959  18.557  24.373  0.00  0.00    -0.073 C 
ATOM     96  H24 non d ame     -39.145  18.837  23.337  0.00  0.00     0.028 H 
ATOM     97  H25 non d ame     -39.260  17.522  24.529  0.00  0.00     0.028 H 
ATOM     98  H26 non d ame     -39.533  19.206  25.034  0.00  0.00     0.028 H 
ENDBRANCH  93  95
BRANCH  93  99
ATOM     99  C19 non d ame     -37.106  20.147  25.098  0.00  0.00    -0.073 C 
ATOM    100  H27 non d ame     -38.003  20.630  25.486  0.00  0.00     0.028 H 
ATOM    101  H28 non d ame     -36.336  20.138  25.869  0.00  0.00     0.028 H 
ATOM    102  H29 non d ame     -36.743  20.699  24.230  0.00  0.00     0.028 H 
ENDBRANCH  93  99
ENDBRANCH  90  93
ENDBRANCH   1  90
TORSDOF 26
ENDMDL
MODEL 16
REMARK VINA RESULT:      -5.8      2.906      6.866
REMARK  26 active torsions:
REMARK  status: ('A' for Active; 'I' for Inactive)
REMARK    1  A    between atoms: C2_2  and  C3_3 
REMARK    2  A    between atoms: C4_6  and  C5_7 
REMARK       I    between atoms: C5_7  and  N2_9 
REMARK    3  A    between atoms: N2_9  and  C6_10 
REMARK    4  A    between atoms: C6_10  and  C7_11 
REMARK    5  A    between atoms: C6_10  and  C8_13 
REMARK       I    between atoms: C7_11  and  N3_14 
REMARK    6  A    between atoms: N3_14  and  C9_15 
REMARK    7  A    between atoms: C9_15  and  C10_16 
REMARK    8  A    between atoms: C9_15  and  C11_18 
REMARK       I    between atoms: C10_16  and  N4_21 
REMARK    9  A    between atoms: C11_18  and  C12_19 
REMARK   10  A    between atoms: C11_18  and  C13_20 
REMARK   11  A    between atoms: N4_21  and  C14_22 
REMARK   12  A    between atoms: C14_22  and  C15_23 
REMARK   13  A    between atoms: C14_22  and  C16_25 
REMARK       I    between atoms: C15_23  and  N6_40 
REMARK   14  A    between atoms: C16_25  and  C17_26 
REMARK   15  A    between atoms: C17_26  and  C18_27 
REMARK   16  A    between atoms: C17_26  and  C19_28 
REMARK   17  A    between atoms: C20_29  and  C21_30 
REMARK   18  A    between atoms: C20_29  and  C24_33 
REMARK   19  A    between atoms: C20_29  and  N6_40 
REMARK   20  A    between atoms: C21_30  and  C22_31 
REMARK   21  A    between atoms: C22_31  and  C23_32 
REMARK   22  A    between atoms: C23_32  and  O8_43 
REMARK   23  A    between atoms: C24_33  and  C25_34 
REMARK   24  A    between atoms: C28_38  and  O6_39 
REMARK   25  A    between atoms: C29_42  and  O8_43 
REMARK   26  A    between atoms: C29_42  and  C35_49 
ROOT
ATOM      1  C14 non d ame     -34.724   6.463  29.685  0.00  0.00     0.089 C 
ATOM      2  H20 non d ame     -34.175   6.197  30.589  0.00  0.00     0.087 H 
ENDROOT
BRANCH   1   3
ATOM      3  N4  non d ame     -35.082   7.870  29.787  0.00  0.00    -0.346 N 
ATOM      4  C10 non d ame     -34.968   8.591  31.106  0.00  0.00     0.241 C 
ATOM      5  O4  non d ame     -34.589   8.017  32.073  0.00  0.00    -0.271 OA
ATOM      6  H19 non d ame     -35.404   8.340  28.952  0.00  0.00     0.163 HD
BRANCH   4   7
ATOM      7  C9  non d ame     -35.337  10.049  31.192  0.00  0.00     0.092 C 
ATOM      8  H11 non d ame     -34.994  10.450  32.146  0.00  0.00     0.088 H 
BRANCH   7   9
ATOM      9  N3  non d ame     -34.644  10.792  30.135  0.00  0.00    -0.346 N 
ATOM     10  C7  non d ame     -33.312  11.297  30.365  0.00  0.00     0.240 C 
ATOM     11  O3  non d ame     -32.785  11.116  31.394  0.00  0.00    -0.271 OA
ATOM     12  H10 non d ame     -35.086  10.957  29.243  0.00  0.00     0.163 HD
BRANCH  10  13
ATOM     13  C6  non d ame     -32.581  12.090  29.237  0.00  0.00     0.086 C 
ATOM     14  H6  non d ame     -32.715  11.643  28.253  0.00  0.00     0.086 H 
BRANCH  13  15
ATOM     15  N2  non d ame     -33.138  13.430  29.166  0.00  0.00    -0.343 N 
ATOM     16  C5  non d ame     -33.462  14.008  27.860  0.00  0.00     0.273 C 
ATOM     17  O2  non d ame     -33.269  13.387  26.873  0.00  0.00    -0.266 OA
ATOM     18  H5  non d ame     -33.298  13.955  30.014  0.00  0.00     0.163 HD
BRANCH  16  19
ATOM     19  C4  non d ame     -34.054  15.423  27.769  0.00  0.00     0.154 A 
ATOM     20  C1  non d ame     -33.378  16.660  28.018  0.00  0.00    -0.017 A 
ATOM     21  C2  non d ame     -34.355  17.658  27.800  0.00  0.00     0.077 A 
ATOM     22  H1  non d ame     -32.339  16.811  28.311  0.00  0.00     0.091 H 
ATOM     23  O1  non d ame     -35.457  17.054  27.464  0.00  0.00    -0.218 OA
ATOM     24  N1  non d ame     -35.307  15.750  27.440  0.00  0.00    -0.123 NA
BRANCH  21  25
ATOM     25  C3  non d ame     -34.152  19.161  27.932  0.00  0.00    -0.029 C 
ATOM     26  H2  non d ame     -33.970  19.592  26.948  0.00  0.00     0.036 H 
ATOM     27  H3  non d ame     -35.046  19.611  28.365  0.00  0.00     0.036 H 
ATOM     28  H4  non d ame     -33.297  19.358  28.579  0.00  0.00     0.036 H 
ENDBRANCH  21  25
ENDBRANCH  16  19
ENDBRANCH  13  15
BRANCH  13  29
ATOM     29  C8  non d ame     -31.106  12.159  29.544  0.00  0.00    -0.049 C 
ATOM     30  H7  non d ame     -30.542  12.189  28.612  0.00  0.00     0.030 H 
ATOM     31  H8  non d ame     -30.898  13.059  30.123  0.00  0.00     0.030 H 
ATOM     32  H9  non d ame     -30.813  11.281  30.119  0.00  0.00     0.030 H 
ENDBRANCH  13  29
ENDBRANCH  10  13
ENDBRANCH   7   9
BRANCH   7  33
ATOM     33  C11 non d ame     -36.875  10.206  31.009  0.00  0.00    -0.033 C 
ATOM     34  H12 non d ame     -37.173  11.127  31.509  0.00  0.00     0.042 H 
BRANCH  33  35
ATOM     35  C12 non d ame     -37.257  10.346  29.502  0.00  0.00    -0.071 C 
ATOM     36  H13 non d ame     -37.067   9.402  28.990  0.00  0.00     0.028 H 
ATOM     37  H14 non d ame     -38.313  10.599  29.417  0.00  0.00     0.028 H 
ATOM     38  H15 non d ame     -36.656  11.133  29.047  0.00  0.00     0.028 H 
ENDBRANCH  33  35
BRANCH  33  39
ATOM     39  C13 non d ame     -37.642   9.022  31.680  0.00  0.00    -0.071 C 
ATOM     40  H16 non d ame     -38.607   9.374  32.044  0.00  0.00     0.028 H 
ATOM     41  H17 non d ame     -37.797   8.228  30.949  0.00  0.00     0.028 H 
ATOM     42  H18 non d ame     -37.057   8.636  32.515  0.00  0.00     0.028 H 
ENDBRANCH  33  39
ENDBRANCH   7  33
ENDBRANCH   4   7
ENDBRANCH   1   3
BRANCH   1  43
ATOM     43  C15 non d ame     -33.872   6.260  28.399  0.00  0.00     0.240 C 
ATOM     44  O5  non d ame     -33.280   5.242  28.237  0.00  0.00    -0.271 OA
ATOM     45  N6  non d ame     -33.799   7.332  27.366  0.00  0.00    -0.355 N 
ATOM     46  H46 non d ame     -34.301   8.200  27.491  0.00  0.00     0.162 HD
BRANCH  45  47
ATOM     47  C20 non d ame     -32.986   7.124  26.149  0.00  0.00     0.013 C 
ATOM     48  H30 non d ame     -32.014   6.738  26.457  0.00  0.00     0.072 H 
BRANCH  47  49
ATOM     49  C21 non d ame     -32.814   8.443  25.431  0.00  0.00    -0.038 C 
ATOM     50  H31 non d ame     -32.094   8.253  24.635  0.00  0.00     0.036 H 
ATOM     51  H32 non d ame     -33.822   8.779  25.186  0.00  0.00     0.036 H 
BRANCH  49  52
ATOM     52  C22 non d ame     -32.195   9.537  26.328  0.00  0.00     0.018 C 
ATOM     53  H33 non d ame     -33.032  10.002  26.847  0.00  0.00     0.048 H 
ATOM     54  H34 non d ame     -31.408   9.042  26.897  0.00  0.00     0.048 H 
BRANCH  52  55
ATOM     55  C23 non d ame     -31.497  10.677  25.534  0.00  0.00     0.259 C 
ATOM     56  O7  non d ame     -30.715  11.393  26.069  0.00  0.00    -0.265 OA
BRANCH  55  57
ATOM     57  O8  non d ame     -31.815  10.864  24.160  0.00  0.00    -0.317 OA
BRANCH  57  58
ATOM     58  C29 non d ame     -30.671  10.948  23.305  0.00  0.00     0.052 C 
ATOM     59  H47 non d ame     -31.025  11.412  22.384  0.00  0.00     0.082 H 
ATOM     60  H48 non d ame     -29.895  11.433  23.896  0.00  0.00     0.082 H 
BRANCH  58  61
ATOM     61  C35 non d ame     -30.209   9.502  22.980  0.00  0.00    -0.034 A 
ATOM     62  C30 non d ame     -28.861   9.167  23.060  0.00  0.00    -0.075 A 
ATOM     63  C31 non d ame     -28.446   7.869  22.769  0.00  0.00    -0.082 A 
ATOM     64  H49 non d ame     -28.130   9.922  23.352  0.00  0.00     0.084 H 
ATOM     65  C32 non d ame     -29.384   6.904  22.392  0.00  0.00    -0.083 A 
ATOM     66  H50 non d ame     -27.389   7.609  22.834  0.00  0.00     0.083 H 
ATOM     67  C33 non d ame     -30.728   7.244  22.310  0.00  0.00    -0.082 A 
ATOM     68  H51 non d ame     -29.068   5.886  22.163  0.00  0.00     0.083 H 
ATOM     69  C34 non d ame     -31.147   8.540  22.603  0.00  0.00    -0.075 A 
ATOM     70  H52 non d ame     -31.457   6.490  22.014  0.00  0.00     0.083 H 
ATOM     71  H53 non d ame     -32.205   8.799  22.537  0.00  0.00     0.084 H 
ENDBRANCH  58  61
ENDBRANCH  57  58
ENDBRANCH  55  57
ENDBRANCH  52  55
ENDBRANCH  49  52
ENDBRANCH  47  49
BRANCH  47  72
ATOM     72  C24 non d ame     -33.684   6.128  25.226  0.00  0.00    -0.039 C 
ATOM     73  H35 non d ame     -32.883   5.548  24.765  0.00  0.00     0.036 H 
ATOM     74  H36 non d ame     -34.429   5.629  25.846  0.00  0.00     0.036 H 
BRANCH  72  75
ATOM     75  C25 non d ame     -34.472   6.867  24.043  0.00  0.00    -0.001 C 
ATOM     76  C26 non d ame     -36.077   6.937  24.398  0.00  0.00    -0.035 C 
ATOM     77  C27 non d ame     -36.777   6.457  23.342  0.00  0.00     0.085 C 
ATOM     78  H38 non d ame     -36.313   6.237  25.199  0.00  0.00     0.036 H 
ATOM     79  H39 non d ame     -36.400   7.975  24.467  0.00  0.00     0.036 H 
ATOM     80  N5  non d ame     -35.790   5.765  22.434  0.00  0.00    -0.049 N 
ATOM     81  H40 non d ame     -37.459   5.715  23.759  0.00  0.00     0.075 H 
ATOM     82  H41 non d ame     -37.173   7.335  22.833  0.00  0.00     0.075 H 
ATOM     83  C28 non d ame     -34.327   6.243  22.923  0.00  0.00     0.193 C 
ATOM     84  H42 non d ame     -35.881   4.775  22.613  0.00  0.00     0.280 HD
ATOM     85  H43 non d ame     -35.954   6.128  21.506  0.00  0.00     0.280 HD
ATOM     86  H44 non d ame     -33.768   6.985  22.353  0.00  0.00     0.129 H 
ATOM     87  H37 non d ame     -33.990   7.798  23.745  0.00  0.00     0.046 H 
BRANCH  83  88
ATOM     88  O6  non d ame     -33.455   5.117  23.041  0.00  0.00    -0.369 OA
ATOM     89  H45 non d ame     -33.039   4.944  22.194  0.00  0.00     0.212 HD
ENDBRANCH  83  88
ENDBRANCH  72  75
ENDBRANCH  47  72
ENDBRANCH  45  47
ENDBRANCH   1  43
BRANCH   1  90
ATOM     90  C16 non d ame     -35.995   5.633  29.591  0.00  0.00    -0.035 C 
ATOM     91  H21 non d ame     -35.661   4.612  29.410  0.00  0.00     0.037 H 
ATOM     92  H22 non d ame     -36.561   5.870  30.493  0.00  0.00     0.037 H 
BRANCH  90  93
ATOM     93  C17 non d ame     -36.908   6.019  28.384  0.00  0.00    -0.059 C 
ATOM     94  H23 non d ame     -36.429   6.845  27.858  0.00  0.00     0.038 H 
BRANCH  93  95
ATOM     95  C18 non d ame     -37.074   4.841  27.371  0.00  0.00    -0.073 C 
ATOM     96  H24 non d ame     -36.183   4.767  26.750  0.00  0.00     0.028 H 
ATOM     97  H25 non d ame     -37.213   3.909  27.918  0.00  0.00     0.028 H 
ATOM     98  H26 non d ame     -37.943   5.025  26.740  0.00  0.00     0.028 H 
ENDBRANCH  93  95
BRANCH  93  99
ATOM     99  C19 non d ame     -38.272   6.519  28.868  0.00  0.00    -0.073 C 
ATOM    100  H27 non d ame     -38.865   5.674  29.218  0.00  0.00     0.028 H 
ATOM    101  H28 non d ame     -38.131   7.227  29.684  0.00  0.00     0.028 H 
ATOM    102  H29 non d ame     -38.790   7.012  28.046  0.00  0.00     0.028 H 
ENDBRANCH  93  99
ENDBRANCH  90  93
ENDBRANCH   1  90
TORSDOF 26
ENDMDL
MODEL 17
REMARK VINA RESULT:      -5.8      2.813      6.092
REMARK  26 active torsions:
REMARK  status: ('A' for Active; 'I' for Inactive)
REMARK    1  A    between atoms: C2_2  and  C3_3 
REMARK    2  A    between atoms: C4_6  and  C5_7 
REMARK       I    between atoms: C5_7  and  N2_9 
REMARK    3  A    between atoms: N2_9  and  C6_10 
REMARK    4  A    between atoms: C6_10  and  C7_11 
REMARK    5  A    between atoms: C6_10  and  C8_13 
REMARK       I    between atoms: C7_11  and  N3_14 
REMARK    6  A    between atoms: N3_14  and  C9_15 
REMARK    7  A    between atoms: C9_15  and  C10_16 
REMARK    8  A    between atoms: C9_15  and  C11_18 
REMARK       I    between atoms: C10_16  and  N4_21 
REMARK    9  A    between atoms: C11_18  and  C12_19 
REMARK   10  A    between atoms: C11_18  and  C13_20 
REMARK   11  A    between atoms: N4_21  and  C14_22 
REMARK   12  A    between atoms: C14_22  and  C15_23 
REMARK   13  A    between atoms: C14_22  and  C16_25 
REMARK       I    between atoms: C15_23  and  N6_40 
REMARK   14  A    between atoms: C16_25  and  C17_26 
REMARK   15  A    between atoms: C17_26  and  C18_27 
REMARK   16  A    between atoms: C17_26  and  C19_28 
REMARK   17  A    between atoms: C20_29  and  C21_30 
REMARK   18  A    between atoms: C20_29  and  C24_33 
REMARK   19  A    between atoms: C20_29  and  N6_40 
REMARK   20  A    between atoms: C21_30  and  C22_31 
REMARK   21  A    between atoms: C22_31  and  C23_32 
REMARK   22  A    between atoms: C23_32  and  O8_43 
REMARK   23  A    between atoms: C24_33  and  C25_34 
REMARK   24  A    between atoms: C28_38  and  O6_39 
REMARK   25  A    between atoms: C29_42  and  O8_43 
REMARK   26  A    between atoms: C29_42  and  C35_49 
ROOT
ATOM      1  C14 non d ame     -34.682   8.761  31.264  0.00  0.00     0.089 C 
ATOM      2  H20 non d ame     -33.874   8.952  31.971  0.00  0.00     0.087 H 
ENDROOT
BRANCH   1   3
ATOM      3  N4  non d ame     -34.396   9.521  30.056  0.00  0.00    -0.346 N 
ATOM      4  C10 non d ame     -33.246  10.495  30.023  0.00  0.00     0.241 C 
ATOM      5  O4  non d ame     -32.565  10.653  30.983  0.00  0.00    -0.271 OA
ATOM      6  H19 non d ame     -34.989   9.374  29.251  0.00  0.00     0.163 HD
BRANCH   4   7
ATOM      7  C9  non d ame     -32.962  11.269  28.763  0.00  0.00     0.092 C 
ATOM      8  H11 non d ame     -32.917  10.579  27.921  0.00  0.00     0.088 H 
BRANCH   7   9
ATOM      9  N3  non d ame     -34.063  12.201  28.502  0.00  0.00    -0.346 N 
ATOM     10  C7  non d ame     -34.592  12.335  27.167  0.00  0.00     0.240 C 
ATOM     11  O3  non d ame     -34.142  11.703  26.291  0.00  0.00    -0.271 OA
ATOM     12  H10 non d ame     -34.461  12.754  29.248  0.00  0.00     0.163 HD
BRANCH  10  13
ATOM     13  C6  non d ame     -35.763  13.330  26.895  0.00  0.00     0.086 C 
ATOM     14  H6  non d ame     -36.309  13.596  27.799  0.00  0.00     0.086 H 
BRANCH  13  15
ATOM     15  N2  non d ame     -35.216  14.567  26.362  0.00  0.00    -0.343 N 
ATOM     16  C5  non d ame     -34.487  15.475  27.250  0.00  0.00     0.273 C 
ATOM     17  O2  non d ame     -34.349  15.203  28.392  0.00  0.00    -0.266 OA
ATOM     18  H5  non d ame     -35.341  14.793  25.385  0.00  0.00     0.163 HD
BRANCH  16  19
ATOM     19  C4  non d ame     -33.902  16.785  26.700  0.00  0.00     0.154 A 
ATOM     20  C1  non d ame     -33.866  18.058  27.353  0.00  0.00    -0.017 A 
ATOM     21  C2  non d ame     -33.230  18.921  26.433  0.00  0.00     0.077 A 
ATOM     22  H1  non d ame     -34.244  18.316  28.343  0.00  0.00     0.091 H 
ATOM     23  O1  non d ame     -32.938  18.217  25.379  0.00  0.00    -0.218 OA
ATOM     24  N1  non d ame     -33.320  16.967  25.511  0.00  0.00    -0.123 NA
BRANCH  21  25
ATOM     25  C3  non d ame     -32.940  20.402  26.638  0.00  0.00    -0.029 C 
ATOM     26  H2  non d ame     -32.466  20.548  27.608  0.00  0.00     0.036 H 
ATOM     27  H3  non d ame     -32.273  20.754  25.851  0.00  0.00     0.036 H 
ATOM     28  H4  non d ame     -33.873  20.964  26.602  0.00  0.00     0.036 H 
ENDBRANCH  21  25
ENDBRANCH  16  19
ENDBRANCH  13  15
BRANCH  13  29
ATOM     29  C8  non d ame     -36.723  12.722  25.905  0.00  0.00    -0.049 C 
ATOM     30  H7  non d ame     -36.920  11.686  26.180  0.00  0.00     0.030 H 
ATOM     31  H8  non d ame     -37.657  13.283  25.913  0.00  0.00     0.030 H 
ATOM     32  H9  non d ame     -36.287  12.756  24.907  0.00  0.00     0.030 H 
ENDBRANCH  13  29
ENDBRANCH  10  13
ENDBRANCH   7   9
BRANCH   7  33
ATOM     33  C11 non d ame     -31.638  12.071  28.934  0.00  0.00    -0.033 C 
ATOM     34  H12 non d ame     -30.907  11.404  29.390  0.00  0.00     0.042 H 
BRANCH  33  35
ATOM     35  C12 non d ame     -31.065  12.523  27.555  0.00  0.00    -0.071 C 
ATOM     36  H13 non d ame     -30.123  13.050  27.708  0.00  0.00     0.028 H 
ATOM     37  H14 non d ame     -30.894  11.648  26.928  0.00  0.00     0.028 H 
ATOM     38  H15 non d ame     -31.777  13.188  27.066  0.00  0.00     0.028 H 
ENDBRANCH  33  35
BRANCH  33  39
ATOM     39  C13 non d ame     -31.842  13.290  29.890  0.00  0.00    -0.071 C 
ATOM     40  H16 non d ame     -31.587  12.999  30.909  0.00  0.00     0.028 H 
ATOM     41  H17 non d ame     -31.198  14.111  29.574  0.00  0.00     0.028 H 
ATOM     42  H18 non d ame     -32.883  13.611  29.852  0.00  0.00     0.028 H 
ENDBRANCH  33  39
ENDBRANCH   7  33
ENDBRANCH   4   7
ENDBRANCH   1   3
BRANCH   1  43
ATOM     43  C15 non d ame     -34.788   7.255  30.888  0.00  0.00     0.240 C 
ATOM     44  O5  non d ame     -35.147   6.466  31.702  0.00  0.00    -0.271 OA
ATOM     45  N6  non d ame     -34.451   6.797  29.510  0.00  0.00    -0.355 N 
ATOM     46  H46 non d ame     -34.149   7.458  28.809  0.00  0.00     0.162 HD
BRANCH  45  47
ATOM     47  C20 non d ame     -34.558   5.362  29.168  0.00  0.00     0.013 C 
ATOM     48  H30 non d ame     -34.622   4.799  30.099  0.00  0.00     0.072 H 
BRANCH  47  49
ATOM     49  C21 non d ame     -33.331   4.940  28.393  0.00  0.00    -0.038 C 
ATOM     50  H31 non d ame     -32.583   4.681  29.142  0.00  0.00     0.036 H 
ATOM     51  H32 non d ame     -33.676   4.186  27.684  0.00  0.00     0.036 H 
BRANCH  49  52
ATOM     52  C22 non d ame     -32.729   6.087  27.552  0.00  0.00     0.018 C 
ATOM     53  H33 non d ame     -33.451   6.901  27.603  0.00  0.00     0.048 H 
ATOM     54  H34 non d ame     -31.717   6.231  27.932  0.00  0.00     0.048 H 
BRANCH  52  55
ATOM     55  C23 non d ame     -32.575   5.745  26.044  0.00  0.00     0.259 C 
ATOM     56  O7  non d ame     -32.951   4.700  25.622  0.00  0.00    -0.265 OA
BRANCH  55  57
ATOM     57  O8  non d ame     -31.968   6.691  25.174  0.00  0.00    -0.317 OA
BRANCH  57  58
ATOM     58  C29 non d ame     -32.689   7.921  25.056  0.00  0.00     0.052 C 
ATOM     59  H47 non d ame     -33.582   7.685  24.476  0.00  0.00     0.082 H 
ATOM     60  H48 non d ame     -32.785   8.305  26.071  0.00  0.00     0.082 H 
BRANCH  58  61
ATOM     61  C35 non d ame     -31.818   8.911  24.237  0.00  0.00    -0.034 A 
ATOM     62  C30 non d ame     -31.117   8.463  23.122  0.00  0.00    -0.075 A 
ATOM     63  C31 non d ame     -30.334   9.352  22.386  0.00  0.00    -0.082 A 
ATOM     64  H49 non d ame     -31.180   7.417  22.824  0.00  0.00     0.084 H 
ATOM     65  C32 non d ame     -30.252  10.693  22.771  0.00  0.00    -0.083 A 
ATOM     66  H50 non d ame     -29.787   8.999  21.512  0.00  0.00     0.083 H 
ATOM     67  C33 non d ame     -30.951  11.134  23.887  0.00  0.00    -0.082 A 
ATOM     68  H51 non d ame     -29.643  11.395  22.202  0.00  0.00     0.083 H 
ATOM     69  C34 non d ame     -31.736  10.250  24.624  0.00  0.00    -0.075 A 
ATOM     70  H52 non d ame     -30.883  12.181  24.186  0.00  0.00     0.083 H 
ATOM     71  H53 non d ame     -32.283  10.604  25.498  0.00  0.00     0.084 H 
ENDBRANCH  58  61
ENDBRANCH  57  58
ENDBRANCH  55  57
ENDBRANCH  52  55
ENDBRANCH  49  52
ENDBRANCH  47  49
BRANCH  47  72
ATOM     72  C24 non d ame     -35.805   5.126  28.318  0.00  0.00    -0.039 C 
ATOM     73  H35 non d ame     -35.509   4.392  27.567  0.00  0.00     0.036 H 
ATOM     74  H36 non d ame     -36.599   4.890  29.027  0.00  0.00     0.036 H 
BRANCH  72  75
ATOM     75  C25 non d ame     -36.248   6.451  27.535  0.00  0.00    -0.001 C 
ATOM     76  C26 non d ame     -37.735   6.933  28.047  0.00  0.00    -0.035 C 
ATOM     77  C27 non d ame     -38.529   7.119  26.966  0.00  0.00     0.085 C 
ATOM     78  H38 non d ame     -38.225   6.124  28.587  0.00  0.00     0.036 H 
ATOM     79  H39 non d ame     -37.673   7.927  28.492  0.00  0.00     0.036 H 
ATOM     80  N5  non d ame     -37.823   6.495  25.786  0.00  0.00    -0.049 N 
ATOM     81  H40 non d ame     -39.440   6.557  27.174  0.00  0.00     0.075 H 
ATOM     82  H41 non d ame     -38.576   8.198  26.821  0.00  0.00     0.075 H 
ATOM     83  C28 non d ame     -36.301   6.246  26.261  0.00  0.00     0.193 C 
ATOM     84  H42 non d ame     -38.263   5.599  25.631  0.00  0.00     0.280 HD
ATOM     85  H43 non d ame     -37.822   7.191  25.054  0.00  0.00     0.280 HD
ATOM     86  H44 non d ame     -35.500   6.903  25.921  0.00  0.00     0.129 H 
ATOM     87  H37 non d ame     -35.460   7.205  27.520  0.00  0.00     0.046 H 
BRANCH  83  88
ATOM     88  O6  non d ame     -35.885   4.925  25.910  0.00  0.00    -0.369 OA
ATOM     89  H45 non d ame     -36.360   4.286  26.448  0.00  0.00     0.212 HD
ENDBRANCH  83  88
ENDBRANCH  72  75
ENDBRANCH  47  72
ENDBRANCH  45  47
ENDBRANCH   1  43
BRANCH   1  90
ATOM     90  C16 non d ame     -36.002   9.236  31.849  0.00  0.00    -0.035 C 
ATOM     91  H21 non d ame     -36.213   8.556  32.674  0.00  0.00     0.037 H 
ATOM     92  H22 non d ame     -35.866  10.300  32.041  0.00  0.00     0.037 H 
BRANCH  90  93
ATOM     93  C17 non d ame     -37.205   9.116  30.860  0.00  0.00    -0.059 C 
ATOM     94  H23 non d ame     -36.824   8.709  29.924  0.00  0.00     0.038 H 
BRANCH  93  95
ATOM     95  C18 non d ame     -38.308   8.143  31.389  0.00  0.00    -0.073 C 
ATOM     96  H24 non d ame     -37.836   7.281  31.860  0.00  0.00     0.028 H 
ATOM     97  H25 non d ame     -38.929   8.661  32.119  0.00  0.00     0.028 H 
ATOM     98  H26 non d ame     -38.926   7.809  30.556  0.00  0.00     0.028 H 
ENDBRANCH  93  95
BRANCH  93  99
ATOM     99  C19 non d ame     -37.797  10.493  30.550  0.00  0.00    -0.073 C 
ATOM    100  H27 non d ame     -37.186  10.990  29.796  0.00  0.00     0.028 H 
ATOM    101  H28 non d ame     -38.813  10.376  30.173  0.00  0.00     0.028 H 
ATOM    102  H29 non d ame     -37.814  11.094  31.458  0.00  0.00     0.028 H 
ENDBRANCH  93  99
ENDBRANCH  90  93
ENDBRANCH   1  90
TORSDOF 26
ENDMDL
MODEL 18
REMARK VINA RESULT:      -5.7      3.062      6.787
REMARK  26 active torsions:
REMARK  status: ('A' for Active; 'I' for Inactive)
REMARK    1  A    between atoms: C2_2  and  C3_3 
REMARK    2  A    between atoms: C4_6  and  C5_7 
REMARK       I    between atoms: C5_7  and  N2_9 
REMARK    3  A    between atoms: N2_9  and  C6_10 
REMARK    4  A    between atoms: C6_10  and  C7_11 
REMARK    5  A    between atoms: C6_10  and  C8_13 
REMARK       I    between atoms: C7_11  and  N3_14 
REMARK    6  A    between atoms: N3_14  and  C9_15 
REMARK    7  A    between atoms: C9_15  and  C10_16 
REMARK    8  A    between atoms: C9_15  and  C11_18 
REMARK       I    between atoms: C10_16  and  N4_21 
REMARK    9  A    between atoms: C11_18  and  C12_19 
REMARK   10  A    between atoms: C11_18  and  C13_20 
REMARK   11  A    between atoms: N4_21  and  C14_22 
REMARK   12  A    between atoms: C14_22  and  C15_23 
REMARK   13  A    between atoms: C14_22  and  C16_25 
REMARK       I    between atoms: C15_23  and  N6_40 
REMARK   14  A    between atoms: C16_25  and  C17_26 
REMARK   15  A    between atoms: C17_26  and  C18_27 
REMARK   16  A    between atoms: C17_26  and  C19_28 
REMARK   17  A    between atoms: C20_29  and  C21_30 
REMARK   18  A    between atoms: C20_29  and  C24_33 
REMARK   19  A    between atoms: C20_29  and  N6_40 
REMARK   20  A    between atoms: C21_30  and  C22_31 
REMARK   21  A    between atoms: C22_31  and  C23_32 
REMARK   22  A    between atoms: C23_32  and  O8_43 
REMARK   23  A    between atoms: C24_33  and  C25_34 
REMARK   24  A    between atoms: C28_38  and  O6_39 
REMARK   25  A    between atoms: C29_42  and  O8_43 
REMARK   26  A    between atoms: C29_42  and  C35_49 
ROOT
ATOM      1  C14 non d ame     -34.778   6.728  28.441  0.00  0.00     0.089 C 
ATOM      2  H20 non d ame     -33.818   6.713  28.958  0.00  0.00     0.087 H 
ENDROOT
BRANCH   1   3
ATOM      3  N4  non d ame     -35.256   8.102  28.445  0.00  0.00    -0.346 N 
ATOM      4  C10 non d ame     -34.334   9.229  28.840  0.00  0.00     0.241 C 
ATOM      5  O4  non d ame     -33.212   9.004  29.154  0.00  0.00    -0.271 OA
ATOM      6  H19 non d ame     -36.215   8.272  28.176  0.00  0.00     0.163 HD
BRANCH   4   7
ATOM      7  C9  non d ame     -34.844  10.646  28.832  0.00  0.00     0.092 C 
ATOM      8  H11 non d ame     -34.895  11.014  29.856  0.00  0.00     0.088 H 
BRANCH   7   9
ATOM      9  N3  non d ame     -33.899  11.502  28.110  0.00  0.00    -0.346 N 
ATOM     10  C7  non d ame     -32.956  12.312  28.842  0.00  0.00     0.240 C 
ATOM     11  O3  non d ame     -32.946  12.288  30.012  0.00  0.00    -0.271 OA
ATOM     12  H10 non d ame     -33.897  11.534  27.100  0.00  0.00     0.163 HD
BRANCH  10  13
ATOM     13  C6  non d ame     -31.954  13.224  28.068  0.00  0.00     0.086 C 
ATOM     14  H6  non d ame     -31.832  12.926  27.026  0.00  0.00     0.086 H 
BRANCH  13  15
ATOM     15  N2  non d ame     -32.468  14.583  28.054  0.00  0.00    -0.343 N 
ATOM     16  C5  non d ame     -32.102  15.481  26.956  0.00  0.00     0.273 C 
ATOM     17  O2  non d ame     -31.392  15.102  26.091  0.00  0.00    -0.266 OA
ATOM     18  H5  non d ame     -33.072  14.900  28.798  0.00  0.00     0.163 HD
BRANCH  16  19
ATOM     19  C4  non d ame     -32.639  16.921  26.928  0.00  0.00     0.154 A 
ATOM     20  C1  non d ame     -33.721  17.456  27.698  0.00  0.00    -0.017 A 
ATOM     21  C2  non d ame     -33.812  18.810  27.305  0.00  0.00     0.077 A 
ATOM     22  H1  non d ame     -34.343  16.941  28.429  0.00  0.00     0.091 H 
ATOM     23  O1  non d ame     -32.886  19.018  26.415  0.00  0.00    -0.218 OA
ATOM     24  N1  non d ame     -32.189  17.931  26.178  0.00  0.00    -0.123 NA
BRANCH  21  25
ATOM     25  C3  non d ame     -34.808  19.835  27.829  0.00  0.00    -0.029 C 
ATOM     26  H2  non d ame     -35.483  20.129  27.025  0.00  0.00     0.036 H 
ATOM     27  H3  non d ame     -35.384  19.399  28.645  0.00  0.00     0.036 H 
ATOM     28  H4  non d ame     -34.272  20.712  28.191  0.00  0.00     0.036 H 
ENDBRANCH  21  25
ENDBRANCH  16  19
ENDBRANCH  13  15
BRANCH  13  29
ATOM     29  C8  non d ame     -30.609  13.187  28.747  0.00  0.00    -0.049 C 
ATOM     30  H7  non d ame     -30.662  13.735  29.688  0.00  0.00     0.030 H 
ATOM     31  H8  non d ame     -30.331  12.152  28.945  0.00  0.00     0.030 H 
ATOM     32  H9  non d ame     -29.862  13.647  28.100  0.00  0.00     0.030 H 
ENDBRANCH  13  29
ENDBRANCH  10  13
ENDBRANCH   7   9
BRANCH   7  33
ATOM     33  C11 non d ame     -36.230  10.694  28.123  0.00  0.00    -0.033 C 
ATOM     34  H12 non d ame     -36.311   9.805  27.498  0.00  0.00     0.042 H 
BRANCH  33  35
ATOM     35  C12 non d ame     -37.399  10.650  29.156  0.00  0.00    -0.071 C 
ATOM     36  H13 non d ame     -37.880  11.627  29.202  0.00  0.00     0.028 H 
ATOM     37  H14 non d ame     -38.127   9.900  28.848  0.00  0.00     0.028 H 
ATOM     38  H15 non d ame     -37.005  10.393  30.139  0.00  0.00     0.028 H 
ENDBRANCH  33  35
BRANCH  33  39
ATOM     39  C13 non d ame     -36.340  11.947  27.196  0.00  0.00    -0.071 C 
ATOM     40  H16 non d ame     -35.581  12.677  27.479  0.00  0.00     0.028 H 
ATOM     41  H17 non d ame     -36.186  11.647  26.159  0.00  0.00     0.028 H 
ATOM     42  H18 non d ame     -37.330  12.392  27.302  0.00  0.00     0.028 H 
ENDBRANCH  33  39
ENDBRANCH   7  33
ENDBRANCH   4   7
ENDBRANCH   1   3
BRANCH   1  43
ATOM     43  C15 non d ame     -34.659   6.248  26.966  0.00  0.00     0.240 C 
ATOM     44  O5  non d ame     -35.164   5.224  26.635  0.00  0.00    -0.271 OA
ATOM     45  N6  non d ame     -33.923   7.070  25.964  0.00  0.00    -0.355 N 
ATOM     46  H46 non d ame     -33.494   7.944  26.232  0.00  0.00     0.162 HD
BRANCH  45  47
ATOM     47  C20 non d ame     -33.820   6.601  24.565  0.00  0.00     0.013 C 
ATOM     48  H30 non d ame     -34.478   5.739  24.451  0.00  0.00     0.072 H 
BRANCH  47  49
ATOM     49  C21 non d ame     -32.391   6.202  24.275  0.00  0.00    -0.038 C 
ATOM     50  H31 non d ame     -31.787   7.078  24.513  0.00  0.00     0.036 H 
ATOM     51  H32 non d ame     -32.232   5.268  24.814  0.00  0.00     0.036 H 
BRANCH  49  52
ATOM     52  C22 non d ame     -32.146   5.893  22.783  0.00  0.00     0.018 C 
ATOM     53  H33 non d ame     -31.457   5.049  22.765  0.00  0.00     0.048 H 
ATOM     54  H34 non d ame     -33.135   5.800  22.334  0.00  0.00     0.048 H 
BRANCH  52  55
ATOM     55  C23 non d ame     -31.434   7.042  22.014  0.00  0.00     0.259 C 
ATOM     56  O7  non d ame     -31.828   7.389  20.948  0.00  0.00    -0.265 OA
BRANCH  55  57
ATOM     57  O8  non d ame     -30.296   7.667  22.594  0.00  0.00    -0.317 OA
BRANCH  57  58
ATOM     58  C29 non d ame     -29.963   8.929  22.007  0.00  0.00     0.052 C 
ATOM     59  H47 non d ame     -28.874   8.969  21.993  0.00  0.00     0.082 H 
ATOM     60  H48 non d ame     -30.522   8.977  21.073  0.00  0.00     0.082 H 
BRANCH  58  61
ATOM     61  C35 non d ame     -30.483  10.047  22.949  0.00  0.00    -0.034 A 
ATOM     62  C30 non d ame     -31.289   9.724  24.036  0.00  0.00    -0.075 A 
ATOM     63  C31 non d ame     -31.756  10.729  24.881  0.00  0.00    -0.082 A 
ATOM     64  H49 non d ame     -31.554   8.684  24.225  0.00  0.00     0.084 H 
ATOM     65  C32 non d ame     -31.417  12.062  24.635  0.00  0.00    -0.083 A 
ATOM     66  H50 non d ame     -32.387  10.472  25.734  0.00  0.00     0.083 H 
ATOM     67  C33 non d ame     -30.616  12.380  23.547  0.00  0.00    -0.082 A 
ATOM     68  H51 non d ame     -31.778  12.854  25.292  0.00  0.00     0.083 H 
ATOM     69  C34 non d ame     -30.144  11.379  22.701  0.00  0.00    -0.075 A 
ATOM     70  H52 non d ame     -30.355  13.422  23.357  0.00  0.00     0.083 H 
ATOM     71  H53 non d ame     -29.514  11.637  21.849  0.00  0.00     0.084 H 
ENDBRANCH  58  61
ENDBRANCH  57  58
ENDBRANCH  55  57
ENDBRANCH  52  55
ENDBRANCH  49  52
ENDBRANCH  47  49
BRANCH  47  72
ATOM     72  C24 non d ame     -34.241   7.719  23.613  0.00  0.00    -0.039 C 
ATOM     73  H35 non d ame     -34.412   8.590  24.246  0.00  0.00     0.036 H 
ATOM     74  H36 non d ame     -33.471   7.749  22.843  0.00  0.00     0.036 H 
BRANCH  72  75
ATOM     75  C25 non d ame     -35.627   7.386  22.883  0.00  0.00    -0.001 C 
ATOM     76  C26 non d ame     -35.818   5.757  22.760  0.00  0.00    -0.035 C 
ATOM     77  C27 non d ame     -36.109   5.447  21.474  0.00  0.00     0.085 C 
ATOM     78  H38 non d ame     -34.867   5.255  22.934  0.00  0.00     0.036 H 
ATOM     79  H39 non d ame     -36.708   5.442  23.306  0.00  0.00     0.036 H 
ATOM     80  N5  non d ame     -35.812   6.675  20.647  0.00  0.00    -0.049 N 
ATOM     81  H40 non d ame     -35.411   4.656  21.200  0.00  0.00     0.075 H 
ATOM     82  H41 non d ame     -37.182   5.258  21.456  0.00  0.00     0.075 H 
ATOM     83  C28 non d ame     -35.664   7.893  21.696  0.00  0.00     0.193 C 
ATOM     84  H42 non d ame     -34.915   6.516  20.210  0.00  0.00     0.280 HD
ATOM     85  H43 non d ame     -36.630   6.839  20.076  0.00  0.00     0.280 HD
ATOM     86  H44 non d ame     -36.467   8.620  21.817  0.00  0.00     0.129 H 
ATOM     87  H37 non d ame     -36.460   7.952  23.300  0.00  0.00     0.046 H 
BRANCH  83  88
ATOM     88  O6  non d ame     -34.495   8.659  21.401  0.00  0.00    -0.369 OA
ATOM     89  H45 non d ame     -33.731   8.248  21.812  0.00  0.00     0.212 HD
ENDBRANCH  83  88
ENDBRANCH  72  75
ENDBRANCH  47  72
ENDBRANCH  45  47
ENDBRANCH   1  43
BRANCH   1  90
ATOM     90  C16 non d ame     -35.775   5.854  29.184  0.00  0.00    -0.035 C 
ATOM     91  H21 non d ame     -36.725   5.996  28.669  0.00  0.00     0.037 H 
ATOM     92  H22 non d ame     -35.319   4.864  29.223  0.00  0.00     0.037 H 
BRANCH  90  93
ATOM     93  C17 non d ame     -36.010   6.290  30.666  0.00  0.00    -0.059 C 
ATOM     94  H23 non d ame     -35.751   7.346  30.744  0.00  0.00     0.038 H 
BRANCH  93  95
ATOM     95  C18 non d ame     -37.503   6.132  31.098  0.00  0.00    -0.073 C 
ATOM     96  H24 non d ame     -37.676   6.691  32.017  0.00  0.00     0.028 H 
ATOM     97  H25 non d ame     -38.151   6.518  30.311  0.00  0.00     0.028 H 
ATOM     98  H26 non d ame     -37.722   5.078  31.266  0.00  0.00     0.028 H 
ENDBRANCH  93  95
BRANCH  93  99
ATOM     99  C19 non d ame     -35.084   5.524  31.614  0.00  0.00    -0.073 C 
ATOM    100  H27 non d ame     -35.212   4.452  31.460  0.00  0.00     0.028 H 
ATOM    101  H28 non d ame     -34.049   5.799  31.413  0.00  0.00     0.028 H 
ATOM    102  H29 non d ame     -35.332   5.775  32.645  0.00  0.00     0.028 H 
ENDBRANCH  93  99
ENDBRANCH  90  93
ENDBRANCH   1  90
TORSDOF 26
ENDMDL
MODEL 19
REMARK VINA RESULT:      -5.7      3.109      7.358
REMARK  26 active torsions:
REMARK  status: ('A' for Active; 'I' for Inactive)
REMARK    1  A    between atoms: C2_2  and  C3_3 
REMARK    2  A    between atoms: C4_6  and  C5_7 
REMARK       I    between atoms: C5_7  and  N2_9 
REMARK    3  A    between atoms: N2_9  and  C6_10 
REMARK    4  A    between atoms: C6_10  and  C7_11 
REMARK    5  A    between atoms: C6_10  and  C8_13 
REMARK       I    between atoms: C7_11  and  N3_14 
REMARK    6  A    between atoms: N3_14  and  C9_15 
REMARK    7  A    between atoms: C9_15  and  C10_16 
REMARK    8  A    between atoms: C9_15  and  C11_18 
REMARK       I    between atoms: C10_16  and  N4_21 
REMARK    9  A    between atoms: C11_18  and  C12_19 
REMARK   10  A    between atoms: C11_18  and  C13_20 
REMARK   11  A    between atoms: N4_21  and  C14_22 
REMARK   12  A    between atoms: C14_22  and  C15_23 
REMARK   13  A    between atoms: C14_22  and  C16_25 
REMARK       I    between atoms: C15_23  and  N6_40 
REMARK   14  A    between atoms: C16_25  and  C17_26 
REMARK   15  A    between atoms: C17_26  and  C18_27 
REMARK   16  A    between atoms: C17_26  and  C19_28 
REMARK   17  A    between atoms: C20_29  and  C21_30 
REMARK   18  A    between atoms: C20_29  and  C24_33 
REMARK   19  A    between atoms: C20_29  and  N6_40 
REMARK   20  A    between atoms: C21_30  and  C22_31 
REMARK   21  A    between atoms: C22_31  and  C23_32 
REMARK   22  A    between atoms: C23_32  and  O8_43 
REMARK   23  A    between atoms: C24_33  and  C25_34 
REMARK   24  A    between atoms: C28_38  and  O6_39 
REMARK   25  A    between atoms: C29_42  and  O8_43 
REMARK   26  A    between atoms: C29_42  and  C35_49 
ROOT
ATOM      1  C14 non d ame     -34.286   5.990  29.042  0.00  0.00     0.089 C 
ATOM      2  H20 non d ame     -33.794   5.867  30.007  0.00  0.00     0.087 H 
ENDROOT
BRANCH   1   3
ATOM      3  N4  non d ame     -34.786   7.355  28.976  0.00  0.00    -0.346 N 
ATOM      4  C10 non d ame     -34.951   8.168  30.235  0.00  0.00     0.241 C 
ATOM      5  O4  non d ame     -34.678   7.700  31.291  0.00  0.00    -0.271 OA
ATOM      6  H19 non d ame     -35.015   7.734  28.068  0.00  0.00     0.163 HD
BRANCH   4   7
ATOM      7  C9  non d ame     -35.464   9.581  30.148  0.00  0.00     0.092 C 
ATOM      8  H11 non d ame     -35.724   9.931  31.147  0.00  0.00     0.088 H 
BRANCH   7   9
ATOM      9  N3  non d ame     -34.402  10.457  29.644  0.00  0.00    -0.346 N 
ATOM     10  C7  non d ame     -33.523  11.129  30.570  0.00  0.00     0.240 C 
ATOM     11  O3  non d ame     -33.657  10.977  31.723  0.00  0.00    -0.271 OA
ATOM     12  H10 non d ame     -34.274  10.599  28.653  0.00  0.00     0.163 HD
BRANCH  10  13
ATOM     13  C6  non d ame     -32.396  12.062  30.029  0.00  0.00     0.086 C 
ATOM     14  H6  non d ame     -32.009  11.739  29.062  0.00  0.00     0.086 H 
BRANCH  13  15
ATOM     15  N2  non d ame     -32.940  13.395  29.834  0.00  0.00    -0.343 N 
ATOM     16  C5  non d ame     -32.591  14.148  28.627  0.00  0.00     0.273 C 
ATOM     17  O2  non d ame     -31.869  13.673  27.821  0.00  0.00    -0.266 OA
ATOM     18  H5  non d ame     -33.555  13.794  30.529  0.00  0.00     0.163 HD
BRANCH  16  19
ATOM     19  C4  non d ame     -33.161  15.558  28.407  0.00  0.00     0.154 A 
ATOM     20  C1  non d ame     -34.404  15.901  27.786  0.00  0.00    -0.017 A 
ATOM     21  C2  non d ame     -34.457  17.312  27.833  0.00  0.00     0.077 A 
ATOM     22  H1  non d ame     -35.152  15.229  27.365  0.00  0.00     0.091 H 
ATOM     23  O1  non d ame     -33.368  17.721  28.416  0.00  0.00    -0.218 OA
ATOM     24  N1  non d ame     -32.596  16.716  28.760  0.00  0.00    -0.123 NA
BRANCH  21  25
ATOM     25  C3  non d ame     -35.581  18.190  27.300  0.00  0.00    -0.029 C 
ATOM     26  H2  non d ame     -35.918  17.805  26.338  0.00  0.00     0.036 H 
ATOM     27  H3  non d ame     -36.411  18.184  28.005  0.00  0.00     0.036 H 
ATOM     28  H4  non d ame     -35.217  19.210  27.176  0.00  0.00     0.036 H 
ENDBRANCH  21  25
ENDBRANCH  16  19
ENDBRANCH  13  15
BRANCH  13  29
ATOM     29  C8  non d ame     -31.259  12.108  31.018  0.00  0.00    -0.049 C 
ATOM     30  H7  non d ame     -31.497  12.816  31.812  0.00  0.00     0.030 H 
ATOM     31  H8  non d ame     -31.111  11.117  31.447  0.00  0.00     0.030 H 
ATOM     32  H9  non d ame     -30.348  12.425  30.510  0.00  0.00     0.030 H 
ENDBRANCH  13  29
ENDBRANCH  10  13
ENDBRANCH   7   9
BRANCH   7  33
ATOM     33  C11 non d ame     -36.679   9.633  29.175  0.00  0.00    -0.033 C 
ATOM     34  H12 non d ame     -36.554   8.828  28.451  0.00  0.00     0.042 H 
BRANCH  33  35
ATOM     35  C12 non d ame     -38.022   9.381  29.929  0.00  0.00    -0.071 C 
ATOM     36  H13 non d ame     -37.838   9.365  31.004  0.00  0.00     0.028 H 
ATOM     37  H14 non d ame     -38.725  10.179  29.694  0.00  0.00     0.028 H 
ATOM     38  H15 non d ame     -38.439   8.424  29.618  0.00  0.00     0.028 H 
ENDBRANCH  33  35
BRANCH  33  39
ATOM     39  C13 non d ame     -36.713  10.985  28.393  0.00  0.00    -0.071 C 
ATOM     40  H16 non d ame     -35.785  11.530  28.570  0.00  0.00     0.028 H 
ATOM     41  H17 non d ame     -36.820  10.786  27.327  0.00  0.00     0.028 H 
ATOM     42  H18 non d ame     -37.557  11.582  28.737  0.00  0.00     0.028 H 
ENDBRANCH  33  39
ENDBRANCH   7  33
ENDBRANCH   4   7
ENDBRANCH   1   3
BRANCH   1  43
ATOM     43  C15 non d ame     -33.311   5.761  27.852  0.00  0.00     0.240 C 
ATOM     44  O5  non d ame     -32.325   5.117  28.011  0.00  0.00    -0.271 OA
ATOM     45  N6  non d ame     -33.610   6.339  26.511  0.00  0.00    -0.355 N 
ATOM     46  H46 non d ame     -34.447   6.885  26.362  0.00  0.00     0.162 HD
BRANCH  45  47
ATOM     47  C20 non d ame     -32.673   6.112  25.389  0.00  0.00     0.013 C 
ATOM     48  H30 non d ame     -31.705   5.841  25.810  0.00  0.00     0.072 H 
BRANCH  47  49
ATOM     49  C21 non d ame     -32.547   7.381  24.578  0.00  0.00    -0.038 C 
ATOM     50  H31 non d ame     -31.688   7.229  23.924  0.00  0.00     0.036 H 
ATOM     51  H32 non d ame     -33.534   7.556  24.150  0.00  0.00     0.036 H 
BRANCH  49  52
ATOM     52  C22 non d ame     -32.222   8.617  25.446  0.00  0.00     0.018 C 
ATOM     53  H33 non d ame     -31.789   8.226  26.366  0.00  0.00     0.048 H 
ATOM     54  H34 non d ame     -31.639   9.281  24.807  0.00  0.00     0.048 H 
BRANCH  52  55
ATOM     55  C23 non d ame     -33.476   9.428  25.874  0.00  0.00     0.259 C 
ATOM     56  O7  non d ame     -33.869   9.384  26.995  0.00  0.00    -0.265 OA
BRANCH  55  57
ATOM     57  O8  non d ame     -34.160  10.217  24.908  0.00  0.00    -0.317 OA
BRANCH  57  58
ATOM     58  C29 non d ame     -35.051   9.472  24.073  0.00  0.00     0.052 C 
ATOM     59  H47 non d ame     -35.071   9.998  23.119  0.00  0.00     0.082 H 
ATOM     60  H48 non d ame     -34.704   8.440  24.118  0.00  0.00     0.082 H 
BRANCH  58  61
ATOM     61  C35 non d ame     -36.468   9.541  24.702  0.00  0.00    -0.034 A 
ATOM     62  C30 non d ame     -37.243  10.686  24.548  0.00  0.00    -0.075 A 
ATOM     63  C31 non d ame     -38.516  10.749  25.113  0.00  0.00    -0.082 A 
ATOM     64  H49 non d ame     -36.854  11.534  23.984  0.00  0.00     0.084 H 
ATOM     65  C32 non d ame     -39.012   9.662  25.838  0.00  0.00    -0.083 A 
ATOM     66  H50 non d ame     -39.122  11.647  24.989  0.00  0.00     0.083 H 
ATOM     67  C33 non d ame     -38.234   8.523  25.992  0.00  0.00    -0.082 A 
ATOM     68  H51 non d ame     -40.006   9.703  26.282  0.00  0.00     0.083 H 
ATOM     69  C34 non d ame     -36.962   8.455  25.427  0.00  0.00    -0.075 A 
ATOM     70  H52 non d ame     -38.623   7.677  26.559  0.00  0.00     0.083 H 
ATOM     71  H53 non d ame     -36.357   7.556  25.551  0.00  0.00     0.084 H 
ENDBRANCH  58  61
ENDBRANCH  57  58
ENDBRANCH  55  57
ENDBRANCH  52  55
ENDBRANCH  49  52
ENDBRANCH  47  49
BRANCH  47  72
ATOM     72  C24 non d ame     -33.198   4.988  24.498  0.00  0.00    -0.039 C 
ATOM     73  H35 non d ame     -32.313   4.538  24.047  0.00  0.00     0.036 H 
ATOM     74  H36 non d ame     -33.847   4.389  25.138  0.00  0.00     0.036 H 
BRANCH  72  75
ATOM     75  C25 non d ame     -34.103   5.552  23.303  0.00  0.00    -0.001 C 
ATOM     76  C26 non d ame     -35.692   5.469  23.716  0.00  0.00    -0.035 C 
ATOM     77  C27 non d ame     -36.369   4.843  22.724  0.00  0.00     0.085 C 
ATOM     78  H38 non d ame     -35.822   4.806  24.571  0.00  0.00     0.036 H 
ATOM     79  H39 non d ame     -36.127   6.468  23.730  0.00  0.00     0.036 H 
ATOM     80  N5  non d ame     -35.340   4.202  21.824  0.00  0.00    -0.049 N 
ATOM     81  H40 non d ame     -36.948   4.061  23.215  0.00  0.00     0.075 H 
ATOM     82  H41 non d ame     -36.878   5.634  22.174  0.00  0.00     0.075 H 
ATOM     83  C28 non d ame     -33.925   4.870  22.220  0.00  0.00     0.193 C 
ATOM     84  H42 non d ame     -35.314   3.223  22.071  0.00  0.00     0.280 HD
ATOM     85  H43 non d ame     -35.574   4.479  20.881  0.00  0.00     0.280 HD
ATOM     86  H44 non d ame     -33.472   5.628  21.581  0.00  0.00     0.129 H 
ATOM     87  H37 non d ame     -33.738   6.507  22.924  0.00  0.00     0.046 H 
BRANCH  83  88
ATOM     88  O6  non d ame     -32.929   3.859  22.378  0.00  0.00    -0.369 OA
ATOM     89  H45 non d ame     -33.297   3.006  22.133  0.00  0.00     0.212 HD
ENDBRANCH  83  88
ENDBRANCH  72  75
ENDBRANCH  47  72
ENDBRANCH  45  47
ENDBRANCH   1  43
BRANCH   1  90
ATOM     90  C16 non d ame     -35.458   5.027  28.935  0.00  0.00    -0.035 C 
ATOM     91  H21 non d ame     -35.177   4.316  28.159  0.00  0.00     0.037 H 
ATOM     92  H22 non d ame     -35.640   4.680  29.952  0.00  0.00     0.037 H 
BRANCH  90  93
ATOM     93  C17 non d ame     -36.782   5.703  28.455  0.00  0.00    -0.059 C 
ATOM     94  H23 non d ame     -36.572   6.758  28.283  0.00  0.00     0.038 H 
BRANCH  93  95
ATOM     95  C18 non d ame     -37.300   5.095  27.112  0.00  0.00    -0.073 C 
ATOM     96  H24 non d ame     -38.349   4.821  27.218  0.00  0.00     0.028 H 
ATOM     97  H25 non d ame     -37.197   5.832  26.316  0.00  0.00     0.028 H 
ATOM     98  H26 non d ame     -36.716   4.210  26.865  0.00  0.00     0.028 H 
ENDBRANCH  93  95
BRANCH  93  99
ATOM     99  C19 non d ame     -37.859   5.625  29.540  0.00  0.00    -0.073 C 
ATOM    100  H27 non d ame     -37.685   4.747  30.163  0.00  0.00     0.028 H 
ATOM    101  H28 non d ame     -37.820   6.522  30.158  0.00  0.00     0.028 H 
ATOM    102  H29 non d ame     -38.841   5.550  29.072  0.00  0.00     0.028 H 
ENDBRANCH  93  99
ENDBRANCH  90  93
ENDBRANCH   1  90
TORSDOF 26
ENDMDL
MODEL 20
REMARK VINA RESULT:      -5.7      2.780      7.313
REMARK  26 active torsions:
REMARK  status: ('A' for Active; 'I' for Inactive)
REMARK    1  A    between atoms: C2_2  and  C3_3 
REMARK    2  A    between atoms: C4_6  and  C5_7 
REMARK       I    between atoms: C5_7  and  N2_9 
REMARK    3  A    between atoms: N2_9  and  C6_10 
REMARK    4  A    between atoms: C6_10  and  C7_11 
REMARK    5  A    between atoms: C6_10  and  C8_13 
REMARK       I    between atoms: C7_11  and  N3_14 
REMARK    6  A    between atoms: N3_14  and  C9_15 
REMARK    7  A    between atoms: C9_15  and  C10_16 
REMARK    8  A    between atoms: C9_15  and  C11_18 
REMARK       I    between atoms: C10_16  and  N4_21 
REMARK    9  A    between atoms: C11_18  and  C12_19 
REMARK   10  A    between atoms: C11_18  and  C13_20 
REMARK   11  A    between atoms: N4_21  and  C14_22 
REMARK   12  A    between atoms: C14_22  and  C15_23 
REMARK   13  A    between atoms: C14_22  and  C16_25 
REMARK       I    between atoms: C15_23  and  N6_40 
REMARK   14  A    between atoms: C16_25  and  C17_26 
REMARK   15  A    between atoms: C17_26  and  C18_27 
REMARK   16  A    between atoms: C17_26  and  C19_28 
REMARK   17  A    between atoms: C20_29  and  C21_30 
REMARK   18  A    between atoms: C20_29  and  C24_33 
REMARK   19  A    between atoms: C20_29  and  N6_40 
REMARK   20  A    between atoms: C21_30  and  C22_31 
REMARK   21  A    between atoms: C22_31  and  C23_32 
REMARK   22  A    between atoms: C23_32  and  O8_43 
REMARK   23  A    between atoms: C24_33  and  C25_34 
REMARK   24  A    between atoms: C28_38  and  O6_39 
REMARK   25  A    between atoms: C29_42  and  O8_43 
REMARK   26  A    between atoms: C29_42  and  C35_49 
ROOT
ATOM      1  C14 non d ame     -34.622   6.813  27.362  0.00  0.00     0.089 C 
ATOM      2  H20 non d ame     -34.389   6.393  28.341  0.00  0.00     0.087 H 
ENDROOT
BRANCH   1   3
ATOM      3  N4  non d ame     -35.055   8.187  27.566  0.00  0.00    -0.346 N 
ATOM      4  C10 non d ame     -34.950   8.825  28.928  0.00  0.00     0.241 C 
ATOM      5  O4  non d ame     -34.516   8.211  29.846  0.00  0.00    -0.271 OA
ATOM      6  H19 non d ame     -35.424   8.692  26.772  0.00  0.00     0.163 HD
BRANCH   4   7
ATOM      7  C9  non d ame     -35.398  10.250  29.119  0.00  0.00     0.092 C 
ATOM      8  H11 non d ame     -35.453  10.469  30.186  0.00  0.00     0.088 H 
BRANCH   7   9
ATOM      9  N3  non d ame     -34.403  11.158  28.541  0.00  0.00    -0.346 N 
ATOM     10  C7  non d ame     -33.316  11.647  29.354  0.00  0.00     0.240 C 
ATOM     11  O3  non d ame     -33.229  11.322  30.475  0.00  0.00    -0.271 OA
ATOM     12  H10 non d ame     -34.466  11.448  27.576  0.00  0.00     0.163 HD
BRANCH  10  13
ATOM     13  C6  non d ame     -32.261  12.615  28.734  0.00  0.00     0.086 C 
ATOM     14  H6  non d ame     -32.096  12.435  27.672  0.00  0.00     0.086 H 
BRANCH  13  15
ATOM     15  N2  non d ame     -32.746  13.980  28.853  0.00  0.00    -0.343 N 
ATOM     16  C5  non d ame     -32.691  14.870  27.691  0.00  0.00     0.273 C 
ATOM     17  O2  non d ame     -32.253  14.479  26.666  0.00  0.00    -0.266 OA
ATOM     18  H5  non d ame     -33.117  14.307  29.735  0.00  0.00     0.163 HD
BRANCH  16  19
ATOM     19  C4  non d ame     -33.202  16.315  27.803  0.00  0.00     0.154 A 
ATOM     20  C1  non d ame     -32.550  17.501  27.338  0.00  0.00    -0.017 A 
ATOM     21  C2  non d ame     -33.426  18.555  27.681  0.00  0.00     0.077 A 
ATOM     22  H1  non d ame     -31.590  17.583  26.830  0.00  0.00     0.091 H 
ATOM     23  O1  non d ame     -34.457  18.026  28.272  0.00  0.00    -0.218 OA
ATOM     24  N1  non d ame     -34.349  16.720  28.355  0.00  0.00    -0.123 NA
BRANCH  21  25
ATOM     25  C3  non d ame     -33.203  20.037  27.407  0.00  0.00    -0.029 C 
ATOM     26  H2  non d ame     -34.142  20.575  27.535  0.00  0.00     0.036 H 
ATOM     27  H3  non d ame     -32.463  20.427  28.105  0.00  0.00     0.036 H 
ATOM     28  H4  non d ame     -32.845  20.168  26.387  0.00  0.00     0.036 H 
ENDBRANCH  21  25
ENDBRANCH  16  19
ENDBRANCH  13  15
BRANCH  13  29
ATOM     29  C8  non d ame     -30.950  12.467  29.462  0.00  0.00    -0.049 C 
ATOM     30  H7  non d ame     -30.414  11.602  29.073  0.00  0.00     0.030 H 
ATOM     31  H8  non d ame     -30.348  13.364  29.313  0.00  0.00     0.030 H 
ATOM     32  H9  non d ame     -31.139  12.329  30.527  0.00  0.00     0.030 H 
ENDBRANCH  13  29
ENDBRANCH  10  13
ENDBRANCH   7   9
BRANCH   7  33
ATOM     33  C11 non d ame     -36.766  10.464  28.407  0.00  0.00    -0.033 C 
ATOM     34  H12 non d ame     -36.999   9.549  27.862  0.00  0.00     0.042 H 
BRANCH  33  35
ATOM     35  C12 non d ame     -37.913  10.700  29.439  0.00  0.00    -0.071 C 
ATOM     36  H13 non d ame     -38.589   9.845  29.432  0.00  0.00     0.028 H 
ATOM     37  H14 non d ame     -37.487  10.819  30.435  0.00  0.00     0.028 H 
ATOM     38  H15 non d ame     -38.465  11.600  29.169  0.00  0.00     0.028 H 
ENDBRANCH  33  35
BRANCH  33  39
ATOM     39  C13 non d ame     -36.683  11.634  27.375  0.00  0.00    -0.071 C 
ATOM     40  H16 non d ame     -37.251  12.487  27.746  0.00  0.00     0.028 H 
ATOM     41  H17 non d ame     -35.640  11.924  27.238  0.00  0.00     0.028 H 
ATOM     42  H18 non d ame     -37.097  11.307  26.422  0.00  0.00     0.028 H 
ENDBRANCH  33  39
ENDBRANCH   7  33
ENDBRANCH   4   7
ENDBRANCH   1   3
BRANCH   1  43
ATOM     43  C15 non d ame     -33.386   6.818  26.417  0.00  0.00     0.240 C 
ATOM     44  O5  non d ame     -32.312   6.543  26.847  0.00  0.00    -0.271 OA
ATOM     45  N6  non d ame     -33.542   7.157  24.974  0.00  0.00    -0.355 N 
ATOM     46  H46 non d ame     -34.450   7.387  24.597  0.00  0.00     0.162 HD
BRANCH  45  47
ATOM     47  C20 non d ame     -32.358   7.156  24.089  0.00  0.00     0.013 C 
ATOM     48  H30 non d ame     -31.470   7.230  24.716  0.00  0.00     0.072 H 
BRANCH  47  49
ATOM     49  C21 non d ame     -32.431   8.344  23.155  0.00  0.00    -0.038 C 
ATOM     50  H31 non d ame     -31.746   8.118  22.337  0.00  0.00     0.036 H 
ATOM     51  H32 non d ame     -33.491   8.494  22.954  0.00  0.00     0.036 H 
BRANCH  49  52
ATOM     52  C22 non d ame     -31.920   9.648  23.804  0.00  0.00     0.018 C 
ATOM     53  H33 non d ame     -32.718  10.377  23.670  0.00  0.00     0.048 H 
ATOM     54  H34 non d ame     -31.598   9.372  24.809  0.00  0.00     0.048 H 
BRANCH  52  55
ATOM     55  C23 non d ame     -30.669  10.249  23.104  0.00  0.00     0.259 C 
ATOM     56  O7  non d ame     -30.066   9.615  22.299  0.00  0.00    -0.265 OA
BRANCH  55  57
ATOM     57  O8  non d ame     -30.244  11.563  23.444  0.00  0.00    -0.317 OA
BRANCH  57  58
ATOM     58  C29 non d ame     -29.566  12.247  22.386  0.00  0.00     0.052 C 
ATOM     59  H47 non d ame     -28.517  12.282  22.682  0.00  0.00     0.082 H 
ATOM     60  H48 non d ame     -29.856  11.734  21.469  0.00  0.00     0.082 H 
BRANCH  58  61
ATOM     61  C35 non d ame     -30.110  13.699  22.329  0.00  0.00    -0.034 A 
ATOM     62  C30 non d ame     -29.843  14.500  21.224  0.00  0.00    -0.075 A 
ATOM     63  C31 non d ame     -30.331  15.805  21.173  0.00  0.00    -0.082 A 
ATOM     64  H49 non d ame     -29.251  14.106  20.397  0.00  0.00     0.084 H 
ATOM     65  C32 non d ame     -31.087  16.310  22.235  0.00  0.00    -0.083 A 
ATOM     66  H50 non d ame     -30.121  16.430  20.304  0.00  0.00     0.083 H 
ATOM     67  C33 non d ame     -31.348  15.507  23.337  0.00  0.00    -0.082 A 
ATOM     68  H51 non d ame     -31.473  17.328  22.203  0.00  0.00     0.083 H 
ATOM     69  C34 non d ame     -30.864  14.202  23.391  0.00  0.00    -0.075 A 
ATOM     70  H52 non d ame     -31.936  15.905  24.165  0.00  0.00     0.083 H 
ATOM     71  H53 non d ame     -31.074  13.578  24.261  0.00  0.00     0.084 H 
ENDBRANCH  58  61
ENDBRANCH  57  58
ENDBRANCH  55  57
ENDBRANCH  52  55
ENDBRANCH  49  52
ENDBRANCH  47  49
BRANCH  47  72
ATOM     72  C24 non d ame     -32.325   5.866  23.272  0.00  0.00    -0.039 C 
ATOM     73  H35 non d ame     -31.272   5.694  23.045  0.00  0.00     0.036 H 
ATOM     74  H36 non d ame     -32.882   5.137  23.859  0.00  0.00     0.036 H 
BRANCH  72  75
ATOM     75  C25 non d ame     -33.088   6.031  21.873  0.00  0.00    -0.001 C 
ATOM     76  C26 non d ame     -34.413   5.058  21.841  0.00  0.00    -0.035 C 
ATOM     77  C27 non d ame     -34.385   4.320  20.705  0.00  0.00     0.085 C 
ATOM     78  H38 non d ame     -34.348   4.311  22.631  0.00  0.00     0.036 H 
ATOM     79  H39 non d ame     -35.316   5.659  21.732  0.00  0.00     0.036 H 
ATOM     80  N5  non d ame     -33.001   4.462  20.120  0.00  0.00    -0.049 N 
ATOM     81  H40 non d ame     -34.532   3.288  21.024  0.00  0.00     0.075 H 
ATOM     82  H41 non d ame     -35.104   4.791  20.034  0.00  0.00     0.075 H 
ATOM     83  C28 non d ame     -32.323   5.714  20.882  0.00  0.00     0.193 C 
ATOM     84  H42 non d ame     -32.497   3.623  20.370  0.00  0.00     0.280 HD
ATOM     85  H43 non d ame     -33.125   4.706  19.148  0.00  0.00     0.280 HD
ATOM     86  H44 non d ame     -32.231   6.680  20.386  0.00  0.00     0.129 H 
ATOM     87  H37 non d ame     -33.235   7.077  21.603  0.00  0.00     0.046 H 
BRANCH  83  88
ATOM     88  O6  non d ame     -31.002   5.375  21.308  0.00  0.00    -0.369 OA
ATOM     89  H45 non d ame     -30.562   6.161  21.642  0.00  0.00     0.212 HD
ENDBRANCH  83  88
ENDBRANCH  72  75
ENDBRANCH  47  72
ENDBRANCH  45  47
ENDBRANCH   1  43
BRANCH   1  90
ATOM     90  C16 non d ame     -35.753   6.026  26.720  0.00  0.00    -0.035 C 
ATOM     91  H21 non d ame     -35.407   5.793  25.713  0.00  0.00     0.037 H 
ATOM     92  H22 non d ame     -35.977   5.220  27.419  0.00  0.00     0.037 H 
BRANCH  90  93
ATOM     93  C17 non d ame     -37.071   6.846  26.554  0.00  0.00    -0.059 C 
ATOM     94  H23 non d ame     -36.943   7.789  27.085  0.00  0.00     0.038 H 
BRANCH  93  95
ATOM     95  C18 non d ame     -37.374   7.179  25.057  0.00  0.00    -0.073 C 
ATOM     96  H24 non d ame     -38.401   6.902  24.824  0.00  0.00     0.028 H 
ATOM     97  H25 non d ame     -37.239   8.247  24.888  0.00  0.00     0.028 H 
ATOM     98  H26 non d ame     -36.692   6.621  24.416  0.00  0.00     0.028 H 
ENDBRANCH  93  95
BRANCH  93  99
ATOM     99  C19 non d ame     -38.253   6.118  27.199  0.00  0.00    -0.073 C 
ATOM    100  H27 non d ame     -38.834   6.824  27.793  0.00  0.00     0.028 H 
ATOM    101  H28 non d ame     -38.886   5.691  26.421  0.00  0.00     0.028 H 
ATOM    102  H29 non d ame     -37.881   5.321  27.842  0.00  0.00     0.028 H 
ENDBRANCH  93  99
ENDBRANCH  90  93
ENDBRANCH   1  90
TORSDOF 26
ENDMDL
