MODEL 1
REMARK VINA RESULT:      -7.3      0.000      0.000
REMARK  26 active torsions:
REMARK  status: ('A' for Active; 'I' for Inactive)
REMARK    1  A    between atoms: C2_2  and  C3_3 
REMARK    2  A    between atoms: C4_6  and  C5_7 
REMARK       I    between atoms: C5_7  and  N2_9 
REMARK    3  A    between atoms: N2_9  and  C6_10 
REMARK    4  A    between atoms: C6_10  and  C7_11 
REMARK    5  A    between atoms: C6_10  and  C8_13 
REMARK       I    between atoms: C7_11  and  N3_14 
REMARK    6  A    between atoms: N3_14  and  C9_15 
REMARK    7  A    between atoms: C9_15  and  C10_16 
REMARK    8  A    between atoms: C9_15  and  C11_18 
REMARK       I    between atoms: C10_16  and  N4_21 
REMARK    9  A    between atoms: C11_18  and  C12_19 
REMARK   10  A    between atoms: C11_18  and  C13_20 
REMARK   11  A    between atoms: N4_21  and  C14_22 
REMARK   12  A    between atoms: C14_22  and  C15_23 
REMARK   13  A    between atoms: C14_22  and  C16_25 
REMARK       I    between atoms: C15_23  and  N6_40 
REMARK   14  A    between atoms: C16_25  and  C17_26 
REMARK   15  A    between atoms: C17_26  and  C18_27 
REMARK   16  A    between atoms: C17_26  and  C19_28 
REMARK   17  A    between atoms: C20_29  and  C21_30 
REMARK   18  A    between atoms: C20_29  and  C24_33 
REMARK   19  A    between atoms: C20_29  and  N6_40 
REMARK   20  A    between atoms: C21_30  and  C22_31 
REMARK   21  A    between atoms: C22_31  and  C23_32 
REMARK   22  A    between atoms: C23_32  and  O8_43 
REMARK   23  A    between atoms: C24_33  and  C25_34 
REMARK   24  A    between atoms: C28_38  and  O6_39 
REMARK   25  A    between atoms: C29_42  and  O8_43 
REMARK   26  A    between atoms: C29_42  and  C35_49 
ROOT
ATOM      1  C14 non d ame     -30.728  14.167  23.975  0.00  0.00     0.089 C 
ATOM      2  H20 non d ame     -29.655  13.976  23.955  0.00  0.00     0.087 H 
ENDROOT
BRANCH   1   3
ATOM      3  N4  non d ame     -31.393  12.904  24.261  0.00  0.00    -0.346 N 
ATOM      4  C10 non d ame     -30.876  11.619  23.663  0.00  0.00     0.241 C 
ATOM      5  O4  non d ame     -29.925  11.628  22.953  0.00  0.00    -0.271 OA
ATOM      6  H19 non d ame     -32.202  12.918  24.866  0.00  0.00     0.163 HD
BRANCH   4   7
ATOM      7  C9  non d ame     -31.572  10.320  23.974  0.00  0.00     0.092 C 
ATOM      8  H11 non d ame     -31.033   9.806  24.769  0.00  0.00     0.088 H 
BRANCH   7   9
ATOM      9  N3  non d ame     -32.922  10.597  24.474  0.00  0.00    -0.346 N 
ATOM     10  C7  non d ame     -33.189  10.551  25.891  0.00  0.00     0.240 C 
ATOM     11  O3  non d ame     -32.329  10.293  26.642  0.00  0.00    -0.271 OA
ATOM     12  H10 non d ame     -33.674  10.819  23.838  0.00  0.00     0.163 HD
BRANCH  10  13
ATOM     13  C6  non d ame     -34.629  10.843  26.417  0.00  0.00     0.086 C 
ATOM     14  H6  non d ame     -35.378  10.828  25.626  0.00  0.00     0.086 H 
BRANCH  13  15
ATOM     15  N2  non d ame     -35.003   9.807  27.365  0.00  0.00    -0.343 N 
ATOM     16  C5  non d ame     -35.399   8.487  26.871  0.00  0.00     0.273 C 
ATOM     17  O2  non d ame     -35.415   8.269  25.709  0.00  0.00    -0.266 OA
ATOM     18  H5  non d ame     -34.989  10.003  28.356  0.00  0.00     0.163 HD
BRANCH  16  19
ATOM     19  C4  non d ame     -35.796   7.381  27.862  0.00  0.00     0.154 A 
ATOM     20  C1  non d ame     -36.969   7.334  28.680  0.00  0.00    -0.017 A 
ATOM     21  C2  non d ame     -36.862   6.123  29.400  0.00  0.00     0.077 A 
ATOM     22  H1  non d ame     -37.776   8.065  28.741  0.00  0.00     0.091 H 
ATOM     23  O1  non d ame     -35.754   5.550  29.031  0.00  0.00    -0.218 OA
ATOM     24  N1  non d ame     -35.114   6.265  28.135  0.00  0.00    -0.123 NA
BRANCH  21  25
ATOM     25  C3  non d ame     -37.859   5.589  30.420  0.00  0.00    -0.029 C 
ATOM     26  H2  non d ame     -37.992   6.321  31.216  0.00  0.00     0.036 H 
ATOM     27  H3  non d ame     -38.816   5.407  29.930  0.00  0.00     0.036 H 
ATOM     28  H4  non d ame     -37.484   4.657  30.841  0.00  0.00     0.036 H 
ENDBRANCH  21  25
ENDBRANCH  16  19
ENDBRANCH  13  15
BRANCH  13  29
ATOM     29  C8  non d ame     -34.657  12.193  27.089  0.00  0.00    -0.049 C 
ATOM     30  H7  non d ame     -35.633  12.349  27.548  0.00  0.00     0.030 H 
ATOM     31  H8  non d ame     -33.884  12.233  27.855  0.00  0.00     0.030 H 
ATOM     32  H9  non d ame     -34.475  12.972  26.348  0.00  0.00     0.030 H 
ENDBRANCH  13  29
ENDBRANCH  10  13
ENDBRANCH   7   9
BRANCH   7  33
ATOM     33  C11 non d ame     -31.668   9.460  22.680  0.00  0.00    -0.033 C 
ATOM     34  H12 non d ame     -31.528  10.129  21.830  0.00  0.00     0.042 H 
BRANCH  33  35
ATOM     35  C12 non d ame     -30.535   8.389  22.625  0.00  0.00    -0.071 C 
ATOM     36  H13 non d ame     -30.006   8.467  21.675  0.00  0.00     0.028 H 
ATOM     37  H14 non d ame     -29.836   8.556  23.444  0.00  0.00     0.028 H 
ATOM     38  H15 non d ame     -30.971   7.394  22.716  0.00  0.00     0.028 H 
ENDBRANCH  33  35
BRANCH  33  39
ATOM     39  C13 non d ame     -33.078   8.801  22.549  0.00  0.00    -0.071 C 
ATOM     40  H16 non d ame     -33.034   7.774  22.913  0.00  0.00     0.028 H 
ATOM     41  H17 non d ame     -33.800   9.366  23.140  0.00  0.00     0.028 H 
ATOM     42  H18 non d ame     -33.385   8.804  21.503  0.00  0.00     0.028 H 
ENDBRANCH  33  39
ENDBRANCH   7  33
ENDBRANCH   4   7
ENDBRANCH   1   3
BRANCH   1  43
ATOM     43  C15 non d ame     -31.122  15.193  25.076  0.00  0.00     0.240 C 
ATOM     44  O5  non d ame     -30.780  16.327  24.976  0.00  0.00    -0.271 OA
ATOM     45  N6  non d ame     -31.933  14.764  26.251  0.00  0.00    -0.355 N 
ATOM     46  H46 non d ame     -32.234  13.805  26.344  0.00  0.00     0.162 HD
BRANCH  45  47
ATOM     47  C20 non d ame     -32.301  15.752  27.288  0.00  0.00     0.013 C 
ATOM     48  H30 non d ame     -31.429  16.378  27.479  0.00  0.00     0.072 H 
BRANCH  47  49
ATOM     49  C21 non d ame     -32.702  15.025  28.551  0.00  0.00    -0.038 C 
ATOM     50  H31 non d ame     -33.142  15.782  29.200  0.00  0.00     0.036 H 
ATOM     51  H32 non d ame     -33.298  14.174  28.224  0.00  0.00     0.036 H 
BRANCH  49  52
ATOM     52  C22 non d ame     -31.493  14.443  29.317  0.00  0.00     0.018 C 
ATOM     53  H33 non d ame     -30.617  14.695  28.721  0.00  0.00     0.048 H 
ATOM     54  H34 non d ame     -31.584  14.815  30.338  0.00  0.00     0.048 H 
BRANCH  52  55
ATOM     55  C23 non d ame     -31.507  12.893  29.423  0.00  0.00     0.259 C 
ATOM     56  O7  non d ame     -30.731  12.239  28.806  0.00  0.00    -0.265 OA
BRANCH  55  57
ATOM     57  O8  non d ame     -32.469  12.261  30.260  0.00  0.00    -0.317 OA
BRANCH  57  58
ATOM     58  C29 non d ame     -32.615  10.858  30.021  0.00  0.00     0.052 C 
ATOM     59  H47 non d ame     -32.959  10.768  28.991  0.00  0.00     0.082 H 
ATOM     60  H48 non d ame     -31.669  10.407  30.321  0.00  0.00     0.082 H 
BRANCH  58  61
ATOM     61  C35 non d ame     -33.731  10.326  30.960  0.00  0.00    -0.034 A 
ATOM     62  C30 non d ame     -34.216   9.032  30.803  0.00  0.00    -0.075 A 
ATOM     63  C31 non d ame     -35.218   8.555  31.646  0.00  0.00    -0.082 A 
ATOM     64  H49 non d ame     -33.811   8.392  30.019  0.00  0.00     0.084 H 
ATOM     65  C32 non d ame     -35.738   9.378  32.648  0.00  0.00    -0.083 A 
ATOM     66  H50 non d ame     -35.595   7.539  31.521  0.00  0.00     0.083 H 
ATOM     67  C33 non d ame     -35.254  10.670  32.799  0.00  0.00    -0.082 A 
ATOM     68  H51 non d ame     -36.522   9.013  33.312  0.00  0.00     0.083 H 
ATOM     69  C34 non d ame     -34.250  11.151  31.960  0.00  0.00    -0.075 A 
ATOM     70  H52 non d ame     -35.663  11.311  33.581  0.00  0.00     0.083 H 
ATOM     71  H53 non d ame     -33.874  12.166  32.086  0.00  0.00     0.084 H 
ENDBRANCH  58  61
ENDBRANCH  57  58
ENDBRANCH  55  57
ENDBRANCH  52  55
ENDBRANCH  49  52
ENDBRANCH  47  49
BRANCH  47  72
ATOM     72  C24 non d ame     -33.469  16.605  26.798  0.00  0.00    -0.039 C 
ATOM     73  H35 non d ame     -33.167  16.975  25.818  0.00  0.00     0.036 H 
ATOM     74  H36 non d ame     -34.351  15.972  26.893  0.00  0.00     0.036 H 
BRANCH  72  75
ATOM     75  C25 non d ame     -33.702  17.884  27.734  0.00  0.00    -0.001 C 
ATOM     76  C26 non d ame     -35.313  18.186  27.878  0.00  0.00    -0.035 C 
ATOM     77  C27 non d ame     -35.540  19.489  27.585  0.00  0.00     0.085 C 
ATOM     78  H38 non d ame     -35.864  17.651  27.105  0.00  0.00     0.036 H 
ATOM     79  H39 non d ame     -35.617  18.102  28.922  0.00  0.00     0.036 H 
ATOM     80  N5  non d ame     -34.285  20.022  26.939  0.00  0.00    -0.049 N 
ATOM     81  H40 non d ame     -36.345  19.485  26.850  0.00  0.00     0.075 H 
ATOM     82  H41 non d ame     -35.682  19.982  28.546  0.00  0.00     0.075 H 
ATOM     83  C28 non d ame     -33.132  18.933  27.243  0.00  0.00     0.193 C 
ATOM     84  H42 non d ame     -34.459  20.037  25.944  0.00  0.00     0.280 HD
ATOM     85  H43 non d ame     -34.055  20.878  27.424  0.00  0.00     0.280 HD
ATOM     86  H44 non d ame     -32.377  19.124  28.006  0.00  0.00     0.129 H 
ATOM     87  H37 non d ame     -33.123  17.832  28.656  0.00  0.00     0.046 H 
BRANCH  83  88
ATOM     88  O6  non d ame     -32.402  18.642  26.050  0.00  0.00    -0.369 OA
ATOM     89  H45 non d ame     -32.696  19.223  25.344  0.00  0.00     0.212 HD
ENDBRANCH  83  88
ENDBRANCH  72  75
ENDBRANCH  47  72
ENDBRANCH  45  47
ENDBRANCH   1  43
BRANCH   1  90
ATOM     90  C16 non d ame     -31.187  14.673  22.617  0.00  0.00    -0.035 C 
ATOM     91  H21 non d ame     -31.864  13.908  22.238  0.00  0.00     0.037 H 
ATOM     92  H22 non d ame     -31.552  15.684  22.794  0.00  0.00     0.037 H 
BRANCH  90  93
ATOM     93  C17 non d ame     -30.033  14.796  21.572  0.00  0.00    -0.059 C 
ATOM     94  H23 non d ame     -29.924  13.828  21.083  0.00  0.00     0.038 H 
BRANCH  93  95
ATOM     95  C18 non d ame     -30.349  15.855  20.468  0.00  0.00    -0.073 C 
ATOM     96  H24 non d ame     -30.931  15.389  19.673  0.00  0.00     0.028 H 
ATOM     97  H25 non d ame     -30.920  16.675  20.902  0.00  0.00     0.028 H 
ATOM     98  H26 non d ame     -29.416  16.240  20.056  0.00  0.00     0.028 H 
ENDBRANCH  93  95
BRANCH  93  99
ATOM     99  C19 non d ame     -28.702  15.109  22.262  0.00  0.00    -0.073 C 
ATOM    100  H27 non d ame     -28.727  14.736  23.286  0.00  0.00     0.028 H 
ATOM    101  H28 non d ame     -27.889  14.626  21.719  0.00  0.00     0.028 H 
ATOM    102  H29 non d ame     -28.542  16.187  22.271  0.00  0.00     0.028 H 
ENDBRANCH  93  99
ENDBRANCH  90  93
ENDBRANCH   1  90
TORSDOF 26
ENDMDL
MODEL 2
REMARK VINA RESULT:      -6.9      2.697      7.202
REMARK  26 active torsions:
REMARK  status: ('A' for Active; 'I' for Inactive)
REMARK    1  A    between atoms: C2_2  and  C3_3 
REMARK    2  A    between atoms: C4_6  and  C5_7 
REMARK       I    between atoms: C5_7  and  N2_9 
REMARK    3  A    between atoms: N2_9  and  C6_10 
REMARK    4  A    between atoms: C6_10  and  C7_11 
REMARK    5  A    between atoms: C6_10  and  C8_13 
REMARK       I    between atoms: C7_11  and  N3_14 
REMARK    6  A    between atoms: N3_14  and  C9_15 
REMARK    7  A    between atoms: C9_15  and  C10_16 
REMARK    8  A    between atoms: C9_15  and  C11_18 
REMARK       I    between atoms: C10_16  and  N4_21 
REMARK    9  A    between atoms: C11_18  and  C12_19 
REMARK   10  A    between atoms: C11_18  and  C13_20 
REMARK   11  A    between atoms: N4_21  and  C14_22 
REMARK   12  A    between atoms: C14_22  and  C15_23 
REMARK   13  A    between atoms: C14_22  and  C16_25 
REMARK       I    between atoms: C15_23  and  N6_40 
REMARK   14  A    between atoms: C16_25  and  C17_26 
REMARK   15  A    between atoms: C17_26  and  C18_27 
REMARK   16  A    between atoms: C17_26  and  C19_28 
REMARK   17  A    between atoms: C20_29  and  C21_30 
REMARK   18  A    between atoms: C20_29  and  C24_33 
REMARK   19  A    between atoms: C20_29  and  N6_40 
REMARK   20  A    between atoms: C21_30  and  C22_31 
REMARK   21  A    between atoms: C22_31  and  C23_32 
REMARK   22  A    between atoms: C23_32  and  O8_43 
REMARK   23  A    between atoms: C24_33  and  C25_34 
REMARK   24  A    between atoms: C28_38  and  O6_39 
REMARK   25  A    between atoms: C29_42  and  O8_43 
REMARK   26  A    between atoms: C29_42  and  C35_49 
ROOT
ATOM      1  C14 non d ame     -33.307  10.046  25.092  0.00  0.00     0.089 C 
ATOM      2  H20 non d ame     -33.802   9.091  24.912  0.00  0.00     0.087 H 
ENDROOT
BRANCH   1   3
ATOM      3  N4  non d ame     -34.309  11.092  24.952  0.00  0.00    -0.346 N 
ATOM      4  C10 non d ame     -35.764  10.793  25.214  0.00  0.00     0.241 C 
ATOM      5  O4  non d ame     -36.105   9.702  25.533  0.00  0.00    -0.271 OA
ATOM      6  H19 non d ame     -33.999  12.013  24.677  0.00  0.00     0.163 HD
BRANCH   4   7
ATOM      7  C9  non d ame     -36.787  11.890  25.069  0.00  0.00     0.092 C 
ATOM      8  H11 non d ame     -37.322  12.007  26.012  0.00  0.00     0.088 H 
BRANCH   7   9
ATOM      9  N3  non d ame     -36.107  13.159  24.795  0.00  0.00    -0.346 N 
ATOM     10  C7  non d ame     -36.058  14.184  25.810  0.00  0.00     0.240 C 
ATOM     11  O3  non d ame     -36.561  14.003  26.851  0.00  0.00    -0.271 OA
ATOM     12  H10 non d ame     -35.670  13.330  23.901  0.00  0.00     0.163 HD
BRANCH  10  13
ATOM     13  C6  non d ame     -35.336  15.534  25.511  0.00  0.00     0.086 C 
ATOM     14  H6  non d ame     -34.874  15.970  26.396  0.00  0.00     0.086 H 
BRANCH  13  15
ATOM     15  N2  non d ame     -34.266  15.296  24.557  0.00  0.00    -0.343 N 
ATOM     16  C5  non d ame     -32.904  15.730  24.878  0.00  0.00     0.273 C 
ATOM     17  O2  non d ame     -32.681  16.272  25.904  0.00  0.00    -0.266 OA
ATOM     18  H5  non d ame     -34.466  14.834  23.681  0.00  0.00     0.163 HD
BRANCH  16  19
ATOM     19  C4  non d ame     -31.762  15.483  23.879  0.00  0.00     0.154 A 
ATOM     20  C1  non d ame     -30.359  15.454  24.160  0.00  0.00    -0.017 A 
ATOM     21  C2  non d ame     -29.745  15.192  22.915  0.00  0.00     0.077 A 
ATOM     22  H1  non d ame     -29.863  15.602  25.119  0.00  0.00     0.091 H 
ATOM     23  O1  non d ame     -30.693  15.082  22.031  0.00  0.00    -0.218 OA
ATOM     24  N1  non d ame     -31.879  15.248  22.569  0.00  0.00    -0.123 NA
BRANCH  21  25
ATOM     25  C3  non d ame     -28.250  15.060  22.658  0.00  0.00    -0.029 C 
ATOM     26  H2  non d ame     -28.037  14.073  22.250  0.00  0.00     0.036 H 
ATOM     27  H3  non d ame     -27.936  15.822  21.945  0.00  0.00     0.036 H 
ATOM     28  H4  non d ame     -27.707  15.192  23.593  0.00  0.00     0.036 H 
ENDBRANCH  21  25
ENDBRANCH  16  19
ENDBRANCH  13  15
BRANCH  13  29
ATOM     29  C8  non d ame     -36.324  16.521  24.942  0.00  0.00    -0.049 C 
ATOM     30  H7  non d ame     -36.289  16.483  23.854  0.00  0.00     0.030 H 
ATOM     31  H8  non d ame     -37.328  16.266  25.282  0.00  0.00     0.030 H 
ATOM     32  H9  non d ame     -36.070  17.526  25.280  0.00  0.00     0.030 H 
ENDBRANCH  13  29
ENDBRANCH  10  13
ENDBRANCH   7   9
BRANCH   7  33
ATOM     33  C11 non d ame     -37.745  11.552  23.890  0.00  0.00    -0.033 C 
ATOM     34  H12 non d ame     -37.310  10.717  23.341  0.00  0.00     0.042 H 
BRANCH  33  35
ATOM     35  C12 non d ame     -39.145  11.096  24.408  0.00  0.00    -0.071 C 
ATOM     36  H13 non d ame     -39.639  10.498  23.641  0.00  0.00     0.028 H 
ATOM     37  H14 non d ame     -39.021  10.499  25.310  0.00  0.00     0.028 H 
ATOM     38  H15 non d ame     -39.753  11.972  24.632  0.00  0.00     0.028 H 
ENDBRANCH  33  35
BRANCH  33  39
ATOM     39  C13 non d ame     -37.871  12.762  22.908  0.00  0.00    -0.071 C 
ATOM     40  H16 non d ame     -37.135  12.660  22.110  0.00  0.00     0.028 H 
ATOM     41  H17 non d ame     -38.874  12.778  22.479  0.00  0.00     0.028 H 
ATOM     42  H18 non d ame     -37.694  13.690  23.451  0.00  0.00     0.028 H 
ENDBRANCH  33  39
ENDBRANCH   7  33
ENDBRANCH   4   7
ENDBRANCH   1   3
BRANCH   1  43
ATOM     43  C15 non d ame     -32.699  10.131  26.522  0.00  0.00     0.240 C 
ATOM     44  O5  non d ame     -31.519  10.166  26.661  0.00  0.00    -0.271 OA
ATOM     45  N6  non d ame     -33.588  10.177  27.717  0.00  0.00    -0.355 N 
ATOM     46  H46 non d ame     -34.592  10.152  27.612  0.00  0.00     0.162 HD
BRANCH  45  47
ATOM     47  C20 non d ame     -32.994  10.259  29.069  0.00  0.00     0.013 C 
ATOM     48  H30 non d ame     -31.955   9.937  29.000  0.00  0.00     0.072 H 
BRANCH  47  49
ATOM     49  C21 non d ame     -33.756   9.348  30.006  0.00  0.00    -0.038 C 
ATOM     50  H31 non d ame     -33.634   8.342  29.602  0.00  0.00     0.036 H 
ATOM     51  H32 non d ame     -33.390   9.582  31.006  0.00  0.00     0.036 H 
BRANCH  49  52
ATOM     52  C22 non d ame     -35.273   9.633  30.017  0.00  0.00     0.018 C 
ATOM     53  H33 non d ame     -35.379  10.655  30.378  0.00  0.00     0.048 H 
ATOM     54  H34 non d ame     -35.631   9.367  29.022  0.00  0.00     0.048 H 
BRANCH  52  55
ATOM     55  C23 non d ame     -36.070   8.743  31.011  0.00  0.00     0.259 C 
ATOM     56  O7  non d ame     -37.114   9.110  31.445  0.00  0.00    -0.265 OA
BRANCH  55  57
ATOM     57  O8  non d ame     -35.532   7.488  31.408  0.00  0.00    -0.317 OA
BRANCH  57  58
ATOM     58  C29 non d ame     -35.910   6.398  30.562  0.00  0.00     0.052 C 
ATOM     59  H47 non d ame     -36.727   5.894  31.078  0.00  0.00     0.082 H 
ATOM     60  H48 non d ame     -36.074   6.833  29.576  0.00  0.00     0.082 H 
BRANCH  58  61
ATOM     61  C35 non d ame     -34.707   5.422  30.473  0.00  0.00    -0.034 A 
ATOM     62  C30 non d ame     -34.167   4.875  31.633  0.00  0.00    -0.075 A 
ATOM     63  C31 non d ame     -33.086   3.998  31.554  0.00  0.00    -0.082 A 
ATOM     64  H49 non d ame     -34.589   5.134  32.604  0.00  0.00     0.084 H 
ATOM     65  C32 non d ame     -32.544   3.669  30.308  0.00  0.00    -0.083 A 
ATOM     66  H50 non d ame     -32.666   3.569  32.464  0.00  0.00     0.083 H 
ATOM     67  C33 non d ame     -33.084   4.220  29.154  0.00  0.00    -0.082 A 
ATOM     68  H51 non d ame     -31.699   2.984  30.237  0.00  0.00     0.083 H 
ATOM     69  C34 non d ame     -34.165   5.095  29.228  0.00  0.00    -0.075 A 
ATOM     70  H52 non d ame     -32.657   3.964  28.184  0.00  0.00     0.083 H 
ATOM     71  H53 non d ame     -34.585   5.523  28.317  0.00  0.00     0.084 H 
ENDBRANCH  58  61
ENDBRANCH  57  58
ENDBRANCH  55  57
ENDBRANCH  52  55
ENDBRANCH  49  52
ENDBRANCH  47  49
BRANCH  47  72
ATOM     72  C24 non d ame     -33.072  11.696  29.581  0.00  0.00    -0.039 C 
ATOM     73  H35 non d ame     -34.044  12.068  29.256  0.00  0.00     0.036 H 
ATOM     74  H36 non d ame     -32.838  11.638  30.644  0.00  0.00     0.036 H 
BRANCH  72  75
ATOM     75  C25 non d ame     -31.958  12.627  28.903  0.00  0.00    -0.001 C 
ATOM     76  C26 non d ame     -31.086  13.395  30.066  0.00  0.00    -0.035 C 
ATOM     77  C27 non d ame     -31.065  14.721  29.792  0.00  0.00     0.085 C 
ATOM     78  H38 non d ame     -31.608  13.341  31.021  0.00  0.00     0.036 H 
ATOM     79  H39 non d ame     -30.037  13.104  30.000  0.00  0.00     0.036 H 
ATOM     80  N5  non d ame     -32.112  14.970  28.733  0.00  0.00    -0.049 N 
ATOM     81  H40 non d ame     -31.367  15.214  30.715  0.00  0.00     0.075 H 
ATOM     82  H41 non d ame     -30.079  14.915  29.368  0.00  0.00     0.075 H 
ATOM     83  C28 non d ame     -32.497  13.519  28.140  0.00  0.00     0.193 C 
ATOM     84  H42 non d ame     -32.918  15.346  29.212  0.00  0.00     0.280 HD
ATOM     85  H43 non d ame     -31.661  15.506  28.006  0.00  0.00     0.280 HD
ATOM     86  H44 non d ame     -32.120  13.201  27.167  0.00  0.00     0.129 H 
ATOM     87  H37 non d ame     -31.399  12.104  28.127  0.00  0.00     0.046 H 
BRANCH  83  88
ATOM     88  O6  non d ame     -33.916  13.378  28.064  0.00  0.00    -0.369 OA
ATOM     89  H45 non d ame     -34.135  12.487  27.781  0.00  0.00     0.212 HD
ENDBRANCH  83  88
ENDBRANCH  72  75
ENDBRANCH  47  72
ENDBRANCH  45  47
ENDBRANCH   1  43
BRANCH   1  90
ATOM     90  C16 non d ame     -32.214  10.264  24.058  0.00  0.00    -0.035 C 
ATOM     91  H21 non d ame     -32.620  10.995  23.359  0.00  0.00     0.037 H 
ATOM     92  H22 non d ame     -31.317  10.497  24.631  0.00  0.00     0.037 H 
BRANCH  90  93
ATOM     93  C17 non d ame     -31.883   8.989  23.219  0.00  0.00    -0.059 C 
ATOM     94  H23 non d ame     -31.757   8.159  23.913  0.00  0.00     0.038 H 
BRANCH  93  95
ATOM     95  C18 non d ame     -33.037   8.615  22.234  0.00  0.00    -0.073 C 
ATOM     96  H24 non d ame     -33.994   8.904  22.669  0.00  0.00     0.028 H 
ATOM     97  H25 non d ame     -32.895   9.142  21.290  0.00  0.00     0.028 H 
ATOM     98  H26 non d ame     -33.028   7.541  22.055  0.00  0.00     0.028 H 
ENDBRANCH  93  95
BRANCH  93  99
ATOM     99  C19 non d ame     -30.560   9.158  22.468  0.00  0.00    -0.073 C 
ATOM    100  H27 non d ame     -30.010   8.216  22.484  0.00  0.00     0.028 H 
ATOM    101  H28 non d ame     -30.761   9.443  21.435  0.00  0.00     0.028 H 
ATOM    102  H29 non d ame     -29.965   9.934  22.949  0.00  0.00     0.028 H 
ENDBRANCH  93  99
ENDBRANCH  90  93
ENDBRANCH   1  90
TORSDOF 26
ENDMDL
MODEL 3
REMARK VINA RESULT:      -6.8      2.686      9.243
REMARK  26 active torsions:
REMARK  status: ('A' for Active; 'I' for Inactive)
REMARK    1  A    between atoms: C2_2  and  C3_3 
REMARK    2  A    between atoms: C4_6  and  C5_7 
REMARK       I    between atoms: C5_7  and  N2_9 
REMARK    3  A    between atoms: N2_9  and  C6_10 
REMARK    4  A    between atoms: C6_10  and  C7_11 
REMARK    5  A    between atoms: C6_10  and  C8_13 
REMARK       I    between atoms: C7_11  and  N3_14 
REMARK    6  A    between atoms: N3_14  and  C9_15 
REMARK    7  A    between atoms: C9_15  and  C10_16 
REMARK    8  A    between atoms: C9_15  and  C11_18 
REMARK       I    between atoms: C10_16  and  N4_21 
REMARK    9  A    between atoms: C11_18  and  C12_19 
REMARK   10  A    between atoms: C11_18  and  C13_20 
REMARK   11  A    between atoms: N4_21  and  C14_22 
REMARK   12  A    between atoms: C14_22  and  C15_23 
REMARK   13  A    between atoms: C14_22  and  C16_25 
REMARK       I    between atoms: C15_23  and  N6_40 
REMARK   14  A    between atoms: C16_25  and  C17_26 
REMARK   15  A    between atoms: C17_26  and  C18_27 
REMARK   16  A    between atoms: C17_26  and  C19_28 
REMARK   17  A    between atoms: C20_29  and  C21_30 
REMARK   18  A    between atoms: C20_29  and  C24_33 
REMARK   19  A    between atoms: C20_29  and  N6_40 
REMARK   20  A    between atoms: C21_30  and  C22_31 
REMARK   21  A    between atoms: C22_31  and  C23_32 
REMARK   22  A    between atoms: C23_32  and  O8_43 
REMARK   23  A    between atoms: C24_33  and  C25_34 
REMARK   24  A    between atoms: C28_38  and  O6_39 
REMARK   25  A    between atoms: C29_42  and  O8_43 
REMARK   26  A    between atoms: C29_42  and  C35_49 
ROOT
ATOM      1  C14 non d ame     -36.147  10.247  31.412  0.00  0.00     0.089 C 
ATOM      2  H20 non d ame     -36.786  10.853  32.055  0.00  0.00     0.087 H 
ENDROOT
BRANCH   1   3
ATOM      3  N4  non d ame     -36.683  10.327  30.061  0.00  0.00    -0.346 N 
ATOM      4  C10 non d ame     -38.060  10.892  29.820  0.00  0.00     0.241 C 
ATOM      5  O4  non d ame     -38.720  11.273  30.730  0.00  0.00    -0.271 OA
ATOM      6  H19 non d ame     -36.106   9.994  29.301  0.00  0.00     0.163 HD
BRANCH   4   7
ATOM      7  C9  non d ame     -38.597  10.972  28.415  0.00  0.00     0.092 C 
ATOM      8  H11 non d ame     -39.372  11.737  28.370  0.00  0.00     0.088 H 
BRANCH   7   9
ATOM      9  N3  non d ame     -37.525  11.387  27.505  0.00  0.00    -0.346 N 
ATOM     10  C7  non d ame     -37.608  12.656  26.826  0.00  0.00     0.240 C 
ATOM     11  O3  non d ame     -38.531  13.355  26.998  0.00  0.00    -0.271 OA
ATOM     12  H10 non d ame     -36.723  10.793  27.345  0.00  0.00     0.163 HD
BRANCH  10  13
ATOM     13  C6  non d ame     -36.465  13.091  25.856  0.00  0.00     0.086 C 
ATOM     14  H6  non d ame     -36.841  13.544  24.938  0.00  0.00     0.086 H 
BRANCH  13  15
ATOM     15  N2  non d ame     -35.648  14.098  26.512  0.00  0.00    -0.343 N 
ATOM     16  C5  non d ame     -35.884  15.515  26.230  0.00  0.00     0.273 C 
ATOM     17  O2  non d ame     -36.732  15.835  25.471  0.00  0.00    -0.266 OA
ATOM     18  H5  non d ame     -34.923  13.815  27.157  0.00  0.00     0.163 HD
BRANCH  16  19
ATOM     19  C4  non d ame     -35.028  16.590  26.918  0.00  0.00     0.154 A 
ATOM     20  C1  non d ame     -34.074  17.461  26.302  0.00  0.00    -0.017 A 
ATOM     21  C2  non d ame     -33.568  18.251  27.358  0.00  0.00     0.077 A 
ATOM     22  H1  non d ame     -33.793  17.512  25.250  0.00  0.00     0.091 H 
ATOM     23  O1  non d ame     -34.168  17.872  28.448  0.00  0.00    -0.218 OA
ATOM     24  N1  non d ame     -35.025  16.903  28.216  0.00  0.00    -0.123 NA
BRANCH  21  25
ATOM     25  C3  non d ame     -32.516  19.346  27.241  0.00  0.00    -0.029 C 
ATOM     26  H2  non d ame     -32.032  19.282  26.266  0.00  0.00     0.036 H 
ATOM     27  H3  non d ame     -32.992  20.320  27.347  0.00  0.00     0.036 H 
ATOM     28  H4  non d ame     -31.770  19.218  28.025  0.00  0.00     0.036 H 
ENDBRANCH  21  25
ENDBRANCH  16  19
ENDBRANCH  13  15
BRANCH  13  29
ATOM     29  C8  non d ame     -35.622  11.893  25.499  0.00  0.00    -0.049 C 
ATOM     30  H7  non d ame     -34.734  12.222  24.959  0.00  0.00     0.030 H 
ATOM     31  H8  non d ame     -35.323  11.376  26.410  0.00  0.00     0.030 H 
ATOM     32  H9  non d ame     -36.201  11.216  24.869  0.00  0.00     0.030 H 
ENDBRANCH  13  29
ENDBRANCH  10  13
ENDBRANCH   7   9
BRANCH   7  33
ATOM     33  C11 non d ame     -39.128   9.574  27.982  0.00  0.00    -0.033 C 
ATOM     34  H12 non d ame     -39.398   9.030  28.888  0.00  0.00     0.042 H 
BRANCH  33  35
ATOM     35  C12 non d ame     -40.416   9.700  27.110  0.00  0.00    -0.071 C 
ATOM     36  H13 non d ame     -41.028  10.522  27.482  0.00  0.00     0.028 H 
ATOM     37  H14 non d ame     -40.136   9.895  26.075  0.00  0.00     0.028 H 
ATOM     38  H15 non d ame     -40.984   8.772  27.164  0.00  0.00     0.028 H 
ENDBRANCH  33  35
BRANCH  33  39
ATOM     39  C13 non d ame     -38.020   8.759  27.242  0.00  0.00    -0.071 C 
ATOM     40  H16 non d ame     -37.719   9.291  26.339  0.00  0.00     0.028 H 
ATOM     41  H17 non d ame     -37.157   8.638  27.898  0.00  0.00     0.028 H 
ATOM     42  H18 non d ame     -38.410   7.777  26.972  0.00  0.00     0.028 H 
ENDBRANCH  33  39
ENDBRANCH   7  33
ENDBRANCH   4   7
ENDBRANCH   1   3
BRANCH   1  43
ATOM     43  C15 non d ame     -34.678  10.760  31.393  0.00  0.00     0.240 C 
ATOM     44  O5  non d ame     -34.046  10.778  32.399  0.00  0.00    -0.271 OA
ATOM     45  N6  non d ame     -34.057  11.219  30.118  0.00  0.00    -0.355 N 
ATOM     46  H46 non d ame     -34.583  11.204  29.256  0.00  0.00     0.162 HD
BRANCH  45  47
ATOM     47  C20 non d ame     -32.659  11.702  30.117  0.00  0.00     0.013 C 
ATOM     48  H30 non d ame     -32.219  11.457  31.083  0.00  0.00     0.072 H 
BRANCH  47  49
ATOM     49  C21 non d ame     -32.649  13.200  29.909  0.00  0.00    -0.038 C 
ATOM     50  H31 non d ame     -33.445  13.591  30.543  0.00  0.00     0.036 H 
ATOM     51  H32 non d ame     -31.617  13.512  30.073  0.00  0.00     0.036 H 
BRANCH  49  52
ATOM     52  C22 non d ame     -33.003  13.607  28.462  0.00  0.00     0.018 C 
ATOM     53  H33 non d ame     -32.968  12.687  27.880  0.00  0.00     0.048 H 
ATOM     54  H34 non d ame     -33.932  14.172  28.534  0.00  0.00     0.048 H 
BRANCH  52  55
ATOM     55  C23 non d ame     -31.968  14.566  27.810  0.00  0.00     0.259 C 
ATOM     56  O7  non d ame     -31.682  15.592  28.336  0.00  0.00    -0.265 OA
BRANCH  55  57
ATOM     57  O8  non d ame     -31.374  14.209  26.568  0.00  0.00    -0.317 OA
BRANCH  57  58
ATOM     58  C29 non d ame     -32.268  14.277  25.454  0.00  0.00     0.052 C 
ATOM     59  H47 non d ame     -32.758  13.305  25.409  0.00  0.00     0.082 H 
ATOM     60  H48 non d ame     -32.859  15.180  25.605  0.00  0.00     0.082 H 
BRANCH  58  61
ATOM     61  C35 non d ame     -31.417  14.458  24.168  0.00  0.00    -0.034 A 
ATOM     62  C30 non d ame     -30.713  13.380  23.642  0.00  0.00    -0.075 A 
ATOM     63  C31 non d ame     -29.949  13.542  22.487  0.00  0.00    -0.082 A 
ATOM     64  H49 non d ame     -30.759  12.408  24.134  0.00  0.00     0.084 H 
ATOM     65  C32 non d ame     -29.889  14.789  21.859  0.00  0.00    -0.083 A 
ATOM     66  H50 non d ame     -29.399  12.695  22.076  0.00  0.00     0.083 H 
ATOM     67  C33 non d ame     -30.591  15.863  22.390  0.00  0.00    -0.082 A 
ATOM     68  H51 non d ame     -29.295  14.925  20.956  0.00  0.00     0.083 H 
ATOM     69  C34 non d ame     -31.358  15.705  23.543  0.00  0.00    -0.075 A 
ATOM     70  H52 non d ame     -30.541  16.835  21.899  0.00  0.00     0.083 H 
ATOM     71  H53 non d ame     -31.907  16.552  23.953  0.00  0.00     0.084 H 
ENDBRANCH  58  61
ENDBRANCH  57  58
ENDBRANCH  55  57
ENDBRANCH  52  55
ENDBRANCH  49  52
ENDBRANCH  47  49
BRANCH  47  72
ATOM     72  C24 non d ame     -31.880  11.026  28.991  0.00  0.00    -0.039 C 
ATOM     73  H35 non d ame     -31.333  11.828  28.494  0.00  0.00     0.036 H 
ATOM     74  H36 non d ame     -31.337  10.208  29.465  0.00  0.00     0.036 H 
BRANCH  72  75
ATOM     75  C25 non d ame     -32.858  10.375  27.901  0.00  0.00    -0.001 C 
ATOM     76  C26 non d ame     -33.092   8.783  28.240  0.00  0.00    -0.035 C 
ATOM     77  C27 non d ame     -32.843   8.058  27.122  0.00  0.00     0.085 C 
ATOM     78  H38 non d ame     -32.335   8.435  28.943  0.00  0.00     0.036 H 
ATOM     79  H39 non d ame     -34.147   8.593  28.436  0.00  0.00     0.036 H 
ATOM     80  N5  non d ame     -32.146   8.976  26.147  0.00  0.00    -0.049 N 
ATOM     81  H40 non d ame     -32.150   7.275  27.432  0.00  0.00     0.075 H 
ATOM     82  H41 non d ame     -33.821   7.793  26.723  0.00  0.00     0.075 H 
ATOM     83  C28 non d ame     -32.364  10.472  26.712  0.00  0.00     0.193 C 
ATOM     84  H42 non d ame     -31.162   8.753  26.198  0.00  0.00     0.280 HD
ATOM     85  H43 non d ame     -32.639   8.888  25.270  0.00  0.00     0.280 HD
ATOM     86  H44 non d ame     -33.092  11.139  26.249  0.00  0.00     0.129 H 
ATOM     87  H37 non d ame     -33.747  10.981  27.730  0.00  0.00     0.046 H 
BRANCH  83  88
ATOM     88  O6  non d ame     -31.128  11.189  26.699  0.00  0.00    -0.369 OA
ATOM     89  H45 non d ame     -31.295  12.112  26.496  0.00  0.00     0.212 HD
ENDBRANCH  83  88
ENDBRANCH  72  75
ENDBRANCH  47  72
ENDBRANCH  45  47
ENDBRANCH   1  43
BRANCH   1  90
ATOM     90  C16 non d ame     -36.177   8.799  31.873  0.00  0.00    -0.035 C 
ATOM     91  H21 non d ame     -35.157   8.574  32.185  0.00  0.00     0.037 H 
ATOM     92  H22 non d ame     -36.993   8.742  32.594  0.00  0.00     0.037 H 
BRANCH  90  93
ATOM     93  C17 non d ame     -36.523   7.786  30.735  0.00  0.00    -0.059 C 
ATOM     94  H23 non d ame     -36.698   8.359  29.824  0.00  0.00     0.038 H 
BRANCH  93  95
ATOM     95  C18 non d ame     -35.351   6.791  30.455  0.00  0.00    -0.073 C 
ATOM     96  H24 non d ame     -35.604   5.810  30.855  0.00  0.00     0.028 H 
ATOM     97  H25 non d ame     -35.189   6.714  29.380  0.00  0.00     0.028 H 
ATOM     98  H26 non d ame     -34.443   7.156  30.934  0.00  0.00     0.028 H 
ENDBRANCH  93  95
BRANCH  93  99
ATOM     99  C19 non d ame     -37.816   7.030  31.051  0.00  0.00    -0.073 C 
ATOM    100  H27 non d ame     -37.998   7.054  32.126  0.00  0.00     0.028 H 
ATOM    101  H28 non d ame     -38.650   7.501  30.531  0.00  0.00     0.028 H 
ATOM    102  H29 non d ame     -37.722   5.995  30.722  0.00  0.00     0.028 H 
ENDBRANCH  93  99
ENDBRANCH  90  93
ENDBRANCH   1  90
TORSDOF 26
ENDMDL
MODEL 4
REMARK VINA RESULT:      -6.8      2.680     10.117
REMARK  26 active torsions:
REMARK  status: ('A' for Active; 'I' for Inactive)
REMARK    1  A    between atoms: C2_2  and  C3_3 
REMARK    2  A    between atoms: C4_6  and  C5_7 
REMARK       I    between atoms: C5_7  and  N2_9 
REMARK    3  A    between atoms: N2_9  and  C6_10 
REMARK    4  A    between atoms: C6_10  and  C7_11 
REMARK    5  A    between atoms: C6_10  and  C8_13 
REMARK       I    between atoms: C7_11  and  N3_14 
REMARK    6  A    between atoms: N3_14  and  C9_15 
REMARK    7  A    between atoms: C9_15  and  C10_16 
REMARK    8  A    between atoms: C9_15  and  C11_18 
REMARK       I    between atoms: C10_16  and  N4_21 
REMARK    9  A    between atoms: C11_18  and  C12_19 
REMARK   10  A    between atoms: C11_18  and  C13_20 
REMARK   11  A    between atoms: N4_21  and  C14_22 
REMARK   12  A    between atoms: C14_22  and  C15_23 
REMARK   13  A    between atoms: C14_22  and  C16_25 
REMARK       I    between atoms: C15_23  and  N6_40 
REMARK   14  A    between atoms: C16_25  and  C17_26 
REMARK   15  A    between atoms: C17_26  and  C18_27 
REMARK   16  A    between atoms: C17_26  and  C19_28 
REMARK   17  A    between atoms: C20_29  and  C21_30 
REMARK   18  A    between atoms: C20_29  and  C24_33 
REMARK   19  A    between atoms: C20_29  and  N6_40 
REMARK   20  A    between atoms: C21_30  and  C22_31 
REMARK   21  A    between atoms: C22_31  and  C23_32 
REMARK   22  A    between atoms: C23_32  and  O8_43 
REMARK   23  A    between atoms: C24_33  and  C25_34 
REMARK   24  A    between atoms: C28_38  and  O6_39 
REMARK   25  A    between atoms: C29_42  and  O8_43 
REMARK   26  A    between atoms: C29_42  and  C35_49 
ROOT
ATOM      1  C14 non d ame     -34.158   6.861  27.393  0.00  0.00     0.089 C 
ATOM      2  H20 non d ame     -34.009   6.206  28.252  0.00  0.00     0.087 H 
ENDROOT
BRANCH   1   3
ATOM      3  N4  non d ame     -34.557   8.165  27.902  0.00  0.00    -0.346 N 
ATOM      4  C10 non d ame     -35.013   8.319  29.331  0.00  0.00     0.241 C 
ATOM      5  O4  non d ame     -35.052   7.378  30.053  0.00  0.00    -0.271 OA
ATOM      6  H19 non d ame     -34.519   8.953  27.271  0.00  0.00     0.163 HD
BRANCH   4   7
ATOM      7  C9  non d ame     -35.417   9.677  29.842  0.00  0.00     0.092 C 
ATOM      8  H11 non d ame     -35.402   9.669  30.932  0.00  0.00     0.088 H 
BRANCH   7   9
ATOM      9  N3  non d ame     -34.438  10.676  29.402  0.00  0.00    -0.346 N 
ATOM     10  C7  non d ame     -33.358  11.060  30.277  0.00  0.00     0.240 C 
ATOM     11  O3  non d ame     -33.262  10.577  31.339  0.00  0.00    -0.271 OA
ATOM     12  H10 non d ame     -34.509  11.103  28.490  0.00  0.00     0.163 HD
BRANCH  10  13
ATOM     13  C6  non d ame     -32.322  12.127  29.805  0.00  0.00     0.086 C 
ATOM     14  H6  non d ame     -31.903  11.902  28.824  0.00  0.00     0.086 H 
BRANCH  13  15
ATOM     15  N2  non d ame     -32.988  13.413  29.688  0.00  0.00    -0.343 N 
ATOM     16  C5  non d ame     -33.086  14.058  28.377  0.00  0.00     0.273 C 
ATOM     17  O2  non d ame     -32.622  13.536  27.423  0.00  0.00    -0.266 OA
ATOM     18  H5  non d ame     -33.379  13.853  30.509  0.00  0.00     0.163 HD
BRANCH  16  19
ATOM     19  C4  non d ame     -33.789  15.417  28.239  0.00  0.00     0.154 A 
ATOM     20  C1  non d ame     -35.016  15.690  27.555  0.00  0.00    -0.017 A 
ATOM     21  C2  non d ame     -35.225  17.078  27.722  0.00  0.00     0.077 A 
ATOM     22  H1  non d ame     -35.657  14.990  27.020  0.00  0.00     0.091 H 
ATOM     23  O1  non d ame     -34.229  17.537  28.422  0.00  0.00    -0.218 OA
ATOM     24  N1  non d ame     -33.378  16.588  28.735  0.00  0.00    -0.123 NA
BRANCH  21  25
ATOM     25  C3  non d ame     -36.399  17.884  27.183  0.00  0.00    -0.029 C 
ATOM     26  H2  non d ame     -37.246  17.222  27.010  0.00  0.00     0.036 H 
ATOM     27  H3  non d ame     -36.677  18.649  27.908  0.00  0.00     0.036 H 
ATOM     28  H4  non d ame     -36.112  18.361  26.246  0.00  0.00     0.036 H 
ENDBRANCH  21  25
ENDBRANCH  16  19
ENDBRANCH  13  15
BRANCH  13  29
ATOM     29  C8  non d ame     -31.197  12.216  30.805  0.00  0.00    -0.049 C 
ATOM     30  H7  non d ame     -31.611  12.285  31.811  0.00  0.00     0.030 H 
ATOM     31  H8  non d ame     -30.572  11.327  30.729  0.00  0.00     0.030 H 
ATOM     32  H9  non d ame     -30.596  13.102  30.598  0.00  0.00     0.030 H 
ENDBRANCH  13  29
ENDBRANCH  10  13
ENDBRANCH   7   9
BRANCH   7  33
ATOM     33  C11 non d ame     -36.820  10.046  29.278  0.00  0.00    -0.033 C 
ATOM     34  H12 non d ame     -37.276   9.130  28.904  0.00  0.00     0.042 H 
BRANCH  33  35
ATOM     35  C12 non d ame     -37.752  10.610  30.396  0.00  0.00    -0.071 C 
ATOM     36  H13 non d ame     -37.315  11.520  30.808  0.00  0.00     0.028 H 
ATOM     37  H14 non d ame     -38.731  10.835  29.974  0.00  0.00     0.028 H 
ATOM     38  H15 non d ame     -37.859   9.869  31.188  0.00  0.00     0.028 H 
ENDBRANCH  33  35
BRANCH  33  39
ATOM     39  C13 non d ame     -36.698  11.048  28.085  0.00  0.00    -0.071 C 
ATOM     40  H16 non d ame     -36.731  12.070  28.463  0.00  0.00     0.028 H 
ATOM     41  H17 non d ame     -35.753  10.882  27.567  0.00  0.00     0.028 H 
ATOM     42  H18 non d ame     -37.524  10.889  27.391  0.00  0.00     0.028 H 
ENDBRANCH  33  39
ENDBRANCH   7  33
ENDBRANCH   4   7
ENDBRANCH   1   3
BRANCH   1  43
ATOM     43  C15 non d ame     -32.861   7.033  26.553  0.00  0.00     0.240 C 
ATOM     44  O5  non d ame     -31.801   6.851  27.058  0.00  0.00    -0.271 OA
ATOM     45  N6  non d ame     -32.940   7.417  25.115  0.00  0.00    -0.355 N 
ATOM     46  H46 non d ame     -33.835   7.570  24.673  0.00  0.00     0.162 HD
BRANCH  45  47
ATOM     47  C20 non d ame     -31.697   7.575  24.329  0.00  0.00     0.013 C 
ATOM     48  H30 non d ame     -30.868   7.674  25.029  0.00  0.00     0.072 H 
BRANCH  47  49
ATOM     49  C21 non d ame     -31.802   8.817  23.473  0.00  0.00    -0.038 C 
ATOM     50  H31 non d ame     -30.776   9.098  23.234  0.00  0.00     0.036 H 
ATOM     51  H32 non d ame     -32.499   8.565  22.673  0.00  0.00     0.036 H 
BRANCH  49  52
ATOM     52  C22 non d ame     -32.418  10.015  24.228  0.00  0.00     0.018 C 
ATOM     53  H33 non d ame     -32.973  10.581  23.481  0.00  0.00     0.048 H 
ATOM     54  H34 non d ame     -32.937   9.588  25.086  0.00  0.00     0.048 H 
BRANCH  52  55
ATOM     55  C23 non d ame     -31.363  10.996  24.811  0.00  0.00     0.259 C 
ATOM     56  O7  non d ame     -31.041  10.927  25.953  0.00  0.00    -0.265 OA
BRANCH  55  57
ATOM     57  O8  non d ame     -30.794  11.990  23.968  0.00  0.00    -0.317 OA
BRANCH  57  58
ATOM     58  C29 non d ame     -31.143  13.330  24.329  0.00  0.00     0.052 C 
ATOM     59  H47 non d ame     -32.232  13.361  24.331  0.00  0.00     0.082 H 
ATOM     60  H48 non d ame     -30.590  13.542  25.244  0.00  0.00     0.082 H 
BRANCH  58  61
ATOM     61  C35 non d ame     -30.626  14.276  23.213  0.00  0.00    -0.034 A 
ATOM     62  C30 non d ame     -29.284  14.254  22.846  0.00  0.00    -0.075 A 
ATOM     63  C31 non d ame     -28.820  15.104  21.844  0.00  0.00    -0.082 A 
ATOM     64  H49 non d ame     -28.596  13.570  23.344  0.00  0.00     0.084 H 
ATOM     65  C32 non d ame     -29.703  15.982  21.209  0.00  0.00    -0.083 A 
ATOM     66  H50 non d ame     -27.768  15.083  21.558  0.00  0.00     0.083 H 
ATOM     67  C33 non d ame     -31.040  16.003  21.581  0.00  0.00    -0.082 A 
ATOM     68  H51 non d ame     -29.348  16.650  20.424  0.00  0.00     0.083 H 
ATOM     69  C34 non d ame     -31.509  15.154  22.581  0.00  0.00    -0.075 A 
ATOM     70  H52 non d ame     -31.726  16.691  21.085  0.00  0.00     0.083 H 
ATOM     71  H53 non d ame     -32.561  15.176  22.866  0.00  0.00     0.084 H 
ENDBRANCH  58  61
ENDBRANCH  57  58
ENDBRANCH  55  57
ENDBRANCH  52  55
ENDBRANCH  49  52
ENDBRANCH  47  49
BRANCH  47  72
ATOM     72  C24 non d ame     -31.493   6.355  23.433  0.00  0.00    -0.039 C 
ATOM     73  H35 non d ame     -30.961   6.724  22.556  0.00  0.00     0.036 H 
ATOM     74  H36 non d ame     -31.034   5.600  24.072  0.00  0.00     0.036 H 
BRANCH  72  75
ATOM     75  C25 non d ame     -32.888   5.755  22.922  0.00  0.00    -0.001 C 
ATOM     76  C26 non d ame     -33.121   4.257  23.560  0.00  0.00    -0.035 C 
ATOM     77  C27 non d ame     -33.420   3.398  22.557  0.00  0.00     0.085 C 
ATOM     78  H38 non d ame     -32.183   3.870  23.957  0.00  0.00     0.036 H 
ATOM     79  H39 non d ame     -34.019   4.250  24.178  0.00  0.00     0.036 H 
ATOM     80  N5  non d ame     -33.091   4.099  21.261  0.00  0.00    -0.049 N 
ATOM     81  H40 non d ame     -32.743   2.553  22.686  0.00  0.00     0.075 H 
ATOM     82  H41 non d ame     -34.497   3.246  22.615  0.00  0.00     0.075 H 
ATOM     83  C28 non d ame     -32.912   5.660  21.635  0.00  0.00     0.193 C 
ATOM     84  H42 non d ame     -32.199   3.737  20.958  0.00  0.00     0.280 HD
ATOM     85  H43 non d ame     -33.904   4.001  20.670  0.00  0.00     0.280 HD
ATOM     86  H44 non d ame     -33.695   6.379  21.397  0.00  0.00     0.129 H 
ATOM     87  H37 non d ame     -33.706   6.469  23.021  0.00  0.00     0.046 H 
BRANCH  83  88
ATOM     88  O6  non d ame     -31.723   6.177  21.034  0.00  0.00    -0.369 OA
ATOM     89  H45 non d ame     -31.932   6.979  20.550  0.00  0.00     0.212 HD
ENDBRANCH  83  88
ENDBRANCH  72  75
ENDBRANCH  47  72
ENDBRANCH  45  47
ENDBRANCH   1  43
BRANCH   1  90
ATOM     90  C16 non d ame     -35.269   6.311  26.513  0.00  0.00    -0.035 C 
ATOM     91  H21 non d ame     -36.107   6.994  26.645  0.00  0.00     0.037 H 
ATOM     92  H22 non d ame     -34.819   6.184  25.527  0.00  0.00     0.037 H 
BRANCH  90  93
ATOM     93  C17 non d ame     -35.776   4.901  26.952  0.00  0.00    -0.059 C 
ATOM     94  H23 non d ame     -36.057   4.355  26.051  0.00  0.00     0.038 H 
BRANCH  93  95
ATOM     95  C18 non d ame     -34.667   4.076  27.681  0.00  0.00    -0.073 C 
ATOM     96  H24 non d ame     -34.278   3.314  27.007  0.00  0.00     0.028 H 
ATOM     97  H25 non d ame     -33.858   4.742  27.982  0.00  0.00     0.028 H 
ATOM     98  H26 non d ame     -35.091   3.599  28.564  0.00  0.00     0.028 H 
ENDBRANCH  93  95
BRANCH  93  99
ATOM     99  C19 non d ame     -37.029   5.017  27.823  0.00  0.00    -0.073 C 
ATOM    100  H27 non d ame     -37.905   4.731  27.239  0.00  0.00     0.028 H 
ATOM    101  H28 non d ame     -36.936   4.357  28.685  0.00  0.00     0.028 H 
ATOM    102  H29 non d ame     -37.140   6.046  28.164  0.00  0.00     0.028 H 
ENDBRANCH  93  99
ENDBRANCH  90  93
ENDBRANCH   1  90
TORSDOF 26
ENDMDL
MODEL 5
REMARK VINA RESULT:      -6.7      1.615      2.671
REMARK  26 active torsions:
REMARK  status: ('A' for Active; 'I' for Inactive)
REMARK    1  A    between atoms: C2_2  and  C3_3 
REMARK    2  A    between atoms: C4_6  and  C5_7 
REMARK       I    between atoms: C5_7  and  N2_9 
REMARK    3  A    between atoms: N2_9  and  C6_10 
REMARK    4  A    between atoms: C6_10  and  C7_11 
REMARK    5  A    between atoms: C6_10  and  C8_13 
REMARK       I    between atoms: C7_11  and  N3_14 
REMARK    6  A    between atoms: N3_14  and  C9_15 
REMARK    7  A    between atoms: C9_15  and  C10_16 
REMARK    8  A    between atoms: C9_15  and  C11_18 
REMARK       I    between atoms: C10_16  and  N4_21 
REMARK    9  A    between atoms: C11_18  and  C12_19 
REMARK   10  A    between atoms: C11_18  and  C13_20 
REMARK   11  A    between atoms: N4_21  and  C14_22 
REMARK   12  A    between atoms: C14_22  and  C15_23 
REMARK   13  A    between atoms: C14_22  and  C16_25 
REMARK       I    between atoms: C15_23  and  N6_40 
REMARK   14  A    between atoms: C16_25  and  C17_26 
REMARK   15  A    between atoms: C17_26  and  C18_27 
REMARK   16  A    between atoms: C17_26  and  C19_28 
REMARK   17  A    between atoms: C20_29  and  C21_30 
REMARK   18  A    between atoms: C20_29  and  C24_33 
REMARK   19  A    between atoms: C20_29  and  N6_40 
REMARK   20  A    between atoms: C21_30  and  C22_31 
REMARK   21  A    between atoms: C22_31  and  C23_32 
REMARK   22  A    between atoms: C23_32  and  O8_43 
REMARK   23  A    between atoms: C24_33  and  C25_34 
REMARK   24  A    between atoms: C28_38  and  O6_39 
REMARK   25  A    between atoms: C29_42  and  O8_43 
REMARK   26  A    between atoms: C29_42  and  C35_49 
ROOT
ATOM      1  C14 non d ame     -30.983  14.164  24.421  0.00  0.00     0.089 C 
ATOM      2  H20 non d ame     -30.072  13.583  24.568  0.00  0.00     0.087 H 
ENDROOT
BRANCH   1   3
ATOM      3  N4  non d ame     -32.105  13.239  24.477  0.00  0.00    -0.346 N 
ATOM      4  C10 non d ame     -32.067  12.050  25.403  0.00  0.00     0.241 C 
ATOM      5  O4  non d ame     -31.120  11.856  26.092  0.00  0.00    -0.271 OA
ATOM      6  H19 non d ame     -32.901  13.420  23.880  0.00  0.00     0.163 HD
BRANCH   4   7
ATOM      7  C9  non d ame     -33.240  11.106  25.452  0.00  0.00     0.092 C 
ATOM      8  H11 non d ame     -33.790  11.169  24.513  0.00  0.00     0.088 H 
BRANCH   7   9
ATOM      9  N3  non d ame     -32.754   9.728  25.578  0.00  0.00    -0.346 N 
ATOM     10  C7  non d ame     -32.530   8.933  24.396  0.00  0.00     0.240 C 
ATOM     11  O3  non d ame     -32.736   9.385  23.336  0.00  0.00    -0.271 OA
ATOM     12  H10 non d ame     -32.573   9.324  26.486  0.00  0.00     0.163 HD
BRANCH  10  13
ATOM     13  C6  non d ame     -32.016   7.466  24.537  0.00  0.00     0.086 C 
ATOM     14  H6  non d ame     -31.081   7.399  25.093  0.00  0.00     0.086 H 
BRANCH  13  15
ATOM     15  N2  non d ame     -32.997   6.692  25.277  0.00  0.00    -0.343 N 
ATOM     16  C5  non d ame     -32.970   6.705  26.742  0.00  0.00     0.273 C 
ATOM     17  O2  non d ame     -32.153   7.339  27.314  0.00  0.00    -0.266 OA
ATOM     18  H5  non d ame     -33.690   6.151  24.780  0.00  0.00     0.163 HD
BRANCH  16  19
ATOM     19  C4  non d ame     -34.003   5.892  27.538  0.00  0.00     0.154 A 
ATOM     20  C1  non d ame     -35.420   5.866  27.342  0.00  0.00    -0.017 A 
ATOM     21  C2  non d ame     -35.906   4.971  28.321  0.00  0.00     0.077 A 
ATOM     22  H1  non d ame     -36.006   6.412  26.603  0.00  0.00     0.091 H 
ATOM     23  O1  non d ame     -34.880   4.539  28.994  0.00  0.00    -0.218 OA
ATOM     24  N1  non d ame     -33.759   5.062  28.556  0.00  0.00    -0.123 NA
BRANCH  21  25
ATOM     25  C3  non d ame     -37.362   4.584  28.546  0.00  0.00    -0.029 C 
ATOM     26  H2  non d ame     -37.412   3.740  29.232  0.00  0.00     0.036 H 
ATOM     27  H3  non d ame     -37.901   5.430  28.972  0.00  0.00     0.036 H 
ATOM     28  H4  non d ame     -37.816   4.307  27.595  0.00  0.00     0.036 H 
ENDBRANCH  21  25
ENDBRANCH  16  19
ENDBRANCH  13  15
BRANCH  13  29
ATOM     29  C8  non d ame     -31.813   6.869  23.167  0.00  0.00    -0.049 C 
ATOM     30  H7  non d ame     -32.317   7.486  22.423  0.00  0.00     0.030 H 
ATOM     31  H8  non d ame     -30.747   6.828  22.944  0.00  0.00     0.030 H 
ATOM     32  H9  non d ame     -32.228   5.861  23.145  0.00  0.00     0.030 H 
ENDBRANCH  13  29
ENDBRANCH  10  13
ENDBRANCH   7   9
BRANCH   7  33
ATOM     33  C11 non d ame     -34.133  11.452  26.679  0.00  0.00    -0.033 C 
ATOM     34  H12 non d ame     -33.471  11.713  27.505  0.00  0.00     0.042 H 
BRANCH  33  35
ATOM     35  C12 non d ame     -35.036  12.693  26.393  0.00  0.00    -0.071 C 
ATOM     36  H13 non d ame     -35.723  12.462  25.580  0.00  0.00     0.028 H 
ATOM     37  H14 non d ame     -35.603  12.943  27.289  0.00  0.00     0.028 H 
ATOM     38  H15 non d ame     -34.410  13.540  26.110  0.00  0.00     0.028 H 
ENDBRANCH  33  35
BRANCH  33  39
ATOM     39  C13 non d ame     -34.987  10.219  27.115  0.00  0.00    -0.071 C 
ATOM     40  H16 non d ame     -34.467   9.301  26.840  0.00  0.00     0.028 H 
ATOM     41  H17 non d ame     -35.136  10.243  28.195  0.00  0.00     0.028 H 
ATOM     42  H18 non d ame     -35.955  10.252  26.616  0.00  0.00     0.028 H 
ENDBRANCH  33  39
ENDBRANCH   7  33
ENDBRANCH   4   7
ENDBRANCH   1   3
BRANCH   1  43
ATOM     43  C15 non d ame     -31.176  15.244  25.523  0.00  0.00     0.240 C 
ATOM     44  O5  non d ame     -30.728  16.334  25.367  0.00  0.00    -0.271 OA
ATOM     45  N6  non d ame     -31.928  14.923  26.769  0.00  0.00    -0.355 N 
ATOM     46  H46 non d ame     -32.318  14.002  26.910  0.00  0.00     0.162 HD
BRANCH  45  47
ATOM     47  C20 non d ame     -32.105  15.962  27.807  0.00  0.00     0.013 C 
ATOM     48  H30 non d ame     -31.274  16.663  27.725  0.00  0.00     0.072 H 
BRANCH  47  49
ATOM     49  C21 non d ame     -32.098  15.311  29.172  0.00  0.00    -0.038 C 
ATOM     50  H31 non d ame     -31.061  15.034  29.361  0.00  0.00     0.036 H 
ATOM     51  H32 non d ame     -32.605  16.012  29.834  0.00  0.00     0.036 H 
BRANCH  49  52
ATOM     52  C22 non d ame     -32.915  14.001  29.215  0.00  0.00     0.018 C 
ATOM     53  H33 non d ame     -33.833  14.243  29.751  0.00  0.00     0.048 H 
ATOM     54  H34 non d ame     -32.963  13.649  28.184  0.00  0.00     0.048 H 
BRANCH  52  55
ATOM     55  C23 non d ame     -32.233  12.864  30.025  0.00  0.00     0.259 C 
ATOM     56  O7  non d ame     -31.170  13.035  30.527  0.00  0.00    -0.265 OA
BRANCH  55  57
ATOM     57  O8  non d ame     -32.890  11.609  30.152  0.00  0.00    -0.317 OA
BRANCH  57  58
ATOM     58  C29 non d ame     -33.508  11.400  31.425  0.00  0.00     0.052 C 
ATOM     59  H47 non d ame     -32.703  11.107  32.099  0.00  0.00     0.082 H 
ATOM     60  H48 non d ame     -34.084  12.303  31.624  0.00  0.00     0.082 H 
BRANCH  58  61
ATOM     61  C35 non d ame     -34.494  10.209  31.289  0.00  0.00    -0.034 A 
ATOM     62  C30 non d ame     -34.193   9.149  30.440  0.00  0.00    -0.075 A 
ATOM     63  C31 non d ame     -35.079   8.080  30.318  0.00  0.00    -0.082 A 
ATOM     64  H49 non d ame     -33.264   9.157  29.870  0.00  0.00     0.084 H 
ATOM     65  C32 non d ame     -36.271   8.074  31.047  0.00  0.00    -0.083 A 
ATOM     66  H50 non d ame     -34.840   7.250  29.653  0.00  0.00     0.083 H 
ATOM     67  C33 non d ame     -36.568   9.136  31.891  0.00  0.00    -0.082 A 
ATOM     68  H51 non d ame     -36.969   7.241  30.958  0.00  0.00     0.083 H 
ATOM     69  C34 non d ame     -35.685  10.206  32.018  0.00  0.00    -0.075 A 
ATOM     70  H52 non d ame     -37.500   9.129  32.457  0.00  0.00     0.083 H 
ATOM     71  H53 non d ame     -35.925  11.035  32.683  0.00  0.00     0.084 H 
ENDBRANCH  58  61
ENDBRANCH  57  58
ENDBRANCH  55  57
ENDBRANCH  52  55
ENDBRANCH  49  52
ENDBRANCH  47  49
BRANCH  47  72
ATOM     72  C24 non d ame     -33.432  16.686  27.593  0.00  0.00    -0.039 C 
ATOM     73  H35 non d ame     -33.985  16.074  26.879  0.00  0.00     0.036 H 
ATOM     74  H36 non d ame     -33.835  16.854  28.592  0.00  0.00     0.036 H 
BRANCH  72  75
ATOM     75  C25 non d ame     -33.222  18.124  26.920  0.00  0.00    -0.001 C 
ATOM     76  C26 non d ame     -33.964  19.280  27.824  0.00  0.00    -0.035 C 
ATOM     77  C27 non d ame     -34.758  20.022  27.016  0.00  0.00     0.085 C 
ATOM     78  H38 non d ame     -34.667  18.818  28.517  0.00  0.00     0.036 H 
ATOM     79  H39 non d ame     -33.230  19.997  28.190  0.00  0.00     0.036 H 
ATOM     80  N5  non d ame     -34.878  19.277  25.709  0.00  0.00    -0.049 N 
ATOM     81  H40 non d ame     -35.732  20.043  27.505  0.00  0.00     0.075 H 
ATOM     82  H41 non d ame     -34.214  20.951  26.847  0.00  0.00     0.075 H 
ATOM     83  C28 non d ame     -33.715  18.158  25.727  0.00  0.00     0.193 C 
ATOM     84  H42 non d ame     -35.774  18.811  25.727  0.00  0.00     0.280 HD
ATOM     85  H43 non d ame     -34.671  19.945  24.980  0.00  0.00     0.280 HD
ATOM     86  H44 non d ame     -32.806  18.295  25.141  0.00  0.00     0.129 H 
ATOM     87  H37 non d ame     -32.183  18.302  26.643  0.00  0.00     0.046 H 
BRANCH  83  88
ATOM     88  O6  non d ame     -34.242  16.893  25.325  0.00  0.00    -0.369 OA
ATOM     89  H45 non d ame     -33.822  16.616  24.507  0.00  0.00     0.212 HD
ENDBRANCH  83  88
ENDBRANCH  72  75
ENDBRANCH  47  72
ENDBRANCH  45  47
ENDBRANCH   1  43
BRANCH   1  90
ATOM     90  C16 non d ame     -30.955  14.828  23.053  0.00  0.00    -0.035 C 
ATOM     91  H21 non d ame     -31.824  14.437  22.525  0.00  0.00     0.037 H 
ATOM     92  H22 non d ame     -30.873  15.896  23.253  0.00  0.00     0.037 H 
BRANCH  90  93
ATOM     93  C17 non d ame     -29.708  14.442  22.195  0.00  0.00    -0.059 C 
ATOM     94  H23 non d ame     -29.873  14.818  21.185  0.00  0.00     0.038 H 
BRANCH  93  95
ATOM     95  C18 non d ame     -28.395  15.091  22.738  0.00  0.00    -0.073 C 
ATOM     96  H24 non d ame     -28.219  14.755  23.759  0.00  0.00     0.028 H 
ATOM     97  H25 non d ame     -27.556  14.795  22.109  0.00  0.00     0.028 H 
ATOM     98  H26 non d ame     -28.494  16.176  22.724  0.00  0.00     0.028 H 
ENDBRANCH  93  95
BRANCH  93  99
ATOM     99  C19 non d ame     -29.563  12.921  22.095  0.00  0.00    -0.073 C 
ATOM    100  H27 non d ame     -29.149  12.659  21.121  0.00  0.00     0.028 H 
ATOM    101  H28 non d ame     -28.895  12.567  22.880  0.00  0.00     0.028 H 
ATOM    102  H29 non d ame     -30.541  12.454  22.212  0.00  0.00     0.028 H 
ENDBRANCH  93  99
ENDBRANCH  90  93
ENDBRANCH   1  90
TORSDOF 26
ENDMDL
MODEL 6
REMARK VINA RESULT:      -6.7      2.385      7.052
REMARK  26 active torsions:
REMARK  status: ('A' for Active; 'I' for Inactive)
REMARK    1  A    between atoms: C2_2  and  C3_3 
REMARK    2  A    between atoms: C4_6  and  C5_7 
REMARK       I    between atoms: C5_7  and  N2_9 
REMARK    3  A    between atoms: N2_9  and  C6_10 
REMARK    4  A    between atoms: C6_10  and  C7_11 
REMARK    5  A    between atoms: C6_10  and  C8_13 
REMARK       I    between atoms: C7_11  and  N3_14 
REMARK    6  A    between atoms: N3_14  and  C9_15 
REMARK    7  A    between atoms: C9_15  and  C10_16 
REMARK    8  A    between atoms: C9_15  and  C11_18 
REMARK       I    between atoms: C10_16  and  N4_21 
REMARK    9  A    between atoms: C11_18  and  C12_19 
REMARK   10  A    between atoms: C11_18  and  C13_20 
REMARK   11  A    between atoms: N4_21  and  C14_22 
REMARK   12  A    between atoms: C14_22  and  C15_23 
REMARK   13  A    between atoms: C14_22  and  C16_25 
REMARK       I    between atoms: C15_23  and  N6_40 
REMARK   14  A    between atoms: C16_25  and  C17_26 
REMARK   15  A    between atoms: C17_26  and  C18_27 
REMARK   16  A    between atoms: C17_26  and  C19_28 
REMARK   17  A    between atoms: C20_29  and  C21_30 
REMARK   18  A    between atoms: C20_29  and  C24_33 
REMARK   19  A    between atoms: C20_29  and  N6_40 
REMARK   20  A    between atoms: C21_30  and  C22_31 
REMARK   21  A    between atoms: C22_31  and  C23_32 
REMARK   22  A    between atoms: C23_32  and  O8_43 
REMARK   23  A    between atoms: C24_33  and  C25_34 
REMARK   24  A    between atoms: C28_38  and  O6_39 
REMARK   25  A    between atoms: C29_42  and  O8_43 
REMARK   26  A    between atoms: C29_42  and  C35_49 
ROOT
ATOM      1  C14 non d ame     -33.386   9.710  24.992  0.00  0.00     0.089 C 
ATOM      2  H20 non d ame     -33.892   8.746  24.932  0.00  0.00     0.087 H 
ENDROOT
BRANCH   1   3
ATOM      3  N4  non d ame     -34.382  10.743  24.748  0.00  0.00    -0.346 N 
ATOM      4  C10 non d ame     -35.808  10.548  25.200  0.00  0.00     0.241 C 
ATOM      5  O4  non d ame     -36.130   9.549  25.755  0.00  0.00    -0.271 OA
ATOM      6  H19 non d ame     -34.088  11.584  24.272  0.00  0.00     0.163 HD
BRANCH   4   7
ATOM      7  C9  non d ame     -36.824  11.629  24.945  0.00  0.00     0.092 C 
ATOM      8  H11 non d ame     -37.470  11.727  25.817  0.00  0.00     0.088 H 
BRANCH   7   9
ATOM      9  N3  non d ame     -36.139  12.913  24.767  0.00  0.00    -0.346 N 
ATOM     10  C7  non d ame     -36.113  13.871  25.845  0.00  0.00     0.240 C 
ATOM     11  O3  non d ame     -36.640  13.626  26.861  0.00  0.00    -0.271 OA
ATOM     12  H10 non d ame     -35.681  13.139  23.896  0.00  0.00     0.163 HD
BRANCH  10  13
ATOM     13  C6  non d ame     -35.384  15.237  25.649  0.00  0.00     0.086 C 
ATOM     14  H6  non d ame     -34.944  15.616  26.571  0.00  0.00     0.086 H 
BRANCH  13  15
ATOM     15  N2  non d ame     -34.290  15.057  24.710  0.00  0.00    -0.343 N 
ATOM     16  C5  non d ame     -32.958  15.562  25.048  0.00  0.00     0.273 C 
ATOM     17  O2  non d ame     -32.777  16.114  26.078  0.00  0.00    -0.266 OA
ATOM     18  H5  non d ame     -34.454  14.586  23.831  0.00  0.00     0.163 HD
BRANCH  16  19
ATOM     19  C4  non d ame     -31.791  15.377  24.065  0.00  0.00     0.154 A 
ATOM     20  C1  non d ame     -31.173  14.146  23.679  0.00  0.00    -0.017 A 
ATOM     21  C2  non d ame     -30.163  14.517  22.763  0.00  0.00     0.077 A 
ATOM     22  H1  non d ame     -31.419  13.137  24.011  0.00  0.00     0.091 H 
ATOM     23  O1  non d ame     -30.206  15.812  22.644  0.00  0.00    -0.218 OA
ATOM     24  N1  non d ame     -31.148  16.336  23.394  0.00  0.00    -0.123 NA
BRANCH  21  25
ATOM     25  C3  non d ame     -29.203  13.576  22.048  0.00  0.00    -0.029 C 
ATOM     26  H2  non d ame     -29.042  13.926  21.029  0.00  0.00     0.036 H 
ATOM     27  H3  non d ame     -28.252  13.555  22.579  0.00  0.00     0.036 H 
ATOM     28  H4  non d ame     -29.628  12.573  22.025  0.00  0.00     0.036 H 
ENDBRANCH  21  25
ENDBRANCH  16  19
ENDBRANCH  13  15
BRANCH  13  29
ATOM     29  C8  non d ame     -36.358  16.258  25.118  0.00  0.00    -0.049 C 
ATOM     30  H7  non d ame     -37.293  15.764  24.853  0.00  0.00     0.030 H 
ATOM     31  H8  non d ame     -36.549  17.009  25.884  0.00  0.00     0.030 H 
ATOM     32  H9  non d ame     -35.937  16.737  24.235  0.00  0.00     0.030 H 
ENDBRANCH  13  29
ENDBRANCH  10  13
ENDBRANCH   7   9
BRANCH   7  33
ATOM     33  C11 non d ame     -37.629  11.291  23.656  0.00  0.00    -0.033 C 
ATOM     34  H12 non d ame     -37.001  10.651  23.035  0.00  0.00     0.042 H 
BRANCH  33  35
ATOM     35  C12 non d ame     -38.928  10.494  23.989  0.00  0.00    -0.071 C 
ATOM     36  H13 non d ame     -38.923  10.216  25.043  0.00  0.00     0.028 H 
ATOM     37  H14 non d ame     -39.799  11.114  23.781  0.00  0.00     0.028 H 
ATOM     38  H15 non d ame     -38.968   9.593  23.376  0.00  0.00     0.028 H 
ENDBRANCH  33  35
BRANCH  33  39
ATOM     39  C13 non d ame     -37.952  12.586  22.842  0.00  0.00    -0.071 C 
ATOM     40  H16 non d ame     -37.991  13.440  23.519  0.00  0.00     0.028 H 
ATOM     41  H17 non d ame     -37.174  12.749  22.095  0.00  0.00     0.028 H 
ATOM     42  H18 non d ame     -38.914  12.471  22.345  0.00  0.00     0.028 H 
ENDBRANCH  33  39
ENDBRANCH   7  33
ENDBRANCH   4   7
ENDBRANCH   1   3
BRANCH   1  43
ATOM     43  C15 non d ame     -32.750   9.955  26.390  0.00  0.00     0.240 C 
ATOM     44  O5  non d ame     -31.571  10.061  26.493  0.00  0.00    -0.271 OA
ATOM     45  N6  non d ame     -33.613  10.065  27.601  0.00  0.00    -0.355 N 
ATOM     46  H46 non d ame     -34.616   9.981  27.525  0.00  0.00     0.162 HD
BRANCH  45  47
ATOM     47  C20 non d ame     -32.993  10.299  28.923  0.00  0.00     0.013 C 
ATOM     48  H30 non d ame     -31.968   9.934  28.882  0.00  0.00     0.072 H 
BRANCH  47  49
ATOM     49  C21 non d ame     -33.769   9.545  29.979  0.00  0.00    -0.038 C 
ATOM     50  H31 non d ame     -34.396   8.838  29.436  0.00  0.00     0.036 H 
ATOM     51  H32 non d ame     -33.025   9.182  30.688  0.00  0.00     0.036 H 
BRANCH  49  52
ATOM     52  C22 non d ame     -34.729  10.452  30.780  0.00  0.00     0.018 C 
ATOM     53  H33 non d ame     -34.172  11.367  30.980  0.00  0.00     0.048 H 
ATOM     54  H34 non d ame     -35.651  10.492  30.199  0.00  0.00     0.048 H 
BRANCH  52  55
ATOM     55  C23 non d ame     -35.122   9.877  32.169  0.00  0.00     0.259 C 
ATOM     56  O7  non d ame     -34.764  10.413  33.167  0.00  0.00    -0.265 OA
BRANCH  55  57
ATOM     57  O8  non d ame     -35.906   8.692  32.236  0.00  0.00    -0.317 OA
BRANCH  57  58
ATOM     58  C29 non d ame     -37.209   8.823  31.662  0.00  0.00     0.052 C 
ATOM     59  H47 non d ame     -37.910   8.606  32.468  0.00  0.00     0.082 H 
ATOM     60  H48 non d ame     -37.222   9.798  31.177  0.00  0.00     0.082 H 
BRANCH  58  61
ATOM     61  C35 non d ame     -37.364   7.730  30.570  0.00  0.00    -0.034 A 
ATOM     62  C30 non d ame     -37.138   8.044  29.234  0.00  0.00    -0.075 A 
ATOM     63  C31 non d ame     -37.277   7.062  28.253  0.00  0.00    -0.082 A 
ATOM     64  H49 non d ame     -36.853   9.058  28.954  0.00  0.00     0.084 H 
ATOM     65  C32 non d ame     -37.646   5.763  28.614  0.00  0.00    -0.083 A 
ATOM     66  H50 non d ame     -37.099   7.311  27.207  0.00  0.00     0.083 H 
ATOM     67  C33 non d ame     -37.873   5.456  29.948  0.00  0.00    -0.082 A 
ATOM     68  H51 non d ame     -37.756   4.990  27.853  0.00  0.00     0.083 H 
ATOM     69  C34 non d ame     -37.733   6.433  30.932  0.00  0.00    -0.075 A 
ATOM     70  H52 non d ame     -38.163   4.442  30.226  0.00  0.00     0.083 H 
ATOM     71  H53 non d ame     -37.912   6.184  31.978  0.00  0.00     0.084 H 
ENDBRANCH  58  61
ENDBRANCH  57  58
ENDBRANCH  55  57
ENDBRANCH  52  55
ENDBRANCH  49  52
ENDBRANCH  47  49
BRANCH  47  72
ATOM     72  C24 non d ame     -33.012  11.792  29.245  0.00  0.00    -0.039 C 
ATOM     73  H35 non d ame     -33.753  12.225  28.573  0.00  0.00     0.036 H 
ATOM     74  H36 non d ame     -33.154  11.855  30.324  0.00  0.00     0.036 H 
BRANCH  72  75
ATOM     75  C25 non d ame     -31.608  12.488  28.912  0.00  0.00    -0.001 C 
ATOM     76  C26 non d ame     -31.103  13.376  30.201  0.00  0.00    -0.035 C 
ATOM     77  C27 non d ame     -30.793  14.624  29.776  0.00  0.00     0.085 C 
ATOM     78  H38 non d ame     -31.931  13.539  30.890  0.00  0.00     0.036 H 
ATOM     79  H39 non d ame     -30.153  12.989  30.571  0.00  0.00     0.036 H 
ATOM     80  N5  non d ame     -31.349  14.767  28.380  0.00  0.00    -0.049 N 
ATOM     81  H40 non d ame     -31.328  15.299  30.443  0.00  0.00     0.075 H 
ATOM     82  H41 non d ame     -29.705  14.654  29.729  0.00  0.00     0.075 H 
ATOM     83  C28 non d ame     -31.705  13.270  27.889  0.00  0.00     0.193 C 
ATOM     84  H42 non d ame     -32.209  15.290  28.467  0.00  0.00     0.280 HD
ATOM     85  H43 non d ame     -30.597  15.123  27.808  0.00  0.00     0.280 HD
ATOM     86  H44 non d ame     -31.059  12.752  27.181  0.00  0.00     0.129 H 
ATOM     87  H37 non d ame     -30.892  11.788  28.480  0.00  0.00     0.046 H 
BRANCH  83  88
ATOM     88  O6  non d ame     -33.011  13.240  27.309  0.00  0.00    -0.369 OA
ATOM     89  H45 non d ame     -33.261  12.330  27.133  0.00  0.00     0.212 HD
ENDBRANCH  83  88
ENDBRANCH  72  75
ENDBRANCH  47  72
ENDBRANCH  45  47
ENDBRANCH   1  43
BRANCH   1  90
ATOM     90  C16 non d ame     -32.311   9.795  23.920  0.00  0.00    -0.035 C 
ATOM     91  H21 non d ame     -32.682  10.520  23.196  0.00  0.00     0.037 H 
ATOM     92  H22 non d ame     -31.383   9.988  24.457  0.00  0.00     0.037 H 
BRANCH  90  93
ATOM     93  C17 non d ame     -32.100   8.460  23.137  0.00  0.00    -0.059 C 
ATOM     94  H23 non d ame     -31.088   8.470  22.733  0.00  0.00     0.038 H 
BRANCH  93  95
ATOM     95  C18 non d ame     -32.232   7.208  24.062  0.00  0.00    -0.073 C 
ATOM     96  H24 non d ame     -32.960   7.410  24.846  0.00  0.00     0.028 H 
ATOM     97  H25 non d ame     -32.562   6.353  23.472  0.00  0.00     0.028 H 
ATOM     98  H26 non d ame     -31.265   6.986  24.512  0.00  0.00     0.028 H 
ENDBRANCH  93  95
BRANCH  93  99
ATOM     99  C19 non d ame     -33.062   8.364  21.950  0.00  0.00    -0.073 C 
ATOM    100  H27 non d ame     -32.568   7.856  21.121  0.00  0.00     0.028 H 
ATOM    101  H28 non d ame     -33.948   7.800  22.244  0.00  0.00     0.028 H 
ATOM    102  H29 non d ame     -33.357   9.366  21.639  0.00  0.00     0.028 H 
ENDBRANCH  93  99
ENDBRANCH  90  93
ENDBRANCH   1  90
TORSDOF 26
ENDMDL
MODEL 7
REMARK VINA RESULT:      -6.5      2.760      9.806
REMARK  26 active torsions:
REMARK  status: ('A' for Active; 'I' for Inactive)
REMARK    1  A    between atoms: C2_2  and  C3_3 
REMARK    2  A    between atoms: C4_6  and  C5_7 
REMARK       I    between atoms: C5_7  and  N2_9 
REMARK    3  A    between atoms: N2_9  and  C6_10 
REMARK    4  A    between atoms: C6_10  and  C7_11 
REMARK    5  A    between atoms: C6_10  and  C8_13 
REMARK       I    between atoms: C7_11  and  N3_14 
REMARK    6  A    between atoms: N3_14  and  C9_15 
REMARK    7  A    between atoms: C9_15  and  C10_16 
REMARK    8  A    between atoms: C9_15  and  C11_18 
REMARK       I    between atoms: C10_16  and  N4_21 
REMARK    9  A    between atoms: C11_18  and  C12_19 
REMARK   10  A    between atoms: C11_18  and  C13_20 
REMARK   11  A    between atoms: N4_21  and  C14_22 
REMARK   12  A    between atoms: C14_22  and  C15_23 
REMARK   13  A    between atoms: C14_22  and  C16_25 
REMARK       I    between atoms: C15_23  and  N6_40 
REMARK   14  A    between atoms: C16_25  and  C17_26 
REMARK   15  A    between atoms: C17_26  and  C18_27 
REMARK   16  A    between atoms: C17_26  and  C19_28 
REMARK   17  A    between atoms: C20_29  and  C21_30 
REMARK   18  A    between atoms: C20_29  and  C24_33 
REMARK   19  A    between atoms: C20_29  and  N6_40 
REMARK   20  A    between atoms: C21_30  and  C22_31 
REMARK   21  A    between atoms: C22_31  and  C23_32 
REMARK   22  A    between atoms: C23_32  and  O8_43 
REMARK   23  A    between atoms: C24_33  and  C25_34 
REMARK   24  A    between atoms: C28_38  and  O6_39 
REMARK   25  A    between atoms: C29_42  and  O8_43 
REMARK   26  A    between atoms: C29_42  and  C35_49 
ROOT
ATOM      1  C14 non d ame     -32.834   6.945  26.611  0.00  0.00     0.089 C 
ATOM      2  H20 non d ame     -32.229   7.179  25.734  0.00  0.00     0.087 H 
ENDROOT
BRANCH   1   3
ATOM      3  N4  non d ame     -32.606   7.994  27.594  0.00  0.00    -0.346 N 
ATOM      4  C10 non d ame     -32.438   9.426  27.153  0.00  0.00     0.241 C 
ATOM      5  O4  non d ame     -32.487   9.710  26.002  0.00  0.00    -0.271 OA
ATOM      6  H19 non d ame     -32.564   7.731  28.568  0.00  0.00     0.163 HD
BRANCH   4   7
ATOM      7  C9  non d ame     -32.208  10.500  28.184  0.00  0.00     0.092 C 
ATOM      8  H11 non d ame     -31.172  10.458  28.521  0.00  0.00     0.088 H 
BRANCH   7   9
ATOM      9  N3  non d ame     -32.412  11.817  27.573  0.00  0.00    -0.346 N 
ATOM     10  C7  non d ame     -31.424  12.853  27.749  0.00  0.00     0.240 C 
ATOM     11  O3  non d ame     -30.461  12.646  28.381  0.00  0.00    -0.271 OA
ATOM     12  H10 non d ame     -33.238  12.012  27.026  0.00  0.00     0.163 HD
BRANCH  10  13
ATOM     13  C6  non d ame     -31.648  14.254  27.098  0.00  0.00     0.086 C 
ATOM     14  H6  non d ame     -31.109  15.049  27.613  0.00  0.00     0.086 H 
BRANCH  13  15
ATOM     15  N2  non d ame     -31.144  14.226  25.735  0.00  0.00    -0.343 N 
ATOM     16  C5  non d ame     -31.015  15.479  24.988  0.00  0.00     0.273 C 
ATOM     17  O2  non d ame     -31.321  16.504  25.491  0.00  0.00    -0.266 OA
ATOM     18  H5  non d ame     -30.887  13.345  25.311  0.00  0.00     0.163 HD
BRANCH  16  19
ATOM     19  C4  non d ame     -30.483  15.464  23.546  0.00  0.00     0.154 A 
ATOM     20  C1  non d ame     -31.216  15.749  22.351  0.00  0.00    -0.017 A 
ATOM     21  C2  non d ame     -30.278  15.600  21.305  0.00  0.00     0.077 A 
ATOM     22  H1  non d ame     -32.267  16.022  22.257  0.00  0.00     0.091 H 
ATOM     23  O1  non d ame     -29.142  15.270  21.847  0.00  0.00    -0.218 OA
ATOM     24  N1  non d ame     -29.237  15.184  23.154  0.00  0.00    -0.123 NA
BRANCH  21  25
ATOM     25  C3  non d ame     -30.547  15.791  19.818  0.00  0.00    -0.029 C 
ATOM     26  H2  non d ame     -29.618  15.672  19.262  0.00  0.00     0.036 H 
ATOM     27  H3  non d ame     -31.270  15.048  19.482  0.00  0.00     0.036 H 
ATOM     28  H4  non d ame     -30.948  16.790  19.647  0.00  0.00     0.036 H 
ENDBRANCH  21  25
ENDBRANCH  16  19
ENDBRANCH  13  15
BRANCH  13  29
ATOM     29  C8  non d ame     -33.119  14.582  27.099  0.00  0.00    -0.049 C 
ATOM     30  H7  non d ame     -33.319  15.357  26.358  0.00  0.00     0.030 H 
ATOM     31  H8  non d ame     -33.691  13.688  26.852  0.00  0.00     0.030 H 
ATOM     32  H9  non d ame     -33.411  14.940  28.086  0.00  0.00     0.030 H 
ENDBRANCH  13  29
ENDBRANCH  10  13
ENDBRANCH   7   9
BRANCH   7  33
ATOM     33  C11 non d ame     -33.214  10.316  29.358  0.00  0.00    -0.033 C 
ATOM     34  H12 non d ame     -33.202   9.263  29.639  0.00  0.00     0.042 H 
BRANCH  33  35
ATOM     35  C12 non d ame     -32.783  11.140  30.611  0.00  0.00    -0.071 C 
ATOM     36  H13 non d ame     -33.608  11.777  30.929  0.00  0.00     0.028 H 
ATOM     37  H14 non d ame     -32.516  10.460  31.419  0.00  0.00     0.028 H 
ATOM     38  H15 non d ame     -31.923  11.760  30.359  0.00  0.00     0.028 H 
ENDBRANCH  33  35
BRANCH  33  39
ATOM     39  C13 non d ame     -34.666  10.681  28.913  0.00  0.00    -0.071 C 
ATOM     40  H16 non d ame     -34.675  11.686  28.491  0.00  0.00     0.028 H 
ATOM     41  H17 non d ame     -35.006   9.968  28.160  0.00  0.00     0.028 H 
ATOM     42  H18 non d ame     -35.332  10.641  29.775  0.00  0.00     0.028 H 
ENDBRANCH  33  39
ENDBRANCH   7  33
ENDBRANCH   4   7
ENDBRANCH   1   3
BRANCH   1  43
ATOM     43  C15 non d ame     -34.353   6.896  26.282  0.00  0.00     0.240 C 
ATOM     44  O5  non d ame     -34.716   6.489  25.226  0.00  0.00    -0.271 OA
ATOM     45  N6  non d ame     -35.357   7.350  27.287  0.00  0.00    -0.355 N 
ATOM     46  H46 non d ame     -35.060   7.693  28.189  0.00  0.00     0.162 HD
BRANCH  45  47
ATOM     47  C20 non d ame     -36.798   7.296  26.959  0.00  0.00     0.013 C 
ATOM     48  H30 non d ame     -36.896   7.312  25.873  0.00  0.00     0.072 H 
BRANCH  47  49
ATOM     49  C21 non d ame     -37.491   8.499  27.557  0.00  0.00    -0.038 C 
ATOM     50  H31 non d ame     -37.028   8.651  28.533  0.00  0.00     0.036 H 
ATOM     51  H32 non d ame     -37.434   9.279  26.799  0.00  0.00     0.036 H 
BRANCH  49  52
ATOM     52  C22 non d ame     -38.993   8.255  27.821  0.00  0.00     0.018 C 
ATOM     53  H33 non d ame     -39.512   8.631  26.940  0.00  0.00     0.048 H 
ATOM     54  H34 non d ame     -39.078   7.203  28.096  0.00  0.00     0.048 H 
BRANCH  52  55
ATOM     55  C23 non d ame     -39.557   9.059  29.025  0.00  0.00     0.259 C 
ATOM     56  O7  non d ame     -39.863  10.200  28.898  0.00  0.00    -0.265 OA
BRANCH  55  57
ATOM     57  O8  non d ame     -39.691   8.419  30.288  0.00  0.00    -0.317 OA
BRANCH  57  58
ATOM     58  C29 non d ame     -38.890   8.997  31.322  0.00  0.00     0.052 C 
ATOM     59  H47 non d ame     -38.702  10.025  31.010  0.00  0.00     0.082 H 
ATOM     60  H48 non d ame     -39.421   8.799  32.253  0.00  0.00     0.082 H 
BRANCH  58  61
ATOM     61  C35 non d ame     -37.536   8.240  31.359  0.00  0.00    -0.034 A 
ATOM     62  C30 non d ame     -37.484   6.888  31.034  0.00  0.00    -0.075 A 
ATOM     63  C31 non d ame     -36.268   6.208  31.067  0.00  0.00    -0.082 A 
ATOM     64  H49 non d ame     -38.397   6.362  30.754  0.00  0.00     0.084 H 
ATOM     65  C32 non d ame     -35.100   6.884  31.429  0.00  0.00    -0.083 A 
ATOM     66  H50 non d ame     -36.231   5.149  30.810  0.00  0.00     0.083 H 
ATOM     67  C33 non d ame     -35.157   8.232  31.756  0.00  0.00    -0.082 A 
ATOM     68  H51 non d ame     -34.145   6.360  31.457  0.00  0.00     0.083 H 
ATOM     69  C34 non d ame     -36.370   8.917  31.722  0.00  0.00    -0.075 A 
ATOM     70  H52 non d ame     -34.244   8.756  32.040  0.00  0.00     0.083 H 
ATOM     71  H53 non d ame     -36.406   9.976  31.979  0.00  0.00     0.084 H 
ENDBRANCH  58  61
ENDBRANCH  57  58
ENDBRANCH  55  57
ENDBRANCH  52  55
ENDBRANCH  49  52
ENDBRANCH  47  49
BRANCH  47  72
ATOM     72  C24 non d ame     -37.410   6.018  27.528  0.00  0.00    -0.039 C 
ATOM     73  H35 non d ame     -36.706   5.672  28.286  0.00  0.00     0.036 H 
ATOM     74  H36 non d ame     -38.428   6.285  27.812  0.00  0.00     0.036 H 
BRANCH  72  75
ATOM     75  C25 non d ame     -37.515   4.866  26.420  0.00  0.00    -0.001 C 
ATOM     76  C26 non d ame     -38.599   5.300  25.262  0.00  0.00    -0.035 C 
ATOM     77  C27 non d ame     -39.484   4.289  25.093  0.00  0.00     0.085 C 
ATOM     78  H38 non d ame     -39.217   6.123  25.619  0.00  0.00     0.036 H 
ATOM     79  H39 non d ame     -38.103   5.370  24.294  0.00  0.00     0.036 H 
ATOM     80  N5  non d ame     -39.301   3.342  26.255  0.00  0.00    -0.049 N 
ATOM     81  H40 non d ame     -40.469   4.750  25.161  0.00  0.00     0.075 H 
ATOM     82  H41 non d ame     -39.180   3.787  24.175  0.00  0.00     0.075 H 
ATOM     83  C28 non d ame     -37.898   3.749  26.942  0.00  0.00     0.193 C 
ATOM     84  H42 non d ame     -40.048   3.541  26.906  0.00  0.00     0.280 HD
ATOM     85  H43 non d ame     -39.210   2.418  25.858  0.00  0.00     0.280 HD
ATOM     86  H44 non d ame     -37.008   3.140  26.784  0.00  0.00     0.129 H 
ATOM     87  H37 non d ame     -36.535   4.529  26.081  0.00  0.00     0.046 H 
BRANCH  83  88
ATOM     88  O6  non d ame     -38.052   3.841  28.359  0.00  0.00    -0.369 OA
ATOM     89  H45 non d ame     -38.846   3.372  28.626  0.00  0.00     0.212 HD
ENDBRANCH  83  88
ENDBRANCH  72  75
ENDBRANCH  47  72
ENDBRANCH  45  47
ENDBRANCH   1  43
BRANCH   1  90
ATOM     90  C16 non d ame     -32.395   5.612  27.197  0.00  0.00    -0.035 C 
ATOM     91  H21 non d ame     -31.940   5.069  26.370  0.00  0.00     0.037 H 
ATOM     92  H22 non d ame     -31.801   5.865  28.076  0.00  0.00     0.037 H 
BRANCH  90  93
ATOM     93  C17 non d ame     -33.580   4.731  27.705  0.00  0.00    -0.059 C 
ATOM     94  H23 non d ame     -34.502   5.285  27.532  0.00  0.00     0.038 H 
BRANCH  93  95
ATOM     95  C18 non d ame     -33.683   3.379  26.929  0.00  0.00    -0.073 C 
ATOM     96  H24 non d ame     -34.690   3.266  26.527  0.00  0.00     0.028 H 
ATOM     97  H25 non d ame     -32.964   3.374  26.110  0.00  0.00     0.028 H 
ATOM     98  H26 non d ame     -33.468   2.553  27.607  0.00  0.00     0.028 H 
ENDBRANCH  93  95
BRANCH  93  99
ATOM     99  C19 non d ame     -33.473   4.486  29.212  0.00  0.00    -0.073 C 
ATOM    100  H27 non d ame     -34.193   5.117  29.735  0.00  0.00     0.028 H 
ATOM    101  H28 non d ame     -33.685   3.438  29.427  0.00  0.00     0.028 H 
ATOM    102  H29 non d ame     -32.465   4.728  29.549  0.00  0.00     0.028 H 
ENDBRANCH  93  99
ENDBRANCH  90  93
ENDBRANCH   1  90
TORSDOF 26
ENDMDL
MODEL 8
REMARK VINA RESULT:      -6.5      2.810      9.038
REMARK  26 active torsions:
REMARK  status: ('A' for Active; 'I' for Inactive)
REMARK    1  A    between atoms: C2_2  and  C3_3 
REMARK    2  A    between atoms: C4_6  and  C5_7 
REMARK       I    between atoms: C5_7  and  N2_9 
REMARK    3  A    between atoms: N2_9  and  C6_10 
REMARK    4  A    between atoms: C6_10  and  C7_11 
REMARK    5  A    between atoms: C6_10  and  C8_13 
REMARK       I    between atoms: C7_11  and  N3_14 
REMARK    6  A    between atoms: N3_14  and  C9_15 
REMARK    7  A    between atoms: C9_15  and  C10_16 
REMARK    8  A    between atoms: C9_15  and  C11_18 
REMARK       I    between atoms: C10_16  and  N4_21 
REMARK    9  A    between atoms: C11_18  and  C12_19 
REMARK   10  A    between atoms: C11_18  and  C13_20 
REMARK   11  A    between atoms: N4_21  and  C14_22 
REMARK   12  A    between atoms: C14_22  and  C15_23 
REMARK   13  A    between atoms: C14_22  and  C16_25 
REMARK       I    between atoms: C15_23  and  N6_40 
REMARK   14  A    between atoms: C16_25  and  C17_26 
REMARK   15  A    between atoms: C17_26  and  C18_27 
REMARK   16  A    between atoms: C17_26  and  C19_28 
REMARK   17  A    between atoms: C20_29  and  C21_30 
REMARK   18  A    between atoms: C20_29  and  C24_33 
REMARK   19  A    between atoms: C20_29  and  N6_40 
REMARK   20  A    between atoms: C21_30  and  C22_31 
REMARK   21  A    between atoms: C22_31  and  C23_32 
REMARK   22  A    between atoms: C23_32  and  O8_43 
REMARK   23  A    between atoms: C24_33  and  C25_34 
REMARK   24  A    between atoms: C28_38  and  O6_39 
REMARK   25  A    between atoms: C29_42  and  O8_43 
REMARK   26  A    between atoms: C29_42  and  C35_49 
ROOT
ATOM      1  C14 non d ame     -33.031   9.368  27.559  0.00  0.00     0.089 C 
ATOM      2  H20 non d ame     -31.954   9.216  27.630  0.00  0.00     0.087 H 
ENDROOT
BRANCH   1   3
ATOM      3  N4  non d ame     -33.288  10.785  27.769  0.00  0.00    -0.346 N 
ATOM      4  C10 non d ame     -32.212  11.804  27.490  0.00  0.00     0.241 C 
ATOM      5  O4  non d ame     -31.145  11.459  27.100  0.00  0.00    -0.271 OA
ATOM      6  H19 non d ame     -34.202  11.058  28.103  0.00  0.00     0.163 HD
BRANCH   4   7
ATOM      7  C9  non d ame     -32.497  13.267  27.707  0.00  0.00     0.092 C 
ATOM      8  H11 non d ame     -32.045  13.844  26.901  0.00  0.00     0.088 H 
BRANCH   7   9
ATOM      9  N3  non d ame     -33.944  13.497  27.647  0.00  0.00    -0.346 N 
ATOM     10  C7  non d ame     -34.517  14.185  26.516  0.00  0.00     0.240 C 
ATOM     11  O3  non d ame     -33.829  14.560  25.647  0.00  0.00    -0.271 OA
ATOM     12  H10 non d ame     -34.550  13.181  28.390  0.00  0.00     0.163 HD
BRANCH  10  13
ATOM     13  C6  non d ame     -36.057  14.430  26.459  0.00  0.00     0.086 C 
ATOM     14  H6  non d ame     -36.482  14.673  27.432  0.00  0.00     0.086 H 
BRANCH  13  15
ATOM     15  N2  non d ame     -36.322  15.567  25.593  0.00  0.00    -0.343 N 
ATOM     16  C5  non d ame     -36.439  16.905  26.176  0.00  0.00     0.273 C 
ATOM     17  O2  non d ame     -36.322  17.056  27.343  0.00  0.00    -0.266 OA
ATOM     18  H5  non d ame     -36.423  15.429  24.597  0.00  0.00     0.163 HD
BRANCH  16  19
ATOM     19  C4  non d ame     -36.717  18.117  25.273  0.00  0.00     0.154 A 
ATOM     20  C1  non d ame     -37.648  18.192  24.189  0.00  0.00    -0.017 A 
ATOM     21  C2  non d ame     -37.521  19.508  23.691  0.00  0.00     0.077 A 
ATOM     22  H1  non d ame     -38.312  17.411  23.819  0.00  0.00     0.091 H 
ATOM     23  O1  non d ame     -36.622  20.110  24.413  0.00  0.00    -0.218 OA
ATOM     24  N1  non d ame     -36.138  19.319  25.343  0.00  0.00    -0.123 NA
BRANCH  21  25
ATOM     25  C3  non d ame     -38.295  20.110  22.526  0.00  0.00    -0.029 C 
ATOM     26  H2  non d ame     -39.224  19.558  22.383  0.00  0.00     0.036 H 
ATOM     27  H3  non d ame     -38.522  21.153  22.741  0.00  0.00     0.036 H 
ATOM     28  H4  non d ame     -37.693  20.049  21.619  0.00  0.00     0.036 H 
ENDBRANCH  21  25
ENDBRANCH  16  19
ENDBRANCH  13  15
BRANCH  13  29
ATOM     29  C8  non d ame     -36.745  13.201  25.921  0.00  0.00    -0.049 C 
ATOM     30  H7  non d ame     -37.814  13.263  26.125  0.00  0.00     0.030 H 
ATOM     31  H8  non d ame     -36.584  13.136  24.845  0.00  0.00     0.030 H 
ATOM     32  H9  non d ame     -36.334  12.314  26.404  0.00  0.00     0.030 H 
ENDBRANCH  13  29
ENDBRANCH  10  13
ENDBRANCH   7   9
BRANCH   7  33
ATOM     33  C11 non d ame     -31.965  13.697  29.106  0.00  0.00    -0.033 C 
ATOM     34  H12 non d ame     -32.495  14.605  29.394  0.00  0.00     0.042 H 
BRANCH  33  35
ATOM     35  C12 non d ame     -32.267  12.613  30.187  0.00  0.00    -0.071 C 
ATOM     36  H13 non d ame     -31.419  12.532  30.867  0.00  0.00     0.028 H 
ATOM     37  H14 non d ame     -33.157  12.898  30.748  0.00  0.00     0.028 H 
ATOM     38  H15 non d ame     -32.436  11.652  29.701  0.00  0.00     0.028 H 
ENDBRANCH  33  35
BRANCH  33  39
ATOM     39  C13 non d ame     -30.439  14.027  29.045  0.00  0.00    -0.071 C 
ATOM     40  H16 non d ame     -30.078  13.893  28.025  0.00  0.00     0.028 H 
ATOM     41  H17 non d ame     -30.277  15.060  29.356  0.00  0.00     0.028 H 
ATOM     42  H18 non d ame     -29.896  13.359  29.714  0.00  0.00     0.028 H 
ENDBRANCH  33  39
ENDBRANCH   7  33
ENDBRANCH   4   7
ENDBRANCH   1   3
BRANCH   1  43
ATOM     43  C15 non d ame     -33.591   8.964  26.164  0.00  0.00     0.240 C 
ATOM     44  O5  non d ame     -34.613   9.434  25.779  0.00  0.00    -0.271 OA
ATOM     45  N6  non d ame     -32.848   7.999  25.305  0.00  0.00    -0.355 N 
ATOM     46  H46 non d ame     -31.976   7.598  25.620  0.00  0.00     0.162 HD
BRANCH  45  47
ATOM     47  C20 non d ame     -33.392   7.626  23.982  0.00  0.00     0.013 C 
ATOM     48  H30 non d ame     -34.467   7.806  23.999  0.00  0.00     0.072 H 
BRANCH  47  49
ATOM     49  C21 non d ame     -33.117   6.162  23.722  0.00  0.00    -0.038 C 
ATOM     50  H31 non d ame     -33.135   6.047  22.638  0.00  0.00     0.036 H 
ATOM     51  H32 non d ame     -32.209   5.931  24.280  0.00  0.00     0.036 H 
BRANCH  49  52
ATOM     52  C22 non d ame     -34.220   5.237  24.279  0.00  0.00     0.018 C 
ATOM     53  H33 non d ame     -35.095   5.871  24.418  0.00  0.00     0.048 H 
ATOM     54  H34 non d ame     -34.265   4.387  23.597  0.00  0.00     0.048 H 
BRANCH  52  55
ATOM     55  C23 non d ame     -33.894   4.645  25.679  0.00  0.00     0.259 C 
ATOM     56  O7  non d ame     -33.560   3.511  25.791  0.00  0.00    -0.265 OA
BRANCH  55  57
ATOM     57  O8  non d ame     -34.012   5.473  26.830  0.00  0.00    -0.317 OA
BRANCH  57  58
ATOM     58  C29 non d ame     -33.704   4.809  28.059  0.00  0.00     0.052 C 
ATOM     59  H47 non d ame     -33.774   3.743  27.843  0.00  0.00     0.082 H 
ATOM     60  H48 non d ame     -32.760   5.236  28.396  0.00  0.00     0.082 H 
BRANCH  58  61
ATOM     61  C35 non d ame     -34.804   5.175  29.090  0.00  0.00    -0.034 A 
ATOM     62  C30 non d ame     -34.477   5.325  30.434  0.00  0.00    -0.075 A 
ATOM     63  C31 non d ame     -35.465   5.653  31.361  0.00  0.00    -0.082 A 
ATOM     64  H49 non d ame     -33.446   5.183  30.761  0.00  0.00     0.084 H 
ATOM     65  C32 non d ame     -36.785   5.831  30.940  0.00  0.00    -0.083 A 
ATOM     66  H50 non d ame     -35.205   5.771  32.413  0.00  0.00     0.083 H 
ATOM     67  C33 non d ame     -37.108   5.678  29.598  0.00  0.00    -0.082 A 
ATOM     68  H51 non d ame     -37.564   6.089  31.658  0.00  0.00     0.083 H 
ATOM     69  C34 non d ame     -36.123   5.351  28.668  0.00  0.00    -0.075 A 
ATOM     70  H52 non d ame     -38.139   5.815  29.273  0.00  0.00     0.083 H 
ATOM     71  H53 non d ame     -36.384   5.234  27.616  0.00  0.00     0.084 H 
ENDBRANCH  58  61
ENDBRANCH  57  58
ENDBRANCH  55  57
ENDBRANCH  52  55
ENDBRANCH  49  52
ENDBRANCH  47  49
BRANCH  47  72
ATOM     72  C24 non d ame     -32.731   8.470  22.895  0.00  0.00    -0.039 C 
ATOM     73  H35 non d ame     -32.714   7.838  22.007  0.00  0.00     0.036 H 
ATOM     74  H36 non d ame     -33.281   9.411  22.883  0.00  0.00     0.036 H 
BRANCH  72  75
ATOM     75  C25 non d ame     -31.209   8.817  23.257  0.00  0.00    -0.001 C 
ATOM     76  C26 non d ame     -31.045  10.435  23.495  0.00  0.00    -0.035 C 
ATOM     77  C27 non d ame     -30.016  10.885  22.737  0.00  0.00     0.085 C 
ATOM     78  H38 non d ame     -31.909  10.962  23.091  0.00  0.00     0.036 H 
ATOM     79  H39 non d ame     -30.714  10.632  24.515  0.00  0.00     0.036 H 
ATOM     80  N5  non d ame     -29.676   9.788  21.758  0.00  0.00    -0.049 N 
ATOM     81  H40 non d ame     -30.412  11.741  22.188  0.00  0.00     0.075 H 
ATOM     82  H41 non d ame     -29.183  11.018  23.426  0.00  0.00     0.075 H 
ATOM     83  C28 non d ame     -30.409   8.459  22.308  0.00  0.00     0.193 C 
ATOM     84  H42 non d ame     -30.098  10.047  20.878  0.00  0.00     0.280 HD
ATOM     85  H43 non d ame     -28.677   9.652  21.818  0.00  0.00     0.280 HD
ATOM     86  H44 non d ame     -29.838   7.680  22.814  0.00  0.00     0.129 H 
ATOM     87  H37 non d ame     -30.808   8.159  24.029  0.00  0.00     0.046 H 
BRANCH  83  88
ATOM     88  O6  non d ame     -31.097   7.799  21.244  0.00  0.00    -0.369 OA
ATOM     89  H45 non d ame     -31.650   8.432  20.779  0.00  0.00     0.212 HD
ENDBRANCH  83  88
ENDBRANCH  72  75
ENDBRANCH  47  72
ENDBRANCH  45  47
ENDBRANCH   1  43
BRANCH   1  90
ATOM     90  C16 non d ame     -33.736   8.570  28.643  0.00  0.00    -0.035 C 
ATOM     91  H21 non d ame     -34.355   7.847  28.113  0.00  0.00     0.037 H 
ATOM     92  H22 non d ame     -32.945   8.226  29.309  0.00  0.00     0.037 H 
BRANCH  90  93
ATOM     93  C17 non d ame     -34.708   9.424  29.518  0.00  0.00    -0.059 C 
ATOM     94  H23 non d ame     -34.463  10.474  29.356  0.00  0.00     0.038 H 
BRANCH  93  95
ATOM     95  C18 non d ame     -36.203   9.216  29.114  0.00  0.00    -0.073 C 
ATOM     96  H24 non d ame     -36.703   8.611  29.870  0.00  0.00     0.028 H 
ATOM     97  H25 non d ame     -36.698  10.184  29.038  0.00  0.00     0.028 H 
ATOM     98  H26 non d ame     -36.251   8.707  28.151  0.00  0.00     0.028 H 
ENDBRANCH  93  95
BRANCH  93  99
ATOM     99  C19 non d ame     -34.502   9.134  31.007  0.00  0.00    -0.073 C 
ATOM    100  H27 non d ame     -33.841   9.888  31.436  0.00  0.00     0.028 H 
ATOM    101  H28 non d ame     -35.463   9.160  31.520  0.00  0.00     0.028 H 
ATOM    102  H29 non d ame     -34.054   8.148  31.126  0.00  0.00     0.028 H 
ENDBRANCH  93  99
ENDBRANCH  90  93
ENDBRANCH   1  90
TORSDOF 26
ENDMDL
MODEL 9
REMARK VINA RESULT:      -6.5      2.649      6.855
REMARK  26 active torsions:
REMARK  status: ('A' for Active; 'I' for Inactive)
REMARK    1  A    between atoms: C2_2  and  C3_3 
REMARK    2  A    between atoms: C4_6  and  C5_7 
REMARK       I    between atoms: C5_7  and  N2_9 
REMARK    3  A    between atoms: N2_9  and  C6_10 
REMARK    4  A    between atoms: C6_10  and  C7_11 
REMARK    5  A    between atoms: C6_10  and  C8_13 
REMARK       I    between atoms: C7_11  and  N3_14 
REMARK    6  A    between atoms: N3_14  and  C9_15 
REMARK    7  A    between atoms: C9_15  and  C10_16 
REMARK    8  A    between atoms: C9_15  and  C11_18 
REMARK       I    between atoms: C10_16  and  N4_21 
REMARK    9  A    between atoms: C11_18  and  C12_19 
REMARK   10  A    between atoms: C11_18  and  C13_20 
REMARK   11  A    between atoms: N4_21  and  C14_22 
REMARK   12  A    between atoms: C14_22  and  C15_23 
REMARK   13  A    between atoms: C14_22  and  C16_25 
REMARK       I    between atoms: C15_23  and  N6_40 
REMARK   14  A    between atoms: C16_25  and  C17_26 
REMARK   15  A    between atoms: C17_26  and  C18_27 
REMARK   16  A    between atoms: C17_26  and  C19_28 
REMARK   17  A    between atoms: C20_29  and  C21_30 
REMARK   18  A    between atoms: C20_29  and  C24_33 
REMARK   19  A    between atoms: C20_29  and  N6_40 
REMARK   20  A    between atoms: C21_30  and  C22_31 
REMARK   21  A    between atoms: C22_31  and  C23_32 
REMARK   22  A    between atoms: C23_32  and  O8_43 
REMARK   23  A    between atoms: C24_33  and  C25_34 
REMARK   24  A    between atoms: C28_38  and  O6_39 
REMARK   25  A    between atoms: C29_42  and  O8_43 
REMARK   26  A    between atoms: C29_42  and  C35_49 
ROOT
ATOM      1  C14 non d ame     -32.521   8.618  24.942  0.00  0.00     0.089 C 
ATOM      2  H20 non d ame     -31.468   8.336  24.951  0.00  0.00     0.087 H 
ENDROOT
BRANCH   1   3
ATOM      3  N4  non d ame     -33.301   7.397  24.809  0.00  0.00    -0.346 N 
ATOM      4  C10 non d ame     -32.619   6.052  24.819  0.00  0.00     0.241 C 
ATOM      5  O4  non d ame     -31.440   5.978  24.934  0.00  0.00    -0.271 OA
ATOM      6  H19 non d ame     -34.303   7.482  24.710  0.00  0.00     0.163 HD
BRANCH   4   7
ATOM      7  C9  non d ame     -33.442   4.798  24.686  0.00  0.00     0.092 C 
ATOM      8  H11 non d ame     -32.831   3.938  24.958  0.00  0.00     0.088 H 
BRANCH   7   9
ATOM      9  N3  non d ame     -34.565   4.848  25.627  0.00  0.00    -0.346 N 
ATOM     10  C7  non d ame     -34.348   4.552  27.022  0.00  0.00     0.240 C 
ATOM     11  O3  non d ame     -33.278   4.271  27.404  0.00  0.00    -0.271 OA
ATOM     12  H10 non d ame     -35.494   5.087  25.313  0.00  0.00     0.163 HD
BRANCH  10  13
ATOM     13  C6  non d ame     -35.548   4.604  28.019  0.00  0.00     0.086 C 
ATOM     14  H6  non d ame     -35.432   3.913  28.854  0.00  0.00     0.086 H 
BRANCH  13  15
ATOM     15  N2  non d ame     -35.628   5.937  28.591  0.00  0.00    -0.343 N 
ATOM     16  C5  non d ame     -35.079   6.184  29.926  0.00  0.00     0.273 C 
ATOM     17  O2  non d ame     -34.577   5.303  30.533  0.00  0.00    -0.266 OA
ATOM     18  H5  non d ame     -36.062   6.684  28.067  0.00  0.00     0.163 HD
BRANCH  16  19
ATOM     19  C4  non d ame     -35.156   7.590  30.543  0.00  0.00     0.154 A 
ATOM     20  C1  non d ame     -35.122   7.927  31.933  0.00  0.00    -0.017 A 
ATOM     21  C2  non d ame     -35.223   9.336  31.967  0.00  0.00     0.077 A 
ATOM     22  H1  non d ame     -35.038   7.253  32.786  0.00  0.00     0.091 H 
ATOM     23  O1  non d ame     -35.304   9.749  30.736  0.00  0.00    -0.218 OA
ATOM     24  N1  non d ame     -35.267   8.748  29.887  0.00  0.00    -0.123 NA
BRANCH  21  25
ATOM     25  C3  non d ame     -35.235  10.209  33.216  0.00  0.00    -0.029 C 
ATOM     26  H2  non d ame     -35.427  11.243  32.934  0.00  0.00     0.036 H 
ATOM     27  H3  non d ame     -36.018   9.865  33.891  0.00  0.00     0.036 H 
ATOM     28  H4  non d ame     -34.269  10.141  33.715  0.00  0.00     0.036 H 
ENDBRANCH  21  25
ENDBRANCH  16  19
ENDBRANCH  13  15
BRANCH  13  29
ATOM     29  C8  non d ame     -36.826   4.276  27.290  0.00  0.00    -0.049 C 
ATOM     30  H7  non d ame     -36.627   3.519  26.531  0.00  0.00     0.030 H 
ATOM     31  H8  non d ame     -37.561   3.896  27.998  0.00  0.00     0.030 H 
ATOM     32  H9  non d ame     -37.212   5.177  26.812  0.00  0.00     0.030 H 
ENDBRANCH  13  29
ENDBRANCH  10  13
ENDBRANCH   7   9
BRANCH   7  33
ATOM     33  C11 non d ame     -33.992   4.691  23.233  0.00  0.00    -0.033 C 
ATOM     34  H12 non d ame     -34.287   5.692  22.919  0.00  0.00     0.042 H 
BRANCH  33  35
ATOM     35  C12 non d ame     -32.891   4.194  22.244  0.00  0.00    -0.071 C 
ATOM     36  H13 non d ame     -32.333   5.049  21.863  0.00  0.00     0.028 H 
ATOM     37  H14 non d ame     -32.212   3.521  22.766  0.00  0.00     0.028 H 
ATOM     38  H15 non d ame     -33.360   3.667  21.414  0.00  0.00     0.028 H 
ENDBRANCH  33  35
BRANCH  33  39
ATOM     39  C13 non d ame     -35.256   3.775  23.180  0.00  0.00    -0.071 C 
ATOM     40  H16 non d ame     -35.656   3.767  22.166  0.00  0.00     0.028 H 
ATOM     41  H17 non d ame     -34.983   2.760  23.471  0.00  0.00     0.028 H 
ATOM     42  H18 non d ame     -36.012   4.158  23.866  0.00  0.00     0.028 H 
ENDBRANCH  33  39
ENDBRANCH   7  33
ENDBRANCH   4   7
ENDBRANCH   1   3
BRANCH   1  43
ATOM     43  C15 non d ame     -32.947   9.337  26.254  0.00  0.00     0.240 C 
ATOM     44  O5  non d ame     -33.325   8.699  27.182  0.00  0.00    -0.271 OA
ATOM     45  N6  non d ame     -32.874  10.823  26.356  0.00  0.00    -0.355 N 
ATOM     46  H46 non d ame     -32.550  11.376  25.577  0.00  0.00     0.162 HD
BRANCH  45  47
ATOM     47  C20 non d ame     -33.282  11.491  27.611  0.00  0.00     0.013 C 
ATOM     48  H30 non d ame     -33.974  10.832  28.134  0.00  0.00     0.072 H 
BRANCH  47  49
ATOM     49  C21 non d ame     -33.964  12.800  27.282  0.00  0.00    -0.038 C 
ATOM     50  H31 non d ame     -35.005  12.673  27.581  0.00  0.00     0.036 H 
ATOM     51  H32 non d ame     -33.354  13.575  27.746  0.00  0.00     0.036 H 
BRANCH  49  52
ATOM     52  C22 non d ame     -33.979  13.103  25.768  0.00  0.00     0.018 C 
ATOM     53  H33 non d ame     -33.264  12.412  25.321  0.00  0.00     0.048 H 
ATOM     54  H34 non d ame     -35.027  13.071  25.470  0.00  0.00     0.048 H 
BRANCH  52  55
ATOM     55  C23 non d ame     -33.476  14.529  25.410  0.00  0.00     0.259 C 
ATOM     56  O7  non d ame     -34.245  15.380  25.100  0.00  0.00    -0.265 OA
BRANCH  55  57
ATOM     57  O8  non d ame     -32.081  14.805  25.445  0.00  0.00    -0.317 OA
BRANCH  57  58
ATOM     58  C29 non d ame     -31.281  13.855  24.734  0.00  0.00     0.052 C 
ATOM     59  H47 non d ame     -30.466  13.593  25.408  0.00  0.00     0.082 H 
ATOM     60  H48 non d ame     -31.973  13.087  24.390  0.00  0.00     0.082 H 
BRANCH  58  61
ATOM     61  C35 non d ame     -30.682  14.568  23.492  0.00  0.00    -0.034 A 
ATOM     62  C30 non d ame     -29.361  14.333  23.125  0.00  0.00    -0.075 A 
ATOM     63  C31 non d ame     -28.822  14.973  22.009  0.00  0.00    -0.082 A 
ATOM     64  H49 non d ame     -28.747  13.648  23.710  0.00  0.00     0.084 H 
ATOM     65  C32 non d ame     -29.609  15.853  21.262  0.00  0.00    -0.083 A 
ATOM     66  H50 non d ame     -27.787  14.786  21.723  0.00  0.00     0.083 H 
ATOM     67  C33 non d ame     -30.926  16.087  21.635  0.00  0.00    -0.082 A 
ATOM     68  H51 non d ame     -29.196  16.357  20.388  0.00  0.00     0.083 H 
ATOM     69  C34 non d ame     -31.469  15.448  22.747  0.00  0.00    -0.075 A 
ATOM     70  H52 non d ame     -31.537  16.776  21.051  0.00  0.00     0.083 H 
ATOM     71  H53 non d ame     -32.505  15.636  23.033  0.00  0.00     0.084 H 
ENDBRANCH  58  61
ENDBRANCH  57  58
ENDBRANCH  55  57
ENDBRANCH  52  55
ENDBRANCH  49  52
ENDBRANCH  47  49
BRANCH  47  72
ATOM     72  C24 non d ame     -32.052  11.762  28.475  0.00  0.00    -0.039 C 
ATOM     73  H35 non d ame     -31.937  10.876  29.102  0.00  0.00     0.036 H 
ATOM     74  H36 non d ame     -31.262  12.041  27.777  0.00  0.00     0.036 H 
BRANCH  72  75
ATOM     75  C25 non d ame     -32.278  13.008  29.456  0.00  0.00    -0.001 C 
ATOM     76  C26 non d ame     -31.449  14.315  28.901  0.00  0.00    -0.035 C 
ATOM     77  C27 non d ame     -30.699  14.817  29.911  0.00  0.00     0.085 C 
ATOM     78  H38 non d ame     -30.709  14.003  28.164  0.00  0.00     0.036 H 
ATOM     79  H39 non d ame     -32.140  15.126  28.670  0.00  0.00     0.036 H 
ATOM     80  N5  non d ame     -30.687  13.781  31.009  0.00  0.00    -0.049 N 
ATOM     81  H40 non d ame     -29.692  14.915  29.504  0.00  0.00     0.075 H 
ATOM     82  H41 non d ame     -31.233  15.699  30.260  0.00  0.00     0.075 H 
ATOM     83  C28 non d ame     -31.870  12.742  30.652  0.00  0.00     0.193 C 
ATOM     84  H42 non d ame     -29.803  13.298  30.938  0.00  0.00     0.280 HD
ATOM     85  H43 non d ame     -30.931  14.266  31.861  0.00  0.00     0.280 HD
ATOM     86  H44 non d ame     -32.815  12.771  31.195  0.00  0.00     0.129 H 
ATOM     87  H37 non d ame     -33.330  13.155  29.700  0.00  0.00     0.046 H 
BRANCH  83  88
ATOM     88  O6  non d ame     -31.400  11.399  30.775  0.00  0.00    -0.369 OA
ATOM     89  H45 non d ame     -30.922  11.301  31.602  0.00  0.00     0.212 HD
ENDBRANCH  83  88
ENDBRANCH  72  75
ENDBRANCH  47  72
ENDBRANCH  45  47
ENDBRANCH   1  43
BRANCH   1  90
ATOM     90  C16 non d ame     -32.802   9.520  23.750  0.00  0.00    -0.035 C 
ATOM     91  H21 non d ame     -33.572   9.005  23.175  0.00  0.00     0.037 H 
ATOM     92  H22 non d ame     -33.005  10.503  24.174  0.00  0.00     0.037 H 
BRANCH  90  93
ATOM     93  C17 non d ame     -31.580   9.694  22.794  0.00  0.00    -0.059 C 
ATOM     94  H23 non d ame     -31.879  10.372  21.995  0.00  0.00     0.038 H 
BRANCH  93  95
ATOM     95  C18 non d ame     -30.349  10.326  23.520  0.00  0.00    -0.073 C 
ATOM     96  H24 non d ame     -29.888   9.582  24.168  0.00  0.00     0.028 H 
ATOM     97  H25 non d ame     -29.624  10.663  22.779  0.00  0.00     0.028 H 
ATOM     98  H26 non d ame     -30.678  11.176  24.118  0.00  0.00     0.028 H 
ENDBRANCH  93  95
BRANCH  93  99
ATOM     99  C19 non d ame     -31.202   8.362  22.142  0.00  0.00    -0.073 C 
ATOM    100  H27 non d ame     -30.637   7.757  22.851  0.00  0.00     0.028 H 
ATOM    101  H28 non d ame     -32.108   7.829  21.851  0.00  0.00     0.028 H 
ATOM    102  H29 non d ame     -30.593   8.550  21.258  0.00  0.00     0.028 H 
ENDBRANCH  93  99
ENDBRANCH  90  93
ENDBRANCH   1  90
TORSDOF 26
ENDMDL
MODEL 10
REMARK VINA RESULT:      -6.4      2.571      6.343
REMARK  26 active torsions:
REMARK  status: ('A' for Active; 'I' for Inactive)
REMARK    1  A    between atoms: C2_2  and  C3_3 
REMARK    2  A    between atoms: C4_6  and  C5_7 
REMARK       I    between atoms: C5_7  and  N2_9 
REMARK    3  A    between atoms: N2_9  and  C6_10 
REMARK    4  A    between atoms: C6_10  and  C7_11 
REMARK    5  A    between atoms: C6_10  and  C8_13 
REMARK       I    between atoms: C7_11  and  N3_14 
REMARK    6  A    between atoms: N3_14  and  C9_15 
REMARK    7  A    between atoms: C9_15  and  C10_16 
REMARK    8  A    between atoms: C9_15  and  C11_18 
REMARK       I    between atoms: C10_16  and  N4_21 
REMARK    9  A    between atoms: C11_18  and  C12_19 
REMARK   10  A    between atoms: C11_18  and  C13_20 
REMARK   11  A    between atoms: N4_21  and  C14_22 
REMARK   12  A    between atoms: C14_22  and  C15_23 
REMARK   13  A    between atoms: C14_22  and  C16_25 
REMARK       I    between atoms: C15_23  and  N6_40 
REMARK   14  A    between atoms: C16_25  and  C17_26 
REMARK   15  A    between atoms: C17_26  and  C18_27 
REMARK   16  A    between atoms: C17_26  and  C19_28 
REMARK   17  A    between atoms: C20_29  and  C21_30 
REMARK   18  A    between atoms: C20_29  and  C24_33 
REMARK   19  A    between atoms: C20_29  and  N6_40 
REMARK   20  A    between atoms: C21_30  and  C22_31 
REMARK   21  A    between atoms: C22_31  and  C23_32 
REMARK   22  A    between atoms: C23_32  and  O8_43 
REMARK   23  A    between atoms: C24_33  and  C25_34 
REMARK   24  A    between atoms: C28_38  and  O6_39 
REMARK   25  A    between atoms: C29_42  and  O8_43 
REMARK   26  A    between atoms: C29_42  and  C35_49 
ROOT
ATOM      1  C14 non d ame     -32.387   9.480  24.187  0.00  0.00     0.089 C 
ATOM      2  H20 non d ame     -32.421   8.415  24.419  0.00  0.00     0.087 H 
ENDROOT
BRANCH   1   3
ATOM      3  N4  non d ame     -33.747   9.907  23.891  0.00  0.00    -0.346 N 
ATOM      4  C10 non d ame     -34.911   9.325  24.653  0.00  0.00     0.241 C 
ATOM      5  O4  non d ame     -34.728   8.511  25.497  0.00  0.00    -0.271 OA
ATOM      6  H19 non d ame     -33.881  10.599  23.167  0.00  0.00     0.163 HD
BRANCH   4   7
ATOM      7  C9  non d ame     -36.310   9.782  24.338  0.00  0.00     0.092 C 
ATOM      8  H11 non d ame     -36.957   9.570  25.189  0.00  0.00     0.088 H 
BRANCH   7   9
ATOM      9  N3  non d ame     -36.317  11.235  24.141  0.00  0.00    -0.346 N 
ATOM     10  C7  non d ame     -36.730  12.106  25.214  0.00  0.00     0.240 C 
ATOM     11  O3  non d ame     -37.062  11.654  26.242  0.00  0.00    -0.271 OA
ATOM     12  H10 non d ame     -36.036  11.639  23.259  0.00  0.00     0.163 HD
BRANCH  10  13
ATOM     13  C6  non d ame     -36.738  13.651  24.997  0.00  0.00     0.086 C 
ATOM     14  H6  non d ame     -37.014  14.201  25.896  0.00  0.00     0.086 H 
BRANCH  13  15
ATOM     15  N2  non d ame     -35.398  14.084  24.638  0.00  0.00    -0.343 N 
ATOM     16  C5  non d ame     -34.705  15.060  25.482  0.00  0.00     0.273 C 
ATOM     17  O2  non d ame     -35.236  15.493  26.445  0.00  0.00    -0.266 OA
ATOM     18  H5  non d ame     -34.953  13.710  23.812  0.00  0.00     0.163 HD
BRANCH  16  19
ATOM     19  C4  non d ame     -33.287  15.525  25.116  0.00  0.00     0.154 A 
ATOM     20  C1  non d ame     -32.403  14.933  24.159  0.00  0.00    -0.017 A 
ATOM     21  C2  non d ame     -31.237  15.730  24.200  0.00  0.00     0.077 A 
ATOM     22  H1  non d ame     -32.580  14.059  23.532  0.00  0.00     0.091 H 
ATOM     23  O1  non d ame     -31.439  16.668  25.078  0.00  0.00    -0.218 OA
ATOM     24  N1  non d ame     -32.628  16.569  25.627  0.00  0.00    -0.123 NA
BRANCH  21  25
ATOM     25  C3  non d ame     -29.978  15.528  23.367  0.00  0.00    -0.029 C 
ATOM     26  H2  non d ame     -30.193  14.853  22.540  0.00  0.00     0.036 H 
ATOM     27  H3  non d ame     -29.645  16.488  22.975  0.00  0.00     0.036 H 
ATOM     28  H4  non d ame     -29.194  15.099  23.992  0.00  0.00     0.036 H 
ENDBRANCH  21  25
ENDBRANCH  16  19
ENDBRANCH  13  15
BRANCH  13  29
ATOM     29  C8  non d ame     -37.706  14.002  23.896  0.00  0.00    -0.049 C 
ATOM     30  H7  non d ame     -37.242  13.809  22.929  0.00  0.00     0.030 H 
ATOM     31  H8  non d ame     -38.605  13.393  23.995  0.00  0.00     0.030 H 
ATOM     32  H9  non d ame     -37.972  15.056  23.968  0.00  0.00     0.030 H 
ENDBRANCH  13  29
ENDBRANCH  10  13
ENDBRANCH   7   9
BRANCH   7  33
ATOM     33  C11 non d ame     -36.805   9.083  23.038  0.00  0.00    -0.033 C 
ATOM     34  H12 non d ame     -35.963   9.042  22.346  0.00  0.00     0.042 H 
BRANCH  33  35
ATOM     35  C12 non d ame     -37.254   7.615  23.317  0.00  0.00    -0.071 C 
ATOM     36  H13 non d ame     -38.296   7.492  23.024  0.00  0.00     0.028 H 
ATOM     37  H14 non d ame     -36.631   6.929  22.744  0.00  0.00     0.028 H 
ATOM     38  H15 non d ame     -37.149   7.399  24.381  0.00  0.00     0.028 H 
ENDBRANCH  33  35
BRANCH  33  39
ATOM     39  C13 non d ame     -37.947   9.906  22.359  0.00  0.00    -0.071 C 
ATOM     40  H16 non d ame     -37.870  10.951  22.660  0.00  0.00     0.028 H 
ATOM     41  H17 non d ame     -37.854   9.831  21.275  0.00  0.00     0.028 H 
ATOM     42  H18 non d ame     -38.914   9.508  22.669  0.00  0.00     0.028 H 
ENDBRANCH  33  39
ENDBRANCH   7  33
ENDBRANCH   4   7
ENDBRANCH   1   3
BRANCH   1  43
ATOM     43  C15 non d ame     -31.850  10.324  25.378  0.00  0.00     0.240 C 
ATOM     44  O5  non d ame     -30.708  10.651  25.403  0.00  0.00    -0.271 OA
ATOM     45  N6  non d ame     -32.763  10.734  26.483  0.00  0.00    -0.355 N 
ATOM     46  H46 non d ame     -33.737  10.467  26.469  0.00  0.00     0.162 HD
BRANCH  45  47
ATOM     47  C20 non d ame     -32.238  11.538  27.607  0.00  0.00     0.013 C 
ATOM     48  H30 non d ame     -31.296  11.984  27.289  0.00  0.00     0.072 H 
BRANCH  47  49
ATOM     49  C21 non d ame     -32.007  10.638  28.800  0.00  0.00    -0.038 C 
ATOM     50  H31 non d ame     -31.342   9.849  28.449  0.00  0.00     0.036 H 
ATOM     51  H32 non d ame     -31.693  11.298  29.609  0.00  0.00     0.036 H 
BRANCH  49  52
ATOM     52  C22 non d ame     -33.297   9.940  29.282  0.00  0.00     0.018 C 
ATOM     53  H33 non d ame     -34.117  10.463  28.792  0.00  0.00     0.048 H 
ATOM     54  H34 non d ame     -33.143   8.876  29.100  0.00  0.00     0.048 H 
BRANCH  52  55
ATOM     55  C23 non d ame     -33.552  10.080  30.809  0.00  0.00     0.259 C 
ATOM     56  O7  non d ame     -33.027  10.945  31.431  0.00  0.00    -0.265 OA
BRANCH  55  57
ATOM     57  O8  non d ame     -34.412   9.152  31.459  0.00  0.00    -0.317 OA
BRANCH  57  58
ATOM     58  C29 non d ame     -35.205   8.366  30.565  0.00  0.00     0.052 C 
ATOM     59  H47 non d ame     -34.784   8.534  29.573  0.00  0.00     0.082 H 
ATOM     60  H48 non d ame     -35.219   7.362  30.987  0.00  0.00     0.082 H 
BRANCH  58  61
ATOM     61  C35 non d ame     -36.651   8.929  30.586  0.00  0.00    -0.034 A 
ATOM     62  C30 non d ame     -37.622   8.323  31.376  0.00  0.00    -0.075 A 
ATOM     63  C31 non d ame     -38.922   8.828  31.396  0.00  0.00    -0.082 A 
ATOM     64  H49 non d ame     -37.366   7.452  31.980  0.00  0.00     0.084 H 
ATOM     65  C32 non d ame     -39.249   9.943  30.619  0.00  0.00    -0.083 A 
ATOM     66  H50 non d ame     -39.680   8.352  32.017  0.00  0.00     0.083 H 
ATOM     67  C33 non d ame     -38.276  10.542  29.830  0.00  0.00    -0.082 A 
ATOM     68  H51 non d ame     -40.262  10.345  30.629  0.00  0.00     0.083 H 
ATOM     69  C34 non d ame     -36.976  10.042  29.809  0.00  0.00    -0.075 A 
ATOM     70  H52 non d ame     -38.535  11.411  29.223  0.00  0.00     0.083 H 
ATOM     71  H53 non d ame     -36.218  10.519  29.187  0.00  0.00     0.084 H 
ENDBRANCH  58  61
ENDBRANCH  57  58
ENDBRANCH  55  57
ENDBRANCH  52  55
ENDBRANCH  49  52
ENDBRANCH  47  49
BRANCH  47  72
ATOM     72  C24 non d ame     -33.243  12.628  27.977  0.00  0.00    -0.039 C 
ATOM     73  H35 non d ame     -33.876  12.749  27.098  0.00  0.00     0.036 H 
ATOM     74  H36 non d ame     -33.680  12.310  28.923  0.00  0.00     0.036 H 
BRANCH  72  75
ATOM     75  C25 non d ame     -32.522  14.034  28.238  0.00  0.00    -0.001 C 
ATOM     76  C26 non d ame     -30.944  13.948  27.782  0.00  0.00    -0.035 C 
ATOM     77  C27 non d ame     -30.171  14.391  28.803  0.00  0.00     0.085 C 
ATOM     78  H38 non d ame     -30.645  12.907  27.668  0.00  0.00     0.036 H 
ATOM     79  H39 non d ame     -30.746  14.664  26.984  0.00  0.00     0.036 H 
ATOM     80  N5  non d ame     -31.053  14.461  30.026  0.00  0.00    -0.049 N 
ATOM     81  H40 non d ame     -29.417  13.618  28.952  0.00  0.00     0.075 H 
ATOM     82  H41 non d ame     -29.870  15.400  28.524  0.00  0.00     0.075 H 
ATOM     83  C28 non d ame     -32.571  14.360  29.486  0.00  0.00     0.193 C 
ATOM     84  H42 non d ame     -30.850  13.637  30.573  0.00  0.00     0.280 HD
ATOM     85  H43 non d ame     -30.913  15.379  30.426  0.00  0.00     0.280 HD
ATOM     86  H44 non d ame     -33.200  15.248  29.435  0.00  0.00     0.129 H 
ATOM     87  H37 non d ame     -33.104  14.873  27.855  0.00  0.00     0.046 H 
BRANCH  83  88
ATOM     88  O6  non d ame     -33.308  13.413  30.262  0.00  0.00    -0.369 OA
ATOM     89  H45 non d ame     -33.994  13.869  30.756  0.00  0.00     0.212 HD
ENDBRANCH  83  88
ENDBRANCH  72  75
ENDBRANCH  47  72
ENDBRANCH  45  47
ENDBRANCH   1  43
BRANCH   1  90
ATOM     90  C16 non d ame     -31.517   9.712  22.962  0.00  0.00    -0.035 C 
ATOM     91  H21 non d ame     -32.206   9.997  22.168  0.00  0.00     0.037 H 
ATOM     92  H22 non d ame     -30.742  10.407  23.286  0.00  0.00     0.037 H 
BRANCH  90  93
ATOM     93  C17 non d ame     -30.779   8.429  22.465  0.00  0.00    -0.059 C 
ATOM     94  H23 non d ame     -31.123   8.221  21.452  0.00  0.00     0.038 H 
BRANCH  93  95
ATOM     95  C18 non d ame     -29.230   8.623  22.411  0.00  0.00    -0.073 C 
ATOM     96  H24 non d ame     -28.760   7.707  22.054  0.00  0.00     0.028 H 
ATOM     97  H25 non d ame     -28.989   9.442  21.733  0.00  0.00     0.028 H 
ATOM     98  H26 non d ame     -28.858   8.857  23.409  0.00  0.00     0.028 H 
ENDBRANCH  93  95
BRANCH  93  99
ATOM     99  C19 non d ame     -31.146   7.218  23.327  0.00  0.00    -0.073 C 
ATOM    100  H27 non d ame     -30.598   7.263  24.269  0.00  0.00     0.028 H 
ATOM    101  H28 non d ame     -32.217   7.228  23.530  0.00  0.00     0.028 H 
ATOM    102  H29 non d ame     -30.886   6.302  22.798  0.00  0.00     0.028 H 
ENDBRANCH  93  99
ENDBRANCH  90  93
ENDBRANCH   1  90
TORSDOF 26
ENDMDL
MODEL 11
REMARK VINA RESULT:      -6.4      2.867      7.968
REMARK  26 active torsions:
REMARK  status: ('A' for Active; 'I' for Inactive)
REMARK    1  A    between atoms: C2_2  and  C3_3 
REMARK    2  A    between atoms: C4_6  and  C5_7 
REMARK       I    between atoms: C5_7  and  N2_9 
REMARK    3  A    between atoms: N2_9  and  C6_10 
REMARK    4  A    between atoms: C6_10  and  C7_11 
REMARK    5  A    between atoms: C6_10  and  C8_13 
REMARK       I    between atoms: C7_11  and  N3_14 
REMARK    6  A    between atoms: N3_14  and  C9_15 
REMARK    7  A    between atoms: C9_15  and  C10_16 
REMARK    8  A    between atoms: C9_15  and  C11_18 
REMARK       I    between atoms: C10_16  and  N4_21 
REMARK    9  A    between atoms: C11_18  and  C12_19 
REMARK   10  A    between atoms: C11_18  and  C13_20 
REMARK   11  A    between atoms: N4_21  and  C14_22 
REMARK   12  A    between atoms: C14_22  and  C15_23 
REMARK   13  A    between atoms: C14_22  and  C16_25 
REMARK       I    between atoms: C15_23  and  N6_40 
REMARK   14  A    between atoms: C16_25  and  C17_26 
REMARK   15  A    between atoms: C17_26  and  C18_27 
REMARK   16  A    between atoms: C17_26  and  C19_28 
REMARK   17  A    between atoms: C20_29  and  C21_30 
REMARK   18  A    between atoms: C20_29  and  C24_33 
REMARK   19  A    between atoms: C20_29  and  N6_40 
REMARK   20  A    between atoms: C21_30  and  C22_31 
REMARK   21  A    between atoms: C22_31  and  C23_32 
REMARK   22  A    between atoms: C23_32  and  O8_43 
REMARK   23  A    between atoms: C24_33  and  C25_34 
REMARK   24  A    between atoms: C28_38  and  O6_39 
REMARK   25  A    between atoms: C29_42  and  O8_43 
REMARK   26  A    between atoms: C29_42  and  C35_49 
ROOT
ATOM      1  C14 non d ame     -36.350  14.245  25.243  0.00  0.00     0.089 C 
ATOM      2  H20 non d ame     -36.235  14.279  24.159  0.00  0.00     0.087 H 
ENDROOT
BRANCH   1   3
ATOM      3  N4  non d ame     -35.895  12.937  25.691  0.00  0.00    -0.346 N 
ATOM      4  C10 non d ame     -36.243  11.699  24.905  0.00  0.00     0.241 C 
ATOM      5  O4  non d ame     -36.893  11.779  23.916  0.00  0.00    -0.271 OA
ATOM      6  H19 non d ame     -35.345  12.890  26.537  0.00  0.00     0.163 HD
BRANCH   4   7
ATOM      7  C9  non d ame     -35.758  10.354  25.381  0.00  0.00     0.092 C 
ATOM      8  H11 non d ame     -35.751   9.658  24.542  0.00  0.00     0.088 H 
BRANCH   7   9
ATOM      9  N3  non d ame     -34.377  10.473  25.857  0.00  0.00    -0.346 N 
ATOM     10  C7  non d ame     -33.283  10.098  24.995  0.00  0.00     0.240 C 
ATOM     11  O3  non d ame     -33.497   9.697  23.916  0.00  0.00    -0.271 OA
ATOM     12  H10 non d ame     -34.177  10.815  26.786  0.00  0.00     0.163 HD
BRANCH  10  13
ATOM     13  C6  non d ame     -31.815  10.223  25.509  0.00  0.00     0.086 C 
ATOM     14  H6  non d ame     -31.217   9.338  25.295  0.00  0.00     0.086 H 
BRANCH  13  15
ATOM     15  N2  non d ame     -31.171  11.334  24.828  0.00  0.00    -0.343 N 
ATOM     16  C5  non d ame     -31.695  12.690  25.006  0.00  0.00     0.273 C 
ATOM     17  O2  non d ame     -32.636  12.876  25.696  0.00  0.00    -0.266 OA
ATOM     18  H5  non d ame     -30.368  11.166  24.238  0.00  0.00     0.163 HD
BRANCH  16  19
ATOM     19  C4  non d ame     -31.023  13.875  24.294  0.00  0.00     0.154 A 
ATOM     20  C1  non d ame     -30.327  13.850  23.044  0.00  0.00    -0.017 A 
ATOM     21  C2  non d ame     -29.905  15.182  22.836  0.00  0.00     0.077 A 
ATOM     22  H1  non d ame     -30.155  12.997  22.387  0.00  0.00     0.091 H 
ATOM     23  O1  non d ame     -30.316  15.882  23.853  0.00  0.00    -0.218 OA
ATOM     24  N1  non d ame     -30.971  15.141  24.717  0.00  0.00    -0.123 NA
BRANCH  21  25
ATOM     25  C3  non d ame     -29.115  15.702  21.643  0.00  0.00    -0.029 C 
ATOM     26  H2  non d ame     -28.609  16.628  21.917  0.00  0.00     0.036 H 
ATOM     27  H3  non d ame     -28.376  14.959  21.344  0.00  0.00     0.036 H 
ATOM     28  H4  non d ame     -29.795  15.892  20.812  0.00  0.00     0.036 H 
ENDBRANCH  21  25
ENDBRANCH  16  19
ENDBRANCH  13  15
BRANCH  13  29
ATOM     29  C8  non d ame     -31.819  10.461  26.997  0.00  0.00    -0.049 C 
ATOM     30  H7  non d ame     -30.793  10.560  27.352  0.00  0.00     0.030 H 
ATOM     31  H8  non d ame     -32.369  11.376  27.217  0.00  0.00     0.030 H 
ATOM     32  H9  non d ame     -32.298   9.620  27.499  0.00  0.00     0.030 H 
ENDBRANCH  13  29
ENDBRANCH  10  13
ENDBRANCH   7   9
BRANCH   7  33
ATOM     33  C11 non d ame     -36.665   9.859  26.546  0.00  0.00    -0.033 C 
ATOM     34  H12 non d ame     -37.214  10.721  26.924  0.00  0.00     0.042 H 
BRANCH  33  35
ATOM     35  C12 non d ame     -37.713   8.817  26.046  0.00  0.00    -0.071 C 
ATOM     36  H13 non d ame     -37.197   7.938  25.659  0.00  0.00     0.028 H 
ATOM     37  H14 non d ame     -38.358   8.524  26.875  0.00  0.00     0.028 H 
ATOM     38  H15 non d ame     -38.317   9.260  25.255  0.00  0.00     0.028 H 
ENDBRANCH  33  35
BRANCH  33  39
ATOM     39  C13 non d ame     -35.806   9.282  27.716  0.00  0.00    -0.071 C 
ATOM     40  H16 non d ame     -35.139   8.509  27.331  0.00  0.00     0.028 H 
ATOM     41  H17 non d ame     -35.215  10.082  28.163  0.00  0.00     0.028 H 
ATOM     42  H18 non d ame     -36.463   8.852  28.472  0.00  0.00     0.028 H 
ENDBRANCH  33  39
ENDBRANCH   7  33
ENDBRANCH   4   7
ENDBRANCH   1   3
BRANCH   1  43
ATOM     43  C15 non d ame     -35.504  15.337  25.958  0.00  0.00     0.240 C 
ATOM     44  O5  non d ame     -35.563  16.465  25.591  0.00  0.00    -0.271 OA
ATOM     45  N6  non d ame     -34.625  14.976  27.107  0.00  0.00    -0.355 N 
ATOM     46  H46 non d ame     -34.570  14.021  27.431  0.00  0.00     0.162 HD
BRANCH  45  47
ATOM     47  C20 non d ame     -33.828  16.026  27.778  0.00  0.00     0.013 C 
ATOM     48  H30 non d ame     -34.461  16.905  27.894  0.00  0.00     0.072 H 
BRANCH  47  49
ATOM     49  C21 non d ame     -32.627  16.363  26.923  0.00  0.00    -0.038 C 
ATOM     50  H31 non d ame     -31.757  16.185  27.554  0.00  0.00     0.036 H 
ATOM     51  H32 non d ame     -32.756  15.799  25.999  0.00  0.00     0.036 H 
BRANCH  49  52
ATOM     52  C22 non d ame     -32.578  17.854  26.521  0.00  0.00     0.018 C 
ATOM     53  H33 non d ame     -31.557  18.035  26.186  0.00  0.00     0.048 H 
ATOM     54  H34 non d ame     -33.412  18.002  25.835  0.00  0.00     0.048 H 
BRANCH  52  55
ATOM     55  C23 non d ame     -32.819  18.830  27.706  0.00  0.00     0.259 C 
ATOM     56  O7  non d ame     -32.218  18.705  28.723  0.00  0.00    -0.265 OA
BRANCH  55  57
ATOM     57  O8  non d ame     -33.779  19.870  27.567  0.00  0.00    -0.317 OA
BRANCH  57  58
ATOM     58  C29 non d ame     -35.110  19.486  27.924  0.00  0.00     0.052 C 
ATOM     59  H47 non d ame     -35.105  18.396  27.951  0.00  0.00     0.082 H 
ATOM     60  H48 non d ame     -35.350  20.053  28.824  0.00  0.00     0.082 H 
BRANCH  58  61
ATOM     61  C35 non d ame     -36.062  19.945  26.788  0.00  0.00    -0.034 A 
ATOM     62  C30 non d ame     -35.811  19.565  25.473  0.00  0.00    -0.075 A 
ATOM     63  C31 non d ame     -36.666  19.977  24.452  0.00  0.00    -0.082 A 
ATOM     64  H49 non d ame     -34.945  18.945  25.242  0.00  0.00     0.084 H 
ATOM     65  C32 non d ame     -37.775  20.775  24.749  0.00  0.00    -0.083 A 
ATOM     66  H50 non d ame     -36.468  19.676  23.423  0.00  0.00     0.083 H 
ATOM     67  C33 non d ame     -38.019  21.154  26.062  0.00  0.00    -0.082 A 
ATOM     68  H51 non d ame     -38.449  21.101  23.957  0.00  0.00     0.083 H 
ATOM     69  C34 non d ame     -37.169  20.742  27.086  0.00  0.00    -0.075 A 
ATOM     70  H52 non d ame     -38.884  21.778  26.290  0.00  0.00     0.083 H 
ATOM     71  H53 non d ame     -37.368  21.043  28.115  0.00  0.00     0.084 H 
ENDBRANCH  58  61
ENDBRANCH  57  58
ENDBRANCH  55  57
ENDBRANCH  52  55
ENDBRANCH  49  52
ENDBRANCH  47  49
BRANCH  47  72
ATOM     72  C24 non d ame     -33.358  15.525  29.142  0.00  0.00    -0.039 C 
ATOM     73  H35 non d ame     -33.084  16.420  29.701  0.00  0.00     0.036 H 
ATOM     74  H36 non d ame     -34.158  14.880  29.505  0.00  0.00     0.036 H 
BRANCH  72  75
ATOM     75  C25 non d ame     -32.040  14.622  29.020  0.00  0.00    -0.001 C 
ATOM     76  C26 non d ame     -32.361  13.092  29.531  0.00  0.00    -0.035 C 
ATOM     77  C27 non d ame     -31.426  12.732  30.443  0.00  0.00     0.085 C 
ATOM     78  H38 non d ame     -33.291  13.075  30.098  0.00  0.00     0.036 H 
ATOM     79  H39 non d ame     -32.206  12.386  28.715  0.00  0.00     0.036 H 
ATOM     80  N5  non d ame     -30.693  13.989  30.843  0.00  0.00    -0.049 N 
ATOM     81  H40 non d ame     -31.986  12.358  31.301  0.00  0.00     0.075 H 
ATOM     82  H41 non d ame     -30.740  12.074  29.912  0.00  0.00     0.075 H 
ATOM     83  C28 non d ame     -31.078  15.100  29.737  0.00  0.00     0.193 C 
ATOM     84  H42 non d ame     -31.077  14.274  31.733  0.00  0.00     0.280 HD
ATOM     85  H43 non d ame     -29.707  13.782  30.762  0.00  0.00     0.280 HD
ATOM     86  H44 non d ame     -30.368  15.375  28.958  0.00  0.00     0.129 H 
ATOM     87  H37 non d ame     -31.554  14.730  28.050  0.00  0.00     0.046 H 
BRANCH  83  88
ATOM     88  O6  non d ame     -31.439  16.326  30.375  0.00  0.00    -0.369 OA
ATOM     89  H45 non d ame     -30.837  16.497  31.104  0.00  0.00     0.212 HD
ENDBRANCH  83  88
ENDBRANCH  72  75
ENDBRANCH  47  72
ENDBRANCH  45  47
ENDBRANCH   1  43
BRANCH   1  90
ATOM     90  C16 non d ame     -37.816  14.413  25.610  0.00  0.00    -0.035 C 
ATOM     91  H21 non d ame     -38.222  13.402  25.647  0.00  0.00     0.037 H 
ATOM     92  H22 non d ame     -37.820  15.035  26.505  0.00  0.00     0.037 H 
BRANCH  90  93
ATOM     93  C17 non d ame     -38.647  15.182  24.534  0.00  0.00    -0.059 C 
ATOM     94  H23 non d ame     -39.645  14.745  24.513  0.00  0.00     0.038 H 
BRANCH  93  95
ATOM     95  C18 non d ame     -38.799  16.698  24.880  0.00  0.00    -0.073 C 
ATOM     96  H24 non d ame     -39.507  17.159  24.192  0.00  0.00     0.028 H 
ATOM     97  H25 non d ame     -39.165  16.803  25.901  0.00  0.00     0.028 H 
ATOM     98  H26 non d ame     -37.831  17.190  24.789  0.00  0.00     0.028 H 
ENDBRANCH  93  95
BRANCH  93  99
ATOM     99  C19 non d ame     -38.040  14.999  23.141  0.00  0.00    -0.073 C 
ATOM    100  H27 non d ame     -38.638  14.284  22.575  0.00  0.00     0.028 H 
ATOM    101  H28 non d ame     -38.031  15.957  22.620  0.00  0.00     0.028 H 
ATOM    102  H29 non d ame     -37.020  14.627  23.235  0.00  0.00     0.028 H 
ENDBRANCH  93  99
ENDBRANCH  90  93
ENDBRANCH   1  90
TORSDOF 26
ENDMDL
MODEL 12
REMARK VINA RESULT:      -6.4      2.952      7.613
REMARK  26 active torsions:
REMARK  status: ('A' for Active; 'I' for Inactive)
REMARK    1  A    between atoms: C2_2  and  C3_3 
REMARK    2  A    between atoms: C4_6  and  C5_7 
REMARK       I    between atoms: C5_7  and  N2_9 
REMARK    3  A    between atoms: N2_9  and  C6_10 
REMARK    4  A    between atoms: C6_10  and  C7_11 
REMARK    5  A    between atoms: C6_10  and  C8_13 
REMARK       I    between atoms: C7_11  and  N3_14 
REMARK    6  A    between atoms: N3_14  and  C9_15 
REMARK    7  A    between atoms: C9_15  and  C10_16 
REMARK    8  A    between atoms: C9_15  and  C11_18 
REMARK       I    between atoms: C10_16  and  N4_21 
REMARK    9  A    between atoms: C11_18  and  C12_19 
REMARK   10  A    between atoms: C11_18  and  C13_20 
REMARK   11  A    between atoms: N4_21  and  C14_22 
REMARK   12  A    between atoms: C14_22  and  C15_23 
REMARK   13  A    between atoms: C14_22  and  C16_25 
REMARK       I    between atoms: C15_23  and  N6_40 
REMARK   14  A    between atoms: C16_25  and  C17_26 
REMARK   15  A    between atoms: C17_26  and  C18_27 
REMARK   16  A    between atoms: C17_26  and  C19_28 
REMARK   17  A    between atoms: C20_29  and  C21_30 
REMARK   18  A    between atoms: C20_29  and  C24_33 
REMARK   19  A    between atoms: C20_29  and  N6_40 
REMARK   20  A    between atoms: C21_30  and  C22_31 
REMARK   21  A    between atoms: C22_31  and  C23_32 
REMARK   22  A    between atoms: C23_32  and  O8_43 
REMARK   23  A    between atoms: C24_33  and  C25_34 
REMARK   24  A    between atoms: C28_38  and  O6_39 
REMARK   25  A    between atoms: C29_42  and  O8_43 
REMARK   26  A    between atoms: C29_42  and  C35_49 
ROOT
ATOM      1  C14 non d ame     -32.823   7.424  25.169  0.00  0.00     0.089 C 
ATOM      2  H20 non d ame     -31.794   7.115  25.351  0.00  0.00     0.087 H 
ENDROOT
BRANCH   1   3
ATOM      3  N4  non d ame     -33.692   6.481  25.858  0.00  0.00    -0.346 N 
ATOM      4  C10 non d ame     -33.262   5.864  27.166  0.00  0.00     0.241 C 
ATOM      5  O4  non d ame     -32.211   6.141  27.643  0.00  0.00    -0.271 OA
ATOM      6  H19 non d ame     -34.581   6.257  25.435  0.00  0.00     0.163 HD
BRANCH   4   7
ATOM      7  C9  non d ame     -34.175   4.894  27.868  0.00  0.00     0.092 C 
ATOM      8  H11 non d ame     -33.639   4.433  28.697  0.00  0.00     0.088 H 
BRANCH   7   9
ATOM      9  N3  non d ame     -35.314   5.620  28.439  0.00  0.00    -0.346 N 
ATOM     10  C7  non d ame     -35.329   5.947  29.844  0.00  0.00     0.240 C 
ATOM     11  O3  non d ame     -34.434   5.631  30.529  0.00  0.00    -0.271 OA
ATOM     12  H10 non d ame     -36.094   5.898  27.860  0.00  0.00     0.163 HD
BRANCH  10  13
ATOM     13  C6  non d ame     -36.545   6.717  30.446  0.00  0.00     0.086 C 
ATOM     14  H6  non d ame     -36.313   7.192  31.399  0.00  0.00     0.086 H 
BRANCH  13  15
ATOM     15  N2  non d ame     -36.928   7.781  29.533  0.00  0.00    -0.343 N 
ATOM     16  C5  non d ame     -36.648   9.174  29.891  0.00  0.00     0.273 C 
ATOM     17  O2  non d ame     -36.117   9.427  30.916  0.00  0.00    -0.266 OA
ATOM     18  H5  non d ame     -37.384   7.556  28.660  0.00  0.00     0.163 HD
BRANCH  16  19
ATOM     19  C4  non d ame     -37.046  10.309  28.935  0.00  0.00     0.154 A 
ATOM     20  C1  non d ame     -36.319  10.772  27.792  0.00  0.00    -0.017 A 
ATOM     21  C2  non d ame     -37.104  11.820  27.262  0.00  0.00     0.077 A 
ATOM     22  H1  non d ame     -35.368  10.404  27.407  0.00  0.00     0.091 H 
ATOM     23  O1  non d ame     -38.157  11.936  28.018  0.00  0.00    -0.218 OA
ATOM     24  N1  non d ame     -38.145  11.065  29.001  0.00  0.00    -0.123 NA
BRANCH  21  25
ATOM     25  C3  non d ame     -36.778  12.657  26.033  0.00  0.00    -0.029 C 
ATOM     26  H2  non d ame     -37.554  13.409  25.888  0.00  0.00     0.036 H 
ATOM     27  H3  non d ame     -35.817  13.151  26.174  0.00  0.00     0.036 H 
ATOM     28  H4  non d ame     -36.730  12.012  25.156  0.00  0.00     0.036 H 
ENDBRANCH  21  25
ENDBRANCH  16  19
ENDBRANCH  13  15
BRANCH  13  29
ATOM     29  C8  non d ame     -37.698   5.766  30.643  0.00  0.00    -0.049 C 
ATOM     30  H7  non d ame     -38.634   6.277  30.417  0.00  0.00     0.030 H 
ATOM     31  H8  non d ame     -37.581   4.911  29.978  0.00  0.00     0.030 H 
ATOM     32  H9  non d ame     -37.713   5.422  31.678  0.00  0.00     0.030 H 
ENDBRANCH  13  29
ENDBRANCH  10  13
ENDBRANCH   7   9
BRANCH   7  33
ATOM     33  C11 non d ame     -34.695   3.840  26.847  0.00  0.00    -0.033 C 
ATOM     34  H12 non d ame     -34.579   4.263  25.849  0.00  0.00     0.042 H 
BRANCH  33  35
ATOM     35  C12 non d ame     -33.849   2.530  26.902  0.00  0.00    -0.071 C 
ATOM     36  H13 non d ame     -34.024   1.946  25.999  0.00  0.00     0.028 H 
ATOM     37  H14 non d ame     -32.791   2.783  26.971  0.00  0.00     0.028 H 
ATOM     38  H15 non d ame     -34.141   1.946  27.775  0.00  0.00     0.028 H 
ENDBRANCH  33  35
BRANCH  33  39
ATOM     39  C13 non d ame     -36.213   3.544  27.073  0.00  0.00    -0.071 C 
ATOM     40  H16 non d ame     -36.575   4.127  27.920  0.00  0.00     0.028 H 
ATOM     41  H17 non d ame     -36.773   3.816  26.177  0.00  0.00     0.028 H 
ATOM     42  H18 non d ame     -36.349   2.482  27.277  0.00  0.00     0.028 H 
ENDBRANCH  33  39
ENDBRANCH   7  33
ENDBRANCH   4   7
ENDBRANCH   1   3
BRANCH   1  43
ATOM     43  C15 non d ame     -33.112   8.852  25.714  0.00  0.00     0.240 C 
ATOM     44  O5  non d ame     -34.026   9.477  25.280  0.00  0.00    -0.271 OA
ATOM     45  N6  non d ame     -32.255   9.438  26.784  0.00  0.00    -0.355 N 
ATOM     46  H46 non d ame     -31.480   8.915  27.164  0.00  0.00     0.162 HD
BRANCH  45  47
ATOM     47  C20 non d ame     -32.544  10.796  27.292  0.00  0.00     0.013 C 
ATOM     48  H30 non d ame     -33.621  10.877  27.441  0.00  0.00     0.072 H 
BRANCH  47  49
ATOM     49  C21 non d ame     -32.085  11.818  26.277  0.00  0.00    -0.038 C 
ATOM     50  H31 non d ame     -31.340  12.428  26.788  0.00  0.00     0.036 H 
ATOM     51  H32 non d ame     -31.807  11.247  25.390  0.00  0.00     0.036 H 
BRANCH  49  52
ATOM     52  C22 non d ame     -33.212  12.779  25.842  0.00  0.00     0.018 C 
ATOM     53  H33 non d ame     -33.588  12.386  24.898  0.00  0.00     0.048 H 
ATOM     54  H34 non d ame     -33.877  12.862  26.702  0.00  0.00     0.048 H 
BRANCH  52  55
ATOM     55  C23 non d ame     -32.722  14.222  25.539  0.00  0.00     0.259 C 
ATOM     56  O7  non d ame     -33.503  15.107  25.395  0.00  0.00    -0.265 OA
BRANCH  55  57
ATOM     57  O8  non d ame     -31.327  14.474  25.422  0.00  0.00    -0.317 OA
BRANCH  57  58
ATOM     58  C29 non d ame     -31.010  15.794  24.971  0.00  0.00     0.052 C 
ATOM     59  H47 non d ame     -31.940  16.359  25.032  0.00  0.00     0.082 H 
ATOM     60  H48 non d ame     -30.144  16.106  25.556  0.00  0.00     0.082 H 
BRANCH  58  61
ATOM     61  C35 non d ame     -30.588  15.703  23.480  0.00  0.00    -0.034 A 
ATOM     62  C30 non d ame     -31.441  16.168  22.485  0.00  0.00    -0.075 A 
ATOM     63  C31 non d ame     -31.062  16.086  21.146  0.00  0.00    -0.082 A 
ATOM     64  H49 non d ame     -32.407  16.596  22.754  0.00  0.00     0.084 H 
ATOM     65  C32 non d ame     -29.825  15.534  20.803  0.00  0.00    -0.083 A 
ATOM     66  H50 non d ame     -31.733  16.452  20.368  0.00  0.00     0.083 H 
ATOM     67  C33 non d ame     -28.978  15.068  21.800  0.00  0.00    -0.082 A 
ATOM     68  H51 non d ame     -29.521  15.466  19.759  0.00  0.00     0.083 H 
ATOM     69  C34 non d ame     -29.352  15.150  23.140  0.00  0.00    -0.075 A 
ATOM     70  H52 non d ame     -28.014  14.636  21.529  0.00  0.00     0.083 H 
ATOM     71  H53 non d ame     -28.680  14.784  23.917  0.00  0.00     0.084 H 
ENDBRANCH  58  61
ENDBRANCH  57  58
ENDBRANCH  55  57
ENDBRANCH  52  55
ENDBRANCH  49  52
ENDBRANCH  47  49
BRANCH  47  72
ATOM     72  C24 non d ame     -31.808  11.022  28.611  0.00  0.00    -0.039 C 
ATOM     73  H35 non d ame     -32.158  10.233  29.278  0.00  0.00     0.036 H 
ATOM     74  H36 non d ame     -30.752  11.082  28.347  0.00  0.00     0.036 H 
BRANCH  72  75
ATOM     75  C25 non d ame     -32.208  12.420  29.283  0.00  0.00    -0.001 C 
ATOM     76  C26 non d ame     -31.162  13.593  28.800  0.00  0.00    -0.035 C 
ATOM     77  C27 non d ame     -30.691  14.235  29.896  0.00  0.00     0.085 C 
ATOM     78  H38 non d ame     -30.269  13.142  28.367  0.00  0.00     0.036 H 
ATOM     79  H39 non d ame     -31.697  14.372  28.258  0.00  0.00     0.036 H 
ATOM     80  N5  non d ame     -31.067  13.398  31.094  0.00  0.00    -0.049 N 
ATOM     81  H40 non d ame     -29.606  14.237  29.789  0.00  0.00     0.075 H 
ATOM     82  H41 non d ame     -31.236  15.178  29.937  0.00  0.00     0.075 H 
ATOM     83  C28 non d ame     -32.175  12.346  30.571  0.00  0.00     0.193 C 
ATOM     84  H42 non d ame     -30.237  12.886  31.358  0.00  0.00     0.280 HD
ATOM     85  H43 non d ame     -31.504  14.024  31.755  0.00  0.00     0.280 HD
ATOM     86  H44 non d ame     -33.230  12.491  30.805  0.00  0.00     0.129 H 
ATOM     87  H37 non d ame     -33.273  12.635  29.185  0.00  0.00     0.046 H 
BRANCH  83  88
ATOM     88  O6  non d ame     -31.860  11.030  31.028  0.00  0.00    -0.369 OA
ATOM     89  H45 non d ame     -32.657  10.604  31.352  0.00  0.00     0.212 HD
ENDBRANCH  83  88
ENDBRANCH  72  75
ENDBRANCH  47  72
ENDBRANCH  45  47
ENDBRANCH   1  43
BRANCH   1  90
ATOM     90  C16 non d ame     -33.121   7.375  23.679  0.00  0.00    -0.035 C 
ATOM     91  H21 non d ame     -33.855   6.579  23.558  0.00  0.00     0.037 H 
ATOM     92  H22 non d ame     -33.376   8.398  23.402  0.00  0.00     0.037 H 
BRANCH  90  93
ATOM     93  C17 non d ame     -31.889   6.975  22.807  0.00  0.00    -0.059 C 
ATOM     94  H23 non d ame     -31.019   6.935  23.462  0.00  0.00     0.038 H 
BRANCH  93  95
ATOM     95  C18 non d ame     -32.061   5.565  22.156  0.00  0.00    -0.073 C 
ATOM     96  H24 non d ame     -31.384   4.858  22.636  0.00  0.00     0.028 H 
ATOM     97  H25 non d ame     -33.089   5.228  22.285  0.00  0.00     0.028 H 
ATOM     98  H26 non d ame     -31.829   5.625  21.093  0.00  0.00     0.028 H 
ENDBRANCH  93  95
BRANCH  93  99
ATOM     99  C19 non d ame     -31.607   8.036  21.740  0.00  0.00    -0.073 C 
ATOM    100  H27 non d ame     -32.545   8.347  21.279  0.00  0.00     0.028 H 
ATOM    101  H28 non d ame     -31.127   8.899  22.203  0.00  0.00     0.028 H 
ATOM    102  H29 non d ame     -30.948   7.620  20.979  0.00  0.00     0.028 H 
ENDBRANCH  93  99
ENDBRANCH  90  93
ENDBRANCH   1  90
TORSDOF 26
ENDMDL
MODEL 13
REMARK VINA RESULT:      -6.3      2.361      6.502
REMARK  26 active torsions:
REMARK  status: ('A' for Active; 'I' for Inactive)
REMARK    1  A    between atoms: C2_2  and  C3_3 
REMARK    2  A    between atoms: C4_6  and  C5_7 
REMARK       I    between atoms: C5_7  and  N2_9 
REMARK    3  A    between atoms: N2_9  and  C6_10 
REMARK    4  A    between atoms: C6_10  and  C7_11 
REMARK    5  A    between atoms: C6_10  and  C8_13 
REMARK       I    between atoms: C7_11  and  N3_14 
REMARK    6  A    between atoms: N3_14  and  C9_15 
REMARK    7  A    between atoms: C9_15  and  C10_16 
REMARK    8  A    between atoms: C9_15  and  C11_18 
REMARK       I    between atoms: C10_16  and  N4_21 
REMARK    9  A    between atoms: C11_18  and  C12_19 
REMARK   10  A    between atoms: C11_18  and  C13_20 
REMARK   11  A    between atoms: N4_21  and  C14_22 
REMARK   12  A    between atoms: C14_22  and  C15_23 
REMARK   13  A    between atoms: C14_22  and  C16_25 
REMARK       I    between atoms: C15_23  and  N6_40 
REMARK   14  A    between atoms: C16_25  and  C17_26 
REMARK   15  A    between atoms: C17_26  and  C18_27 
REMARK   16  A    between atoms: C17_26  and  C19_28 
REMARK   17  A    between atoms: C20_29  and  C21_30 
REMARK   18  A    between atoms: C20_29  and  C24_33 
REMARK   19  A    between atoms: C20_29  and  N6_40 
REMARK   20  A    between atoms: C21_30  and  C22_31 
REMARK   21  A    between atoms: C22_31  and  C23_32 
REMARK   22  A    between atoms: C23_32  and  O8_43 
REMARK   23  A    between atoms: C24_33  and  C25_34 
REMARK   24  A    between atoms: C28_38  and  O6_39 
REMARK   25  A    between atoms: C29_42  and  O8_43 
REMARK   26  A    between atoms: C29_42  and  C35_49 
ROOT
ATOM      1  C14 non d ame     -32.018  12.363  27.167  0.00  0.00     0.089 C 
ATOM      2  H20 non d ame     -32.934  12.079  27.686  0.00  0.00     0.087 H 
ENDROOT
BRANCH   1   3
ATOM      3  N4  non d ame     -31.609  11.231  26.349  0.00  0.00    -0.346 N 
ATOM      4  C10 non d ame     -32.632  10.239  25.855  0.00  0.00     0.241 C 
ATOM      5  O4  non d ame     -33.779  10.371  26.133  0.00  0.00    -0.271 OA
ATOM      6  H19 non d ame     -30.629  11.136  26.126  0.00  0.00     0.163 HD
BRANCH   4   7
ATOM      7  C9  non d ame     -32.192   9.077  25.004  0.00  0.00     0.092 C 
ATOM      8  H11 non d ame     -31.197   8.760  25.317  0.00  0.00     0.088 H 
BRANCH   7   9
ATOM      9  N3  non d ame     -33.096   7.943  25.220  0.00  0.00    -0.346 N 
ATOM     10  C7  non d ame     -32.576   6.597  25.216  0.00  0.00     0.240 C 
ATOM     11  O3  non d ame     -31.435   6.409  25.039  0.00  0.00    -0.271 OA
ATOM     12  H10 non d ame     -34.083   8.090  25.373  0.00  0.00     0.163 HD
BRANCH  10  13
ATOM     13  C6  non d ame     -33.543   5.394  25.444  0.00  0.00     0.086 C 
ATOM     14  H6  non d ame     -33.016   4.463  25.650  0.00  0.00     0.086 H 
BRANCH  13  15
ATOM     15  N2  non d ame     -34.372   5.669  26.605  0.00  0.00    -0.343 N 
ATOM     16  C5  non d ame     -33.931   5.221  27.928  0.00  0.00     0.273 C 
ATOM     17  O2  non d ame     -32.910   4.638  28.047  0.00  0.00    -0.266 OA
ATOM     18  H5  non d ame     -35.245   6.165  26.495  0.00  0.00     0.163 HD
BRANCH  16  19
ATOM     19  C4  non d ame     -34.797   5.506  29.166  0.00  0.00     0.154 A 
ATOM     20  C1  non d ame     -36.150   5.973  29.186  0.00  0.00    -0.017 A 
ATOM     21  C2  non d ame     -36.480   6.071  30.556  0.00  0.00     0.077 A 
ATOM     22  H1  non d ame     -36.793   6.205  28.337  0.00  0.00     0.091 H 
ATOM     23  O1  non d ame     -35.434   5.700  31.234  0.00  0.00    -0.218 OA
ATOM     24  N1  non d ame     -34.439   5.366  30.445  0.00  0.00    -0.123 NA
BRANCH  21  25
ATOM     25  C3  non d ame     -37.815   6.525  31.131  0.00  0.00    -0.029 C 
ATOM     26  H2  non d ame     -38.184   7.378  30.562  0.00  0.00     0.036 H 
ATOM     27  H3  non d ame     -38.534   5.709  31.069  0.00  0.00     0.036 H 
ATOM     28  H4  non d ame     -37.682   6.814  32.174  0.00  0.00     0.036 H 
ENDBRANCH  21  25
ENDBRANCH  16  19
ENDBRANCH  13  15
BRANCH  13  29
ATOM     29  C8  non d ame     -34.409   5.204  24.224  0.00  0.00    -0.049 C 
ATOM     30  H7  non d ame     -34.407   6.119  23.631  0.00  0.00     0.030 H 
ATOM     31  H8  non d ame     -34.018   4.382  23.625  0.00  0.00     0.030 H 
ATOM     32  H9  non d ame     -35.429   4.975  24.535  0.00  0.00     0.030 H 
ENDBRANCH  13  29
ENDBRANCH  10  13
ENDBRANCH   7   9
BRANCH   7  33
ATOM     33  C11 non d ame     -32.231   9.489  23.503  0.00  0.00    -0.033 C 
ATOM     34  H12 non d ame     -32.407  10.564  23.462  0.00  0.00     0.042 H 
BRANCH  33  35
ATOM     35  C12 non d ame     -30.866   9.209  22.801  0.00  0.00    -0.071 C 
ATOM     36  H13 non d ame     -30.127   9.934  23.142  0.00  0.00     0.028 H 
ATOM     37  H14 non d ame     -30.530   8.203  23.050  0.00  0.00     0.028 H 
ATOM     38  H15 non d ame     -30.989   9.296  21.722  0.00  0.00     0.028 H 
ENDBRANCH  33  35
BRANCH  33  39
ATOM     39  C13 non d ame     -33.407   8.779  22.759  0.00  0.00    -0.071 C 
ATOM     40  H16 non d ame     -34.253   9.463  22.680  0.00  0.00     0.028 H 
ATOM     41  H17 non d ame     -33.081   8.487  21.760  0.00  0.00     0.028 H 
ATOM     42  H18 non d ame     -33.707   7.892  23.316  0.00  0.00     0.028 H 
ENDBRANCH  33  39
ENDBRANCH   7  33
ENDBRANCH   4   7
ENDBRANCH   1   3
BRANCH   1  43
ATOM     43  C15 non d ame     -32.225  13.595  26.241  0.00  0.00     0.240 C 
ATOM     44  O5  non d ame     -33.145  13.621  25.489  0.00  0.00    -0.271 OA
ATOM     45  N6  non d ame     -31.281  14.748  26.298  0.00  0.00    -0.355 N 
ATOM     46  H46 non d ame     -30.499  14.739  26.936  0.00  0.00     0.162 HD
BRANCH  45  47
ATOM     47  C20 non d ame     -31.493  15.913  25.412  0.00  0.00     0.013 C 
ATOM     48  H30 non d ame     -30.599  16.534  25.456  0.00  0.00     0.072 H 
BRANCH  47  49
ATOM     49  C21 non d ame     -32.692  16.697  25.895  0.00  0.00    -0.038 C 
ATOM     50  H31 non d ame     -32.706  17.611  25.300  0.00  0.00     0.036 H 
ATOM     51  H32 non d ame     -33.533  16.005  25.850  0.00  0.00     0.036 H 
BRANCH  49  52
ATOM     52  C22 non d ame     -32.566  17.136  27.369  0.00  0.00     0.018 C 
ATOM     53  H33 non d ame     -33.364  16.619  27.901  0.00  0.00     0.048 H 
ATOM     54  H34 non d ame     -31.525  16.960  27.642  0.00  0.00     0.048 H 
BRANCH  52  55
ATOM     55  C23 non d ame     -32.816  18.654  27.594  0.00  0.00     0.259 C 
ATOM     56  O7  non d ame     -32.064  19.461  27.151  0.00  0.00    -0.265 OA
BRANCH  55  57
ATOM     57  O8  non d ame     -33.948  19.070  28.347  0.00  0.00    -0.317 OA
BRANCH  57  58
ATOM     58  C29 non d ame     -35.154  18.374  28.018  0.00  0.00     0.052 C 
ATOM     59  H47 non d ame     -34.838  17.454  27.525  0.00  0.00     0.082 H 
ATOM     60  H48 non d ame     -35.729  18.326  28.943  0.00  0.00     0.082 H 
BRANCH  58  61
ATOM     61  C35 non d ame     -35.940  19.235  26.994  0.00  0.00    -0.034 A 
ATOM     62  C30 non d ame     -36.610  20.379  27.416  0.00  0.00    -0.075 A 
ATOM     63  C31 non d ame     -37.317  21.153  26.496  0.00  0.00    -0.082 A 
ATOM     64  H49 non d ame     -36.583  20.669  28.466  0.00  0.00     0.084 H 
ATOM     65  C32 non d ame     -37.354  20.778  25.151  0.00  0.00    -0.083 A 
ATOM     66  H50 non d ame     -37.840  22.050  26.830  0.00  0.00     0.083 H 
ATOM     67  C33 non d ame     -36.686  19.634  24.736  0.00  0.00    -0.082 A 
ATOM     68  H51 non d ame     -37.903  21.378  24.425  0.00  0.00     0.083 H 
ATOM     69  C34 non d ame     -35.977  18.858  25.651  0.00  0.00    -0.075 A 
ATOM     70  H52 non d ame     -36.719  19.342  23.685  0.00  0.00     0.083 H 
ATOM     71  H53 non d ame     -35.454  17.962  25.317  0.00  0.00     0.084 H 
ENDBRANCH  58  61
ENDBRANCH  57  58
ENDBRANCH  55  57
ENDBRANCH  52  55
ENDBRANCH  49  52
ENDBRANCH  47  49
BRANCH  47  72
ATOM     72  C24 non d ame     -31.738  15.436  23.981  0.00  0.00    -0.039 C 
ATOM     73  H35 non d ame     -31.998  14.381  24.068  0.00  0.00     0.036 H 
ATOM     74  H36 non d ame     -32.454  16.141  23.559  0.00  0.00     0.036 H 
BRANCH  72  75
ATOM     75  C25 non d ame     -30.408  15.524  23.092  0.00  0.00    -0.001 C 
ATOM     76  C26 non d ame     -30.745  16.243  21.652  0.00  0.00    -0.035 C 
ATOM     77  C27 non d ame     -30.275  15.459  20.652  0.00  0.00     0.085 C 
ATOM     78  H38 non d ame     -31.821  16.255  21.482  0.00  0.00     0.036 H 
ATOM     79  H39 non d ame     -30.166  17.162  21.549  0.00  0.00     0.036 H 
ATOM     80  N5  non d ame     -29.942  14.119  21.261  0.00  0.00    -0.049 N 
ATOM     81  H40 non d ame     -31.109  15.339  19.961  0.00  0.00     0.075 H 
ATOM     82  H41 non d ame     -29.354  15.936  20.317  0.00  0.00     0.075 H 
ATOM     83  C28 non d ame     -29.923  14.350  22.859  0.00  0.00     0.193 C 
ATOM     84  H42 non d ame     -30.709  13.503  21.034  0.00  0.00     0.280 HD
ATOM     85  H43 non d ame     -29.005  13.893  20.958  0.00  0.00     0.280 HD
ATOM     86  H44 non d ame     -28.978  14.415  23.398  0.00  0.00     0.129 H 
ATOM     87  H37 non d ame     -29.560  15.913  23.655  0.00  0.00     0.046 H 
BRANCH  83  88
ATOM     88  O6  non d ame     -30.666  13.320  23.514  0.00  0.00    -0.369 OA
ATOM     89  H45 non d ame     -30.489  13.348  24.457  0.00  0.00     0.212 HD
ENDBRANCH  83  88
ENDBRANCH  72  75
ENDBRANCH  47  72
ENDBRANCH  45  47
ENDBRANCH   1  43
BRANCH   1  90
ATOM     90  C16 non d ame     -30.925  12.663  28.180  0.00  0.00    -0.035 C 
ATOM     91  H21 non d ame     -30.377  11.729  28.299  0.00  0.00     0.037 H 
ATOM     92  H22 non d ame     -30.416  13.549  27.801  0.00  0.00     0.037 H 
BRANCH  90  93
ATOM     93  C17 non d ame     -31.468  13.037  29.596  0.00  0.00    -0.059 C 
ATOM     94  H23 non d ame     -30.709  13.641  30.093  0.00  0.00     0.038 H 
BRANCH  93  95
ATOM     95  C18 non d ame     -32.777  13.888  29.519  0.00  0.00    -0.073 C 
ATOM     96  H24 non d ame     -32.671  14.649  28.747  0.00  0.00     0.028 H 
ATOM     97  H25 non d ame     -33.618  13.239  29.276  0.00  0.00     0.028 H 
ATOM     98  H26 non d ame     -32.955  14.368  30.481  0.00  0.00     0.028 H 
ENDBRANCH  93  95
BRANCH  93  99
ATOM     99  C19 non d ame     -31.682  11.784  30.448  0.00  0.00    -0.073 C 
ATOM    100  H27 non d ame     -30.907  11.052  30.220  0.00  0.00     0.028 H 
ATOM    101  H28 non d ame     -31.631  12.049  31.505  0.00  0.00     0.028 H 
ATOM    102  H29 non d ame     -32.661  11.358  30.229  0.00  0.00     0.028 H 
ENDBRANCH  93  99
ENDBRANCH  90  93
ENDBRANCH   1  90
TORSDOF 26
ENDMDL
MODEL 14
REMARK VINA RESULT:      -6.3      2.503      9.333
REMARK  26 active torsions:
REMARK  status: ('A' for Active; 'I' for Inactive)
REMARK    1  A    between atoms: C2_2  and  C3_3 
REMARK    2  A    between atoms: C4_6  and  C5_7 
REMARK       I    between atoms: C5_7  and  N2_9 
REMARK    3  A    between atoms: N2_9  and  C6_10 
REMARK    4  A    between atoms: C6_10  and  C7_11 
REMARK    5  A    between atoms: C6_10  and  C8_13 
REMARK       I    between atoms: C7_11  and  N3_14 
REMARK    6  A    between atoms: N3_14  and  C9_15 
REMARK    7  A    between atoms: C9_15  and  C10_16 
REMARK    8  A    between atoms: C9_15  and  C11_18 
REMARK       I    between atoms: C10_16  and  N4_21 
REMARK    9  A    between atoms: C11_18  and  C12_19 
REMARK   10  A    between atoms: C11_18  and  C13_20 
REMARK   11  A    between atoms: N4_21  and  C14_22 
REMARK   12  A    between atoms: C14_22  and  C15_23 
REMARK   13  A    between atoms: C14_22  and  C16_25 
REMARK       I    between atoms: C15_23  and  N6_40 
REMARK   14  A    between atoms: C16_25  and  C17_26 
REMARK   15  A    between atoms: C17_26  and  C18_27 
REMARK   16  A    between atoms: C17_26  and  C19_28 
REMARK   17  A    between atoms: C20_29  and  C21_30 
REMARK   18  A    between atoms: C20_29  and  C24_33 
REMARK   19  A    between atoms: C20_29  and  N6_40 
REMARK   20  A    between atoms: C21_30  and  C22_31 
REMARK   21  A    between atoms: C22_31  and  C23_32 
REMARK   22  A    between atoms: C23_32  and  O8_43 
REMARK   23  A    between atoms: C24_33  and  C25_34 
REMARK   24  A    between atoms: C28_38  and  O6_39 
REMARK   25  A    between atoms: C29_42  and  O8_43 
REMARK   26  A    between atoms: C29_42  and  C35_49 
ROOT
ATOM      1  C14 non d ame     -35.796   9.902  28.058  0.00  0.00     0.089 C 
ATOM      2  H20 non d ame     -35.738   9.062  28.751  0.00  0.00     0.087 H 
ENDROOT
BRANCH   1   3
ATOM      3  N4  non d ame     -34.697  10.803  28.369  0.00  0.00    -0.346 N 
ATOM      4  C10 non d ame     -33.353  10.254  28.775  0.00  0.00     0.241 C 
ATOM      5  O4  non d ame     -33.181   9.082  28.848  0.00  0.00    -0.271 OA
ATOM      6  H19 non d ame     -34.865  11.797  28.303  0.00  0.00     0.163 HD
BRANCH   4   7
ATOM      7  C9  non d ame     -32.225  11.202  29.087  0.00  0.00     0.092 C 
ATOM      8  H11 non d ame     -31.309  10.834  28.624  0.00  0.00     0.088 H 
BRANCH   7   9
ATOM      9  N3  non d ame     -32.512  12.514  28.500  0.00  0.00    -0.346 N 
ATOM     10  C7  non d ame     -32.003  12.844  27.191  0.00  0.00     0.240 C 
ATOM     11  O3  non d ame     -31.361  12.066  26.598  0.00  0.00    -0.271 OA
ATOM     12  H10 non d ame     -33.063  13.196  29.001  0.00  0.00     0.163 HD
BRANCH  10  13
ATOM     13  C6  non d ame     -32.309  14.243  26.573  0.00  0.00     0.086 C 
ATOM     14  H6  non d ame     -31.824  15.057  27.111  0.00  0.00     0.086 H 
BRANCH  13  15
ATOM     15  N2  non d ame     -31.796  14.280  25.213  0.00  0.00    -0.343 N 
ATOM     16  C5  non d ame     -31.164  15.503  24.714  0.00  0.00     0.273 C 
ATOM     17  O2  non d ame     -31.076  16.453  25.413  0.00  0.00    -0.266 OA
ATOM     18  H5  non d ame     -31.879  13.465  24.622  0.00  0.00     0.163 HD
BRANCH  16  19
ATOM     19  C4  non d ame     -30.616  15.556  23.279  0.00  0.00     0.154 A 
ATOM     20  C1  non d ame     -31.372  15.652  22.068  0.00  0.00    -0.017 A 
ATOM     21  C2  non d ame     -30.406  15.666  21.037  0.00  0.00     0.077 A 
ATOM     22  H1  non d ame     -32.455  15.703  21.954  0.00  0.00     0.091 H 
ATOM     23  O1  non d ame     -29.236  15.589  21.601  0.00  0.00    -0.218 OA
ATOM     24  N1  non d ame     -29.333  15.524  22.909  0.00  0.00    -0.123 NA
BRANCH  21  25
ATOM     25  C3  non d ame     -30.684  15.756  19.543  0.00  0.00    -0.029 C 
ATOM     26  H2  non d ame     -31.511  15.095  19.286  0.00  0.00     0.036 H 
ATOM     27  H3  non d ame     -30.946  16.782  19.283  0.00  0.00     0.036 H 
ATOM     28  H4  non d ame     -29.794  15.458  18.989  0.00  0.00     0.036 H 
ENDBRANCH  21  25
ENDBRANCH  16  19
ENDBRANCH  13  15
BRANCH  13  29
ATOM     29  C8  non d ame     -33.798  14.480  26.570  0.00  0.00    -0.049 C 
ATOM     30  H7  non d ame     -34.216  14.155  25.617  0.00  0.00     0.030 H 
ATOM     31  H8  non d ame     -34.258  13.913  27.379  0.00  0.00     0.030 H 
ATOM     32  H9  non d ame     -33.998  15.542  26.711  0.00  0.00     0.030 H 
ENDBRANCH  13  29
ENDBRANCH  10  13
ENDBRANCH   7   9
BRANCH   7  33
ATOM     33  C11 non d ame     -32.082  11.347  30.631  0.00  0.00    -0.033 C 
ATOM     34  H12 non d ame     -31.575  10.455  31.000  0.00  0.00     0.042 H 
BRANCH  33  35
ATOM     35  C12 non d ame     -31.199  12.577  31.007  0.00  0.00    -0.071 C 
ATOM     36  H13 non d ame     -30.434  12.271  31.721  0.00  0.00     0.028 H 
ATOM     37  H14 non d ame     -30.722  12.970  30.109  0.00  0.00     0.028 H 
ATOM     38  H15 non d ame     -31.824  13.350  31.454  0.00  0.00     0.028 H 
ENDBRANCH  33  35
BRANCH  33  39
ATOM     39  C13 non d ame     -33.483  11.425  31.317  0.00  0.00    -0.071 C 
ATOM     40  H16 non d ame     -33.432  12.100  32.172  0.00  0.00     0.028 H 
ATOM     41  H17 non d ame     -34.218  11.798  30.602  0.00  0.00     0.028 H 
ATOM     42  H18 non d ame     -33.778  10.432  31.655  0.00  0.00     0.028 H 
ENDBRANCH  33  39
ENDBRANCH   7  33
ENDBRANCH   4   7
ENDBRANCH   1   3
BRANCH   1  43
ATOM     43  C15 non d ame     -35.663   9.450  26.576  0.00  0.00     0.240 C 
ATOM     44  O5  non d ame     -36.286  10.006  25.730  0.00  0.00    -0.271 OA
ATOM     45  N6  non d ame     -34.751   8.329  26.209  0.00  0.00    -0.355 N 
ATOM     46  H46 non d ame     -34.214   7.852  26.917  0.00  0.00     0.162 HD
BRANCH  45  47
ATOM     47  C20 non d ame     -34.635   7.913  24.794  0.00  0.00     0.013 C 
ATOM     48  H30 non d ame     -35.161   8.646  24.184  0.00  0.00     0.072 H 
BRANCH  47  49
ATOM     49  C21 non d ame     -35.264   6.549  24.621  0.00  0.00    -0.038 C 
ATOM     50  H31 non d ame     -36.191   6.720  24.072  0.00  0.00     0.036 H 
ATOM     51  H32 non d ame     -34.485   5.917  24.194  0.00  0.00     0.036 H 
BRANCH  49  52
ATOM     52  C22 non d ame     -35.666   5.900  25.963  0.00  0.00     0.018 C 
ATOM     53  H33 non d ame     -35.698   6.713  26.687  0.00  0.00     0.048 H 
ATOM     54  H34 non d ame     -36.566   5.321  25.754  0.00  0.00     0.048 H 
BRANCH  52  55
ATOM     55  C23 non d ame     -34.621   4.886  26.506  0.00  0.00     0.259 C 
ATOM     56  O7  non d ame     -33.879   4.329  25.763  0.00  0.00    -0.265 OA
BRANCH  55  57
ATOM     57  O8  non d ame     -34.568   4.619  27.902  0.00  0.00    -0.317 OA
BRANCH  57  58
ATOM     58  C29 non d ame     -34.218   5.754  28.699  0.00  0.00     0.052 C 
ATOM     59  H47 non d ame     -33.403   5.422  29.342  0.00  0.00     0.082 H 
ATOM     60  H48 non d ame     -34.058   6.571  27.995  0.00  0.00     0.082 H 
BRANCH  58  61
ATOM     61  C35 non d ame     -35.437   6.107  29.592  0.00  0.00    -0.034 A 
ATOM     62  C30 non d ame     -35.315   7.073  30.586  0.00  0.00    -0.075 A 
ATOM     63  C31 non d ame     -36.410   7.390  31.389  0.00  0.00    -0.082 A 
ATOM     64  H49 non d ame     -34.363   7.581  30.736  0.00  0.00     0.084 H 
ATOM     65  C32 non d ame     -37.630   6.735  31.196  0.00  0.00    -0.083 A 
ATOM     66  H50 non d ame     -36.312   8.149  32.166  0.00  0.00     0.083 H 
ATOM     67  C33 non d ame     -37.745   5.769  30.206  0.00  0.00    -0.082 A 
ATOM     68  H51 non d ame     -38.491   6.977  31.819  0.00  0.00     0.083 H 
ATOM     69  C34 non d ame     -36.654   5.451  29.400  0.00  0.00    -0.075 A 
ATOM     70  H52 non d ame     -38.697   5.258  30.060  0.00  0.00     0.083 H 
ATOM     71  H53 non d ame     -36.753   4.692  28.623  0.00  0.00     0.084 H 
ENDBRANCH  58  61
ENDBRANCH  57  58
ENDBRANCH  55  57
ENDBRANCH  52  55
ENDBRANCH  49  52
ENDBRANCH  47  49
BRANCH  47  72
ATOM     72  C24 non d ame     -33.162   7.849  24.395  0.00  0.00    -0.039 C 
ATOM     73  H35 non d ame     -32.800   8.875  24.457  0.00  0.00     0.036 H 
ATOM     74  H36 non d ame     -32.723   7.077  25.027  0.00  0.00     0.036 H 
BRANCH  72  75
ATOM     75  C25 non d ame     -32.980   7.375  22.875  0.00  0.00    -0.001 C 
ATOM     76  C26 non d ame     -32.093   5.991  22.822  0.00  0.00    -0.035 C 
ATOM     77  C27 non d ame     -31.078   6.157  21.941  0.00  0.00     0.085 C 
ATOM     78  H38 non d ame     -31.583   5.838  23.773  0.00  0.00     0.036 H 
ATOM     79  H39 non d ame     -32.682   5.186  22.384  0.00  0.00     0.036 H 
ATOM     80  N5  non d ame     -30.998   7.633  21.633  0.00  0.00    -0.049 N 
ATOM     81  H40 non d ame     -30.177   5.855  22.475  0.00  0.00     0.075 H 
ATOM     82  H41 non d ame     -31.383   5.623  21.042  0.00  0.00     0.075 H 
ATOM     83  C28 non d ame     -32.376   8.275  22.174  0.00  0.00     0.193 C 
ATOM     84  H42 non d ame     -30.234   7.999  22.183  0.00  0.00     0.280 HD
ATOM     85  H43 non d ame     -30.978   7.713  20.626  0.00  0.00     0.280 HD
ATOM     86  H44 non d ame     -33.170   8.550  21.478  0.00  0.00     0.129 H 
ATOM     87  H37 non d ame     -33.922   7.382  22.325  0.00  0.00     0.046 H 
BRANCH  83  88
ATOM     88  O6  non d ame     -32.106   9.457  22.930  0.00  0.00    -0.369 OA
ATOM     89  H45 non d ame     -31.782  10.145  22.344  0.00  0.00     0.212 HD
ENDBRANCH  83  88
ENDBRANCH  72  75
ENDBRANCH  47  72
ENDBRANCH  45  47
ENDBRANCH   1  43
BRANCH   1  90
ATOM     90  C16 non d ame     -37.112  10.638  28.252  0.00  0.00    -0.035 C 
ATOM     91  H21 non d ame     -36.837  11.635  28.595  0.00  0.00     0.037 H 
ATOM     92  H22 non d ame     -37.653  10.515  27.313  0.00  0.00     0.037 H 
BRANCH  90  93
ATOM     93  C17 non d ame     -38.017  10.023  29.367  0.00  0.00    -0.059 C 
ATOM     94  H23 non d ame     -37.833   8.949  29.386  0.00  0.00     0.038 H 
BRANCH  93  95
ATOM     95  C18 non d ame     -37.675  10.590  30.782  0.00  0.00    -0.073 C 
ATOM     96  H24 non d ame     -37.212  11.570  30.679  0.00  0.00     0.028 H 
ATOM     97  H25 non d ame     -38.590  10.681  31.367  0.00  0.00     0.028 H 
ATOM     98  H26 non d ame     -36.987   9.913  31.288  0.00  0.00     0.028 H 
ENDBRANCH  93  95
BRANCH  93  99
ATOM     99  C19 non d ame     -39.499  10.225  29.042  0.00  0.00    -0.073 C 
ATOM    100  H27 non d ame     -39.803  11.228  29.343  0.00  0.00     0.028 H 
ATOM    101  H28 non d ame     -39.656  10.104  27.970  0.00  0.00     0.028 H 
ATOM    102  H29 non d ame     -40.093   9.488  29.581  0.00  0.00     0.028 H 
ENDBRANCH  93  99
ENDBRANCH  90  93
ENDBRANCH   1  90
TORSDOF 26
ENDMDL
