MODEL 1
REMARK VINA RESULT:      -6.8      0.000      0.000
REMARK  26 active torsions:
REMARK  status: ('A' for Active; 'I' for Inactive)
REMARK    1  A    between atoms: C2_2  and  C3_3 
REMARK    2  A    between atoms: C4_6  and  C5_7 
REMARK       I    between atoms: C5_7  and  N2_9 
REMARK    3  A    between atoms: N2_9  and  C6_10 
REMARK    4  A    between atoms: C6_10  and  C7_11 
REMARK    5  A    between atoms: C6_10  and  C8_13 
REMARK       I    between atoms: C7_11  and  N3_14 
REMARK    6  A    between atoms: N3_14  and  C9_15 
REMARK    7  A    between atoms: C9_15  and  C10_16 
REMARK    8  A    between atoms: C9_15  and  C11_18 
REMARK       I    between atoms: C10_16  and  N4_21 
REMARK    9  A    between atoms: C11_18  and  C12_19 
REMARK   10  A    between atoms: C11_18  and  C13_20 
REMARK   11  A    between atoms: N4_21  and  C14_22 
REMARK   12  A    between atoms: C14_22  and  C15_23 
REMARK   13  A    between atoms: C14_22  and  C16_25 
REMARK       I    between atoms: C15_23  and  N6_40 
REMARK   14  A    between atoms: C16_25  and  C17_26 
REMARK   15  A    between atoms: C17_26  and  C18_27 
REMARK   16  A    between atoms: C17_26  and  C19_28 
REMARK   17  A    between atoms: C20_29  and  C21_30 
REMARK   18  A    between atoms: C20_29  and  C24_33 
REMARK   19  A    between atoms: C20_29  and  N6_40 
REMARK   20  A    between atoms: C21_30  and  C22_31 
REMARK   21  A    between atoms: C22_31  and  C23_32 
REMARK   22  A    between atoms: C23_32  and  O8_43 
REMARK   23  A    between atoms: C24_33  and  C25_34 
REMARK   24  A    between atoms: C28_38  and  O6_39 
REMARK   25  A    between atoms: C29_42  and  O8_43 
REMARK   26  A    between atoms: C29_42  and  C35_49 
ROOT
ATOM      1  C14 non d ame     -37.346  13.792  25.289  0.00  0.00     0.089 C 
ATOM      2  H20 non d ame     -38.336  13.806  25.744  0.00  0.00     0.087 H 
ENDROOT
BRANCH   1   3
ATOM      3  N4  non d ame     -36.780  15.126  25.428  0.00  0.00    -0.346 N 
ATOM      4  C10 non d ame     -37.414  16.128  26.359  0.00  0.00     0.241 C 
ATOM      5  O4  non d ame     -38.381  15.840  26.984  0.00  0.00    -0.271 OA
ATOM      6  H19 non d ame     -35.959  15.352  24.886  0.00  0.00     0.163 HD
BRANCH   4   7
ATOM      7  C9  non d ame     -36.812  17.502  26.495  0.00  0.00     0.092 C 
ATOM      8  H11 non d ame     -37.222  17.987  27.381  0.00  0.00     0.088 H 
BRANCH   7   9
ATOM      9  N3  non d ame     -35.365  17.385  26.694  0.00  0.00    -0.346 N 
ATOM     10  C7  non d ame     -34.728  18.088  27.781  0.00  0.00     0.240 C 
ATOM     11  O3  non d ame     -35.365  18.754  28.503  0.00  0.00    -0.271 OA
ATOM     12  H10 non d ame     -34.802  16.816  26.079  0.00  0.00     0.163 HD
BRANCH  10  13
ATOM     13  C6  non d ame     -33.187  17.961  27.986  0.00  0.00     0.086 C 
ATOM     14  H6  non d ame     -32.846  18.418  28.916  0.00  0.00     0.086 H 
BRANCH  13  15
ATOM     15  N2  non d ame     -32.835  16.553  28.062  0.00  0.00    -0.343 N 
ATOM     16  C5  non d ame     -32.077  16.059  29.214  0.00  0.00     0.273 C 
ATOM     17  O2  non d ame     -31.752  16.804  30.072  0.00  0.00    -0.266 OA
ATOM     18  H5  non d ame     -33.115  15.924  27.322  0.00  0.00     0.163 HD
BRANCH  16  19
ATOM     19  C4  non d ame     -31.700  14.573  29.307  0.00  0.00     0.154 A 
ATOM     20  C1  non d ame     -32.531  13.496  29.753  0.00  0.00    -0.017 A 
ATOM     21  C2  non d ame     -31.721  12.344  29.648  0.00  0.00     0.077 A 
ATOM     22  H1  non d ame     -33.563  13.544  30.100  0.00  0.00     0.091 H 
ATOM     23  O1  non d ame     -30.563  12.724  29.193  0.00  0.00    -0.218 OA
ATOM     24  N1  non d ame     -30.526  14.021  28.986  0.00  0.00    -0.123 NA
BRANCH  21  25
ATOM     25  C3  non d ame     -32.129  10.920  30.001  0.00  0.00    -0.029 C 
ATOM     26  H2  non d ame     -32.908  10.943  30.762  0.00  0.00     0.036 H 
ATOM     27  H3  non d ame     -32.506  10.419  29.110  0.00  0.00     0.036 H 
ATOM     28  H4  non d ame     -31.264  10.378  30.383  0.00  0.00     0.036 H 
ENDBRANCH  21  25
ENDBRANCH  16  19
ENDBRANCH  13  15
BRANCH  13  29
ATOM     29  C8  non d ame     -32.468  18.612  26.832  0.00  0.00    -0.049 C 
ATOM     30  H7  non d ame     -32.404  19.686  27.003  0.00  0.00     0.030 H 
ATOM     31  H8  non d ame     -31.464  18.197  26.749  0.00  0.00     0.030 H 
ATOM     32  H9  non d ame     -33.017  18.423  25.909  0.00  0.00     0.030 H 
ENDBRANCH  13  29
ENDBRANCH  10  13
ENDBRANCH   7   9
BRANCH   7  33
ATOM     33  C11 non d ame     -37.090  18.320  25.200  0.00  0.00    -0.033 C 
ATOM     34  H12 non d ame     -36.993  17.640  24.354  0.00  0.00     0.042 H 
BRANCH  33  35
ATOM     35  C12 non d ame     -38.545  18.884  25.184  0.00  0.00    -0.071 C 
ATOM     36  H13 non d ame     -38.599  19.732  24.501  0.00  0.00     0.028 H 
ATOM     37  H14 non d ame     -39.232  18.106  24.853  0.00  0.00     0.028 H 
ATOM     38  H15 non d ame     -38.819  19.209  26.187  0.00  0.00     0.028 H 
ENDBRANCH  33  35
BRANCH  33  39
ATOM     39  C13 non d ame     -36.038  19.463  25.023  0.00  0.00    -0.071 C 
ATOM     40  H16 non d ame     -35.354  19.461  25.872  0.00  0.00     0.028 H 
ATOM     41  H17 non d ame     -35.476  19.300  24.103  0.00  0.00     0.028 H 
ATOM     42  H18 non d ame     -36.550  20.423  24.970  0.00  0.00     0.028 H 
ENDBRANCH  33  39
ENDBRANCH   7  33
ENDBRANCH   4   7
ENDBRANCH   1   3
BRANCH   1  43
ATOM     43  C15 non d ame     -36.394  12.776  25.983  0.00  0.00     0.240 C 
ATOM     44  O5  non d ame     -36.511  12.555  27.145  0.00  0.00    -0.271 OA
ATOM     45  N6  non d ame     -35.342  12.070  25.197  0.00  0.00    -0.355 N 
ATOM     46  H46 non d ame     -35.237  12.245  24.208  0.00  0.00     0.162 HD
BRANCH  45  47
ATOM     47  C20 non d ame     -34.447  11.106  25.871  0.00  0.00     0.013 C 
ATOM     48  H30 non d ame     -35.031  10.572  26.620  0.00  0.00     0.072 H 
BRANCH  47  49
ATOM     49  C21 non d ame     -33.316  11.856  26.537  0.00  0.00    -0.038 C 
ATOM     50  H31 non d ame     -33.792  12.594  27.183  0.00  0.00     0.036 H 
ATOM     51  H32 non d ame     -32.669  11.091  26.968  0.00  0.00     0.036 H 
BRANCH  49  52
ATOM     52  C22 non d ame     -32.449  12.648  25.534  0.00  0.00     0.018 C 
ATOM     53  H33 non d ame     -31.419  12.358  25.742  0.00  0.00     0.048 H 
ATOM     54  H34 non d ame     -32.882  12.454  24.553  0.00  0.00     0.048 H 
BRANCH  52  55
ATOM     55  C23 non d ame     -32.509  14.187  25.733  0.00  0.00     0.259 C 
ATOM     56  O7  non d ame     -33.553  14.738  25.864  0.00  0.00    -0.265 OA
BRANCH  55  57
ATOM     57  O8  non d ame     -31.299  14.936  25.745  0.00  0.00    -0.317 OA
BRANCH  57  58
ATOM     58  C29 non d ame     -31.297  16.053  24.851  0.00  0.00     0.052 C 
ATOM     59  H47 non d ame     -32.339  16.360  24.760  0.00  0.00     0.082 H 
ATOM     60  H48 non d ame     -30.557  16.747  25.249  0.00  0.00     0.082 H 
BRANCH  58  61
ATOM     61  C35 non d ame     -30.808  15.555  23.465  0.00  0.00    -0.034 A 
ATOM     62  C30 non d ame     -29.931  14.478  23.381  0.00  0.00    -0.075 A 
ATOM     63  C31 non d ame     -29.491  14.031  22.136  0.00  0.00    -0.082 A 
ATOM     64  H49 non d ame     -29.588  13.985  24.291  0.00  0.00     0.084 H 
ATOM     65  C32 non d ame     -29.930  14.667  20.972  0.00  0.00    -0.083 A 
ATOM     66  H50 non d ame     -28.805  13.186  22.074  0.00  0.00     0.083 H 
ATOM     67  C33 non d ame     -30.802  15.743  21.060  0.00  0.00    -0.082 A 
ATOM     68  H51 non d ame     -29.591  14.324  19.994  0.00  0.00     0.083 H 
ATOM     69  C34 non d ame     -31.246  16.192  22.303  0.00  0.00    -0.075 A 
ATOM     70  H52 non d ame     -31.140  16.239  20.150  0.00  0.00     0.083 H 
ATOM     71  H53 non d ame     -31.932  17.037  22.364  0.00  0.00     0.084 H 
ENDBRANCH  58  61
ENDBRANCH  57  58
ENDBRANCH  55  57
ENDBRANCH  52  55
ENDBRANCH  49  52
ENDBRANCH  47  49
BRANCH  47  72
ATOM     72  C24 non d ame     -33.876  10.127  24.846  0.00  0.00    -0.039 C 
ATOM     73  H35 non d ame     -34.594  10.115  24.026  0.00  0.00     0.036 H 
ATOM     74  H36 non d ame     -32.852  10.457  24.670  0.00  0.00     0.036 H 
BRANCH  72  75
ATOM     75  C25 non d ame     -33.799   8.637  25.429  0.00  0.00    -0.001 C 
ATOM     76  C26 non d ame     -34.376   8.607  26.968  0.00  0.00    -0.035 C 
ATOM     77  C27 non d ame     -33.467   7.995  27.764  0.00  0.00     0.085 C 
ATOM     78  H38 non d ame     -34.425   9.619  27.369  0.00  0.00     0.036 H 
ATOM     79  H39 non d ame     -35.248   7.955  27.029  0.00  0.00     0.036 H 
ATOM     80  N5  non d ame     -32.184   7.897  26.973  0.00  0.00    -0.049 N 
ATOM     81  H40 non d ame     -33.315   8.670  28.606  0.00  0.00     0.075 H 
ATOM     82  H41 non d ame     -33.856   6.992  27.933  0.00  0.00     0.075 H 
ATOM     83  C28 non d ame     -32.584   8.201  25.439  0.00  0.00     0.193 C 
ATOM     84  H42 non d ame     -31.587   8.642  27.303  0.00  0.00     0.280 HD
ATOM     85  H43 non d ame     -31.879   6.937  27.042  0.00  0.00     0.280 HD
ATOM     86  H44 non d ame     -32.659   7.389  24.715  0.00  0.00     0.129 H 
ATOM     87  H37 non d ame     -34.203   7.901  24.734  0.00  0.00     0.046 H 
BRANCH  83  88
ATOM     88  O6  non d ame     -31.670   9.139  24.868  0.00  0.00    -0.369 OA
ATOM     89  H45 non d ame     -31.743   9.978  25.329  0.00  0.00     0.212 HD
ENDBRANCH  83  88
ENDBRANCH  72  75
ENDBRANCH  47  72
ENDBRANCH  45  47
ENDBRANCH   1  43
BRANCH   1  90
ATOM     90  C16 non d ame     -37.463  13.455  23.811  0.00  0.00    -0.035 C 
ATOM     91  H21 non d ame     -36.438  13.363  23.453  0.00  0.00     0.037 H 
ATOM     92  H22 non d ame     -38.136  12.598  23.763  0.00  0.00     0.037 H 
BRANCH  90  93
ATOM     93  C17 non d ame     -38.127  14.585  22.961  0.00  0.00    -0.059 C 
ATOM     94  H23 non d ame     -37.614  15.518  23.194  0.00  0.00     0.038 H 
BRANCH  93  95
ATOM     95  C18 non d ame     -37.981  14.331  21.427  0.00  0.00    -0.073 C 
ATOM     96  H24 non d ame     -37.746  15.269  20.924  0.00  0.00     0.028 H 
ATOM     97  H25 non d ame     -37.180  13.614  21.251  0.00  0.00     0.028 H 
ATOM     98  H26 non d ame     -38.917  13.933  21.034  0.00  0.00     0.028 H 
ENDBRANCH  93  95
BRANCH  93  99
ATOM     99  C19 non d ame     -39.598  14.766  23.346  0.00  0.00    -0.073 C 
ATOM    100  H27 non d ame     -40.059  15.498  22.683  0.00  0.00     0.028 H 
ATOM    101  H28 non d ame     -40.118  13.813  23.254  0.00  0.00     0.028 H 
ATOM    102  H29 non d ame     -39.663  15.116  24.376  0.00  0.00     0.028 H 
ENDBRANCH  93  99
ENDBRANCH  90  93
ENDBRANCH   1  90
TORSDOF 26
ENDMDL
MODEL 2
REMARK VINA RESULT:      -6.7      2.834      8.940
REMARK  26 active torsions:
REMARK  status: ('A' for Active; 'I' for Inactive)
REMARK    1  A    between atoms: C2_2  and  C3_3 
REMARK    2  A    between atoms: C4_6  and  C5_7 
REMARK       I    between atoms: C5_7  and  N2_9 
REMARK    3  A    between atoms: N2_9  and  C6_10 
REMARK    4  A    between atoms: C6_10  and  C7_11 
REMARK    5  A    between atoms: C6_10  and  C8_13 
REMARK       I    between atoms: C7_11  and  N3_14 
REMARK    6  A    between atoms: N3_14  and  C9_15 
REMARK    7  A    between atoms: C9_15  and  C10_16 
REMARK    8  A    between atoms: C9_15  and  C11_18 
REMARK       I    between atoms: C10_16  and  N4_21 
REMARK    9  A    between atoms: C11_18  and  C12_19 
REMARK   10  A    between atoms: C11_18  and  C13_20 
REMARK   11  A    between atoms: N4_21  and  C14_22 
REMARK   12  A    between atoms: C14_22  and  C15_23 
REMARK   13  A    between atoms: C14_22  and  C16_25 
REMARK       I    between atoms: C15_23  and  N6_40 
REMARK   14  A    between atoms: C16_25  and  C17_26 
REMARK   15  A    between atoms: C17_26  and  C18_27 
REMARK   16  A    between atoms: C17_26  and  C19_28 
REMARK   17  A    between atoms: C20_29  and  C21_30 
REMARK   18  A    between atoms: C20_29  and  C24_33 
REMARK   19  A    between atoms: C20_29  and  N6_40 
REMARK   20  A    between atoms: C21_30  and  C22_31 
REMARK   21  A    between atoms: C22_31  and  C23_32 
REMARK   22  A    between atoms: C23_32  and  O8_43 
REMARK   23  A    between atoms: C24_33  and  C25_34 
REMARK   24  A    between atoms: C28_38  and  O6_39 
REMARK   25  A    between atoms: C29_42  and  O8_43 
REMARK   26  A    between atoms: C29_42  and  C35_49 
ROOT
ATOM      1  C14 non d ame     -30.664  14.080  23.725  0.00  0.00     0.089 C 
ATOM      2  H20 non d ame     -29.583  13.946  23.688  0.00  0.00     0.087 H 
ENDROOT
BRANCH   1   3
ATOM      3  N4  non d ame     -31.256  12.786  24.030  0.00  0.00    -0.346 N 
ATOM      4  C10 non d ame     -30.705  11.530  23.405  0.00  0.00     0.241 C 
ATOM      5  O4  non d ame     -29.786  11.586  22.656  0.00  0.00    -0.271 OA
ATOM      6  H19 non d ame     -32.040  12.760  24.668  0.00  0.00     0.163 HD
BRANCH   4   7
ATOM      7  C9  non d ame     -31.327  10.198  23.736  0.00  0.00     0.092 C 
ATOM      8  H11 non d ame     -30.812   9.766  24.594  0.00  0.00     0.088 H 
BRANCH   7   9
ATOM      9  N3  non d ame     -32.726  10.395  24.125  0.00  0.00    -0.346 N 
ATOM     10  C7  non d ame     -33.135  10.164  25.489  0.00  0.00     0.240 C 
ATOM     11  O3  non d ame     -32.350   9.818  26.286  0.00  0.00    -0.271 OA
ATOM     12  H10 non d ame     -33.415  10.692  23.448  0.00  0.00     0.163 HD
BRANCH  10  13
ATOM     13  C6  non d ame     -34.626  10.372  25.896  0.00  0.00     0.086 C 
ATOM     14  H6  non d ame     -35.319  10.165  25.080  0.00  0.00     0.086 H 
BRANCH  13  15
ATOM     15  N2  non d ame     -34.957   9.446  26.966  0.00  0.00    -0.343 N 
ATOM     16  C5  non d ame     -35.625   8.183  26.647  0.00  0.00     0.273 C 
ATOM     17  O2  non d ame     -35.896   7.923  25.526  0.00  0.00    -0.266 OA
ATOM     18  H5  non d ame     -34.724   9.678  27.922  0.00  0.00     0.163 HD
BRANCH  16  19
ATOM     19  C4  non d ame     -35.979   7.194  27.769  0.00  0.00     0.154 A 
ATOM     20  C1  non d ame     -37.092   7.266  28.665  0.00  0.00    -0.017 A 
ATOM     21  C2  non d ame     -36.964   6.129  29.495  0.00  0.00     0.077 A 
ATOM     22  H1  non d ame     -37.872   8.026  28.708  0.00  0.00     0.091 H 
ATOM     23  O1  non d ame     -35.900   5.486  29.110  0.00  0.00    -0.218 OA
ATOM     24  N1  non d ame     -35.308   6.089  28.104  0.00  0.00    -0.123 NA
BRANCH  21  25
ATOM     25  C3  non d ame     -37.899   5.730  30.628  0.00  0.00    -0.029 C 
ATOM     26  H2  non d ame     -37.333   5.214  31.403  0.00  0.00     0.036 H 
ATOM     27  H3  non d ame     -38.360   6.623  31.050  0.00  0.00     0.036 H 
ATOM     28  H4  non d ame     -38.675   5.069  30.244  0.00  0.00     0.036 H 
ENDBRANCH  21  25
ENDBRANCH  16  19
ENDBRANCH  13  15
BRANCH  13  29
ATOM     29  C8  non d ame     -34.830  11.792  26.360  0.00  0.00    -0.049 C 
ATOM     30  H7  non d ame     -34.345  11.932  27.326  0.00  0.00     0.030 H 
ATOM     31  H8  non d ame     -34.396  12.478  25.633  0.00  0.00     0.030 H 
ATOM     32  H9  non d ame     -35.897  11.993  26.457  0.00  0.00     0.030 H 
ENDBRANCH  13  29
ENDBRANCH  10  13
ENDBRANCH   7   9
BRANCH   7  33
ATOM     33  C11 non d ame     -31.263   9.271  22.487  0.00  0.00    -0.033 C 
ATOM     34  H12 non d ame     -30.992   9.890  21.632  0.00  0.00     0.042 H 
BRANCH  33  35
ATOM     35  C12 non d ame     -30.160   8.179  22.645  0.00  0.00    -0.071 C 
ATOM     36  H13 non d ame     -29.182   8.620  22.451  0.00  0.00     0.028 H 
ATOM     37  H14 non d ame     -30.184   7.782  23.659  0.00  0.00     0.028 H 
ATOM     38  H15 non d ame     -30.342   7.373  21.934  0.00  0.00     0.028 H 
ENDBRANCH  33  35
BRANCH  33  39
ATOM     39  C13 non d ame     -32.658   8.629  22.196  0.00  0.00    -0.071 C 
ATOM     40  H16 non d ame     -33.098   8.277  23.129  0.00  0.00     0.028 H 
ATOM     41  H17 non d ame     -33.313   9.374  21.743  0.00  0.00     0.028 H 
ATOM     42  H18 non d ame     -32.536   7.790  21.512  0.00  0.00     0.028 H 
ENDBRANCH  33  39
ENDBRANCH   7  33
ENDBRANCH   4   7
ENDBRANCH   1   3
BRANCH   1  43
ATOM     43  C15 non d ame     -31.092  15.093  24.826  0.00  0.00     0.240 C 
ATOM     44  O5  non d ame     -30.899  16.255  24.668  0.00  0.00    -0.271 OA
ATOM     45  N6  non d ame     -31.752  14.614  26.074  0.00  0.00    -0.355 N 
ATOM     46  H46 non d ame     -31.926  13.630  26.218  0.00  0.00     0.162 HD
BRANCH  45  47
ATOM     47  C20 non d ame     -32.154  15.589  27.111  0.00  0.00     0.013 C 
ATOM     48  H30 non d ame     -31.551  16.487  26.979  0.00  0.00     0.072 H 
BRANCH  47  49
ATOM     49  C21 non d ame     -31.906  14.996  28.479  0.00  0.00    -0.038 C 
ATOM     50  H31 non d ame     -30.848  14.731  28.498  0.00  0.00     0.036 H 
ATOM     51  H32 non d ame     -32.299  15.722  29.190  0.00  0.00     0.036 H 
BRANCH  49  52
ATOM     52  C22 non d ame     -32.688  13.685  28.715  0.00  0.00     0.018 C 
ATOM     53  H33 non d ame     -33.159  13.795  29.691  0.00  0.00     0.048 H 
ATOM     54  H34 non d ame     -33.302  13.544  27.825  0.00  0.00     0.048 H 
BRANCH  52  55
ATOM     55  C23 non d ame     -31.784  12.426  28.815  0.00  0.00     0.259 C 
ATOM     56  O7  non d ame     -30.953  12.213  27.993  0.00  0.00    -0.265 OA
BRANCH  55  57
ATOM     57  O8  non d ame     -31.968  11.520  29.897  0.00  0.00    -0.317 OA
BRANCH  57  58
ATOM     58  C29 non d ame     -32.851  12.000  30.914  0.00  0.00     0.052 C 
ATOM     59  H47 non d ame     -32.218  12.226  31.772  0.00  0.00     0.082 H 
ATOM     60  H48 non d ame     -33.437  12.791  30.447  0.00  0.00     0.082 H 
BRANCH  58  61
ATOM     61  C35 non d ame     -33.810  10.843  31.302  0.00  0.00    -0.034 A 
ATOM     62  C30 non d ame     -34.672  10.985  32.384  0.00  0.00    -0.075 A 
ATOM     63  C31 non d ame     -35.533   9.946  32.733  0.00  0.00    -0.082 A 
ATOM     64  H49 non d ame     -34.673  11.911  32.960  0.00  0.00     0.084 H 
ATOM     65  C32 non d ame     -35.528   8.759  31.995  0.00  0.00    -0.083 A 
ATOM     66  H50 non d ame     -36.208  10.061  33.581  0.00  0.00     0.083 H 
ATOM     67  C33 non d ame     -34.663   8.620  30.918  0.00  0.00    -0.082 A 
ATOM     68  H51 non d ame     -36.198   7.941  32.260  0.00  0.00     0.083 H 
ATOM     69  C34 non d ame     -33.803   9.657  30.565  0.00  0.00    -0.075 A 
ATOM     70  H52 non d ame     -34.660   7.692  30.346  0.00  0.00     0.083 H 
ATOM     71  H53 non d ame     -33.127   9.541  29.717  0.00  0.00     0.084 H 
ENDBRANCH  58  61
ENDBRANCH  57  58
ENDBRANCH  55  57
ENDBRANCH  52  55
ENDBRANCH  49  52
ENDBRANCH  47  49
BRANCH  47  72
ATOM     72  C24 non d ame     -33.638  15.921  26.960  0.00  0.00    -0.039 C 
ATOM     73  H35 non d ame     -33.988  15.311  26.127  0.00  0.00     0.036 H 
ATOM     74  H36 non d ame     -34.068  15.784  27.953  0.00  0.00     0.036 H 
BRANCH  72  75
ATOM     75  C25 non d ame     -33.865  17.453  26.554  0.00  0.00    -0.001 C 
ATOM     76  C26 non d ame     -32.503  18.322  26.862  0.00  0.00    -0.035 C 
ATOM     77  C27 non d ame     -32.836  19.410  27.597  0.00  0.00     0.085 C 
ATOM     78  H38 non d ame     -31.843  17.761  27.524  0.00  0.00     0.036 H 
ATOM     79  H39 non d ame     -32.113  18.748  25.938  0.00  0.00     0.036 H 
ATOM     80  N5  non d ame     -34.245  19.192  28.094  0.00  0.00    -0.049 N 
ATOM     81  H40 non d ame     -32.154  19.408  28.447  0.00  0.00     0.075 H 
ATOM     82  H41 non d ame     -32.832  20.246  26.897  0.00  0.00     0.075 H 
ATOM     83  C28 non d ame     -34.841  17.974  27.219  0.00  0.00     0.193 C 
ATOM     84  H42 non d ame     -34.166  18.890  29.055  0.00  0.00     0.280 HD
ATOM     85  H43 non d ame     -34.760  20.032  27.870  0.00  0.00     0.280 HD
ATOM     86  H44 non d ame     -35.550  18.166  26.413  0.00  0.00     0.129 H 
ATOM     87  H37 non d ame     -34.305  17.557  25.562  0.00  0.00     0.046 H 
BRANCH  83  88
ATOM     88  O6  non d ame     -35.481  17.022  28.071  0.00  0.00    -0.369 OA
ATOM     89  H45 non d ame     -34.815  16.486  28.509  0.00  0.00     0.212 HD
ENDBRANCH  83  88
ENDBRANCH  72  75
ENDBRANCH  47  72
ENDBRANCH  45  47
ENDBRANCH   1  43
BRANCH   1  90
ATOM     90  C16 non d ame     -31.172  14.551  22.372  0.00  0.00    -0.035 C 
ATOM     91  H21 non d ame     -31.797  13.740  22.000  0.00  0.00     0.037 H 
ATOM     92  H22 non d ame     -31.607  15.535  22.553  0.00  0.00     0.037 H 
BRANCH  90  93
ATOM     93  C17 non d ame     -30.041  14.757  21.315  0.00  0.00    -0.059 C 
ATOM     94  H23 non d ame     -29.746  13.772  20.951  0.00  0.00     0.038 H 
BRANCH  93  95
ATOM     95  C18 non d ame     -30.526  15.593  20.087  0.00  0.00    -0.073 C 
ATOM     96  H24 non d ame     -31.567  15.353  19.873  0.00  0.00     0.028 H 
ATOM     97  H25 non d ame     -30.437  16.655  20.314  0.00  0.00     0.028 H 
ATOM     98  H26 non d ame     -29.911  15.354  19.220  0.00  0.00     0.028 H 
ENDBRANCH  93  95
BRANCH  93  99
ATOM     99  C19 non d ame     -28.805  15.394  21.954  0.00  0.00    -0.073 C 
ATOM    100  H27 non d ame     -27.911  14.858  21.633  0.00  0.00     0.028 H 
ATOM    101  H28 non d ame     -28.732  16.437  21.645  0.00  0.00     0.028 H 
ATOM    102  H29 non d ame     -28.889  15.343  23.039  0.00  0.00     0.028 H 
ENDBRANCH  93  99
ENDBRANCH  90  93
ENDBRANCH   1  90
TORSDOF 26
ENDMDL
MODEL 3
REMARK VINA RESULT:      -6.3      2.638      8.599
REMARK  26 active torsions:
REMARK  status: ('A' for Active; 'I' for Inactive)
REMARK    1  A    between atoms: C2_2  and  C3_3 
REMARK    2  A    between atoms: C4_6  and  C5_7 
REMARK       I    between atoms: C5_7  and  N2_9 
REMARK    3  A    between atoms: N2_9  and  C6_10 
REMARK    4  A    between atoms: C6_10  and  C7_11 
REMARK    5  A    between atoms: C6_10  and  C8_13 
REMARK       I    between atoms: C7_11  and  N3_14 
REMARK    6  A    between atoms: N3_14  and  C9_15 
REMARK    7  A    between atoms: C9_15  and  C10_16 
REMARK    8  A    between atoms: C9_15  and  C11_18 
REMARK       I    between atoms: C10_16  and  N4_21 
REMARK    9  A    between atoms: C11_18  and  C12_19 
REMARK   10  A    between atoms: C11_18  and  C13_20 
REMARK   11  A    between atoms: N4_21  and  C14_22 
REMARK   12  A    between atoms: C14_22  and  C15_23 
REMARK   13  A    between atoms: C14_22  and  C16_25 
REMARK       I    between atoms: C15_23  and  N6_40 
REMARK   14  A    between atoms: C16_25  and  C17_26 
REMARK   15  A    between atoms: C17_26  and  C18_27 
REMARK   16  A    between atoms: C17_26  and  C19_28 
REMARK   17  A    between atoms: C20_29  and  C21_30 
REMARK   18  A    between atoms: C20_29  and  C24_33 
REMARK   19  A    between atoms: C20_29  and  N6_40 
REMARK   20  A    between atoms: C21_30  and  C22_31 
REMARK   21  A    between atoms: C22_31  and  C23_32 
REMARK   22  A    between atoms: C23_32  and  O8_43 
REMARK   23  A    between atoms: C24_33  and  C25_34 
REMARK   24  A    between atoms: C28_38  and  O6_39 
REMARK   25  A    between atoms: C29_42  and  O8_43 
REMARK   26  A    between atoms: C29_42  and  C35_49 
ROOT
ATOM      1  C14 non d ame     -32.695  10.001  26.910  0.00  0.00     0.089 C 
ATOM      2  H20 non d ame     -33.768  10.006  26.719  0.00  0.00     0.087 H 
ENDROOT
BRANCH   1   3
ATOM      3  N4  non d ame     -32.094   9.031  26.008  0.00  0.00    -0.346 N 
ATOM      4  C10 non d ame     -32.959   8.218  25.078  0.00  0.00     0.241 C 
ATOM      5  O4  non d ame     -34.137   8.361  25.076  0.00  0.00    -0.271 OA
ATOM      6  H19 non d ame     -31.090   8.923  26.027  0.00  0.00     0.163 HD
BRANCH   4   7
ATOM      7  C9  non d ame     -32.320   7.222  24.146  0.00  0.00     0.092 C 
ATOM      8  H11 non d ame     -32.937   7.118  23.254  0.00  0.00     0.088 H 
BRANCH   7   9
ATOM      9  N3  non d ame     -31.013   7.726  23.713  0.00  0.00    -0.346 N 
ATOM     10  C7  non d ame     -30.785   8.033  22.322  0.00  0.00     0.240 C 
ATOM     11  O3  non d ame     -31.640   7.879  21.538  0.00  0.00    -0.271 OA
ATOM     12  H10 non d ame     -30.265   7.863  24.377  0.00  0.00     0.163 HD
BRANCH  10  13
ATOM     13  C6  non d ame     -29.391   8.567  21.866  0.00  0.00     0.086 C 
ATOM     14  H6  non d ame     -29.062   8.134  20.922  0.00  0.00     0.086 H 
BRANCH  13  15
ATOM     15  N2  non d ame     -29.481  10.002  21.657  0.00  0.00    -0.343 N 
ATOM     16  C5  non d ame     -29.901  10.867  22.762  0.00  0.00     0.273 C 
ATOM     17  O2  non d ame     -30.167  10.398  23.814  0.00  0.00    -0.266 OA
ATOM     18  H5  non d ame     -29.255  10.395  20.754  0.00  0.00     0.163 HD
BRANCH  16  19
ATOM     19  C4  non d ame     -29.999  12.387  22.556  0.00  0.00     0.154 A 
ATOM     20  C1  non d ame     -30.717  13.325  23.365  0.00  0.00    -0.017 A 
ATOM     21  C2  non d ame     -30.489  14.579  22.755  0.00  0.00     0.077 A 
ATOM     22  H1  non d ame     -31.311  13.126  24.257  0.00  0.00     0.091 H 
ATOM     23  O1  non d ame     -29.728  14.374  21.720  0.00  0.00    -0.218 OA
ATOM     24  N1  non d ame     -29.429  13.103  21.583  0.00  0.00    -0.123 NA
BRANCH  21  25
ATOM     25  C3  non d ame     -31.033  15.921  23.225  0.00  0.00    -0.029 C 
ATOM     26  H2  non d ame     -30.373  16.719  22.887  0.00  0.00     0.036 H 
ATOM     27  H3  non d ame     -32.029  16.074  22.810  0.00  0.00     0.036 H 
ATOM     28  H4  non d ame     -31.088  15.931  24.313  0.00  0.00     0.036 H 
ENDBRANCH  21  25
ENDBRANCH  16  19
ENDBRANCH  13  15
BRANCH  13  29
ATOM     29  C8  non d ame     -28.362   8.263  22.926  0.00  0.00    -0.049 C 
ATOM     30  H7  non d ame     -28.338   9.075  23.652  0.00  0.00     0.030 H 
ATOM     31  H8  non d ame     -28.624   7.333  23.430  0.00  0.00     0.030 H 
ATOM     32  H9  non d ame     -27.381   8.161  22.461  0.00  0.00     0.030 H 
ENDBRANCH  13  29
ENDBRANCH  10  13
ENDBRANCH   7   9
BRANCH   7  33
ATOM     33  C11 non d ame     -32.129   5.866  24.888  0.00  0.00    -0.033 C 
ATOM     34  H12 non d ame     -31.106   5.535  24.709  0.00  0.00     0.042 H 
BRANCH  33  35
ATOM     35  C12 non d ame     -32.306   6.032  26.429  0.00  0.00    -0.071 C 
ATOM     36  H13 non d ame     -31.329   6.168  26.895  0.00  0.00     0.028 H 
ATOM     37  H14 non d ame     -32.929   6.903  26.632  0.00  0.00     0.028 H 
ATOM     38  H15 non d ame     -32.781   5.141  26.839  0.00  0.00     0.028 H 
ENDBRANCH  33  35
BRANCH  33  39
ATOM     39  C13 non d ame     -33.096   4.778  24.321  0.00  0.00    -0.071 C 
ATOM     40  H16 non d ame     -34.070   4.870  24.803  0.00  0.00     0.028 H 
ATOM     41  H17 non d ame     -33.208   4.916  23.245  0.00  0.00     0.028 H 
ATOM     42  H18 non d ame     -32.684   3.788  24.518  0.00  0.00     0.028 H 
ENDBRANCH  33  39
ENDBRANCH   7  33
ENDBRANCH   4   7
ENDBRANCH   1   3
BRANCH   1  43
ATOM     43  C15 non d ame     -32.045  11.390  26.648  0.00  0.00     0.240 C 
ATOM     44  O5  non d ame     -30.905  11.457  26.318  0.00  0.00    -0.271 OA
ATOM     45  N6  non d ame     -32.847  12.638  26.799  0.00  0.00    -0.355 N 
ATOM     46  H46 non d ame     -33.818  12.594  27.074  0.00  0.00     0.162 HD
BRANCH  45  47
ATOM     47  C20 non d ame     -32.215  13.950  26.545  0.00  0.00     0.013 C 
ATOM     48  H30 non d ame     -31.624  13.867  25.633  0.00  0.00     0.072 H 
BRANCH  47  49
ATOM     49  C21 non d ame     -31.320  14.308  27.710  0.00  0.00    -0.038 C 
ATOM     50  H31 non d ame     -30.717  13.421  27.901  0.00  0.00     0.036 H 
ATOM     51  H32 non d ame     -30.838  15.246  27.433  0.00  0.00     0.036 H 
BRANCH  49  52
ATOM     52  C22 non d ame     -32.109  14.589  29.007  0.00  0.00     0.018 C 
ATOM     53  H33 non d ame     -33.145  14.336  28.784  0.00  0.00     0.048 H 
ATOM     54  H34 non d ame     -31.576  14.058  29.797  0.00  0.00     0.048 H 
BRANCH  52  55
ATOM     55  C23 non d ame     -32.114  16.085  29.426  0.00  0.00     0.259 C 
ATOM     56  O7  non d ame     -31.292  16.506  30.173  0.00  0.00    -0.265 OA
BRANCH  55  57
ATOM     57  O8  non d ame     -33.123  16.948  28.914  0.00  0.00    -0.317 OA
BRANCH  57  58
ATOM     58  C29 non d ame     -32.615  18.072  28.190  0.00  0.00     0.052 C 
ATOM     59  H47 non d ame     -32.257  18.772  28.945  0.00  0.00     0.082 H 
ATOM     60  H48 non d ame     -31.923  17.662  27.455  0.00  0.00     0.082 H 
BRANCH  58  61
ATOM     61  C35 non d ame     -33.801  18.730  27.434  0.00  0.00    -0.034 A 
ATOM     62  C30 non d ame     -34.076  18.367  26.119  0.00  0.00    -0.075 A 
ATOM     63  C31 non d ame     -35.140  18.957  25.440  0.00  0.00    -0.082 A 
ATOM     64  H49 non d ame     -33.457  17.620  25.621  0.00  0.00     0.084 H 
ATOM     65  C32 non d ame     -35.930  19.917  26.080  0.00  0.00    -0.083 A 
ATOM     66  H50 non d ame     -35.354  18.670  24.411  0.00  0.00     0.083 H 
ATOM     67  C33 non d ame     -35.650  20.278  27.391  0.00  0.00    -0.082 A 
ATOM     68  H51 non d ame     -36.765  20.383  25.557  0.00  0.00     0.083 H 
ATOM     69  C34 non d ame     -34.588  19.688  28.074  0.00  0.00    -0.075 A 
ATOM     70  H52 non d ame     -36.267  21.028  27.887  0.00  0.00     0.083 H 
ATOM     71  H53 non d ame     -34.375  19.977  29.104  0.00  0.00     0.084 H 
ENDBRANCH  58  61
ENDBRANCH  57  58
ENDBRANCH  55  57
ENDBRANCH  52  55
ENDBRANCH  49  52
ENDBRANCH  47  49
BRANCH  47  72
ATOM     72  C24 non d ame     -33.294  15.020  26.383  0.00  0.00    -0.039 C 
ATOM     73  H35 non d ame     -33.422  15.455  27.375  0.00  0.00     0.036 H 
ATOM     74  H36 non d ame     -32.961  15.644  25.554  0.00  0.00     0.036 H 
BRANCH  72  75
ATOM     75  C25 non d ame     -34.701  14.383  25.960  0.00  0.00    -0.001 C 
ATOM     76  C26 non d ame     -35.162  14.967  24.493  0.00  0.00    -0.035 C 
ATOM     77  C27 non d ame     -36.429  15.436  24.589  0.00  0.00     0.085 C 
ATOM     78  H38 non d ame     -34.580  15.855  24.245  0.00  0.00     0.036 H 
ATOM     79  H39 non d ame     -35.245  14.152  23.775  0.00  0.00     0.036 H 
ATOM     80  N5  non d ame     -36.758  15.524  26.060  0.00  0.00    -0.049 N 
ATOM     81  H40 non d ame     -36.400  16.442  24.170  0.00  0.00     0.075 H 
ATOM     82  H41 non d ame     -37.057  14.673  24.130  0.00  0.00     0.075 H 
ATOM     83  C28 non d ame     -35.621  14.667  26.821  0.00  0.00     0.193 C 
ATOM     84  H42 non d ame     -36.655  16.495  26.318  0.00  0.00     0.280 HD
ATOM     85  H43 non d ame     -37.646  15.060  26.182  0.00  0.00     0.280 HD
ATOM     86  H44 non d ame     -35.843  13.673  27.208  0.00  0.00     0.129 H 
ATOM     87  H37 non d ame     -34.721  13.301  26.091  0.00  0.00     0.046 H 
BRANCH  83  88
ATOM     88  O6  non d ame     -35.109  15.405  27.932  0.00  0.00    -0.369 OA
ATOM     89  H45 non d ame     -34.533  14.840  28.453  0.00  0.00     0.212 HD
ENDBRANCH  83  88
ENDBRANCH  72  75
ENDBRANCH  47  72
ENDBRANCH  45  47
ENDBRANCH   1  43
BRANCH   1  90
ATOM     90  C16 non d ame     -32.429   9.575  28.345  0.00  0.00    -0.035 C 
ATOM     91  H21 non d ame     -32.721   8.527  28.394  0.00  0.00     0.037 H 
ATOM     92  H22 non d ame     -31.397   9.863  28.545  0.00  0.00     0.037 H 
BRANCH  90  93
ATOM     93  C17 non d ame     -33.308  10.327  29.395  0.00  0.00    -0.059 C 
ATOM     94  H23 non d ame     -33.915  11.055  28.857  0.00  0.00     0.038 H 
BRANCH  93  95
ATOM     95  C18 non d ame     -34.278   9.363  30.150  0.00  0.00    -0.073 C 
ATOM     96  H24 non d ame     -34.467   8.483  29.536  0.00  0.00     0.028 H 
ATOM     97  H25 non d ame     -33.825   9.057  31.093  0.00  0.00     0.028 H 
ATOM     98  H26 non d ame     -35.218   9.876  30.349  0.00  0.00     0.028 H 
ENDBRANCH  93  95
BRANCH  93  99
ATOM     99  C19 non d ame     -32.434  11.105  30.383  0.00  0.00    -0.073 C 
ATOM    100  H27 non d ame     -31.446  11.262  29.949  0.00  0.00     0.028 H 
ATOM    101  H28 non d ame     -32.895  12.069  30.596  0.00  0.00     0.028 H 
ATOM    102  H29 non d ame     -32.338  10.537  31.308  0.00  0.00     0.028 H 
ENDBRANCH  93  99
ENDBRANCH  90  93
ENDBRANCH   1  90
TORSDOF 26
ENDMDL
MODEL 4
REMARK VINA RESULT:      -6.2      2.894      5.356
REMARK  26 active torsions:
REMARK  status: ('A' for Active; 'I' for Inactive)
REMARK    1  A    between atoms: C2_2  and  C3_3 
REMARK    2  A    between atoms: C4_6  and  C5_7 
REMARK       I    between atoms: C5_7  and  N2_9 
REMARK    3  A    between atoms: N2_9  and  C6_10 
REMARK    4  A    between atoms: C6_10  and  C7_11 
REMARK    5  A    between atoms: C6_10  and  C8_13 
REMARK       I    between atoms: C7_11  and  N3_14 
REMARK    6  A    between atoms: N3_14  and  C9_15 
REMARK    7  A    between atoms: C9_15  and  C10_16 
REMARK    8  A    between atoms: C9_15  and  C11_18 
REMARK       I    between atoms: C10_16  and  N4_21 
REMARK    9  A    between atoms: C11_18  and  C12_19 
REMARK   10  A    between atoms: C11_18  and  C13_20 
REMARK   11  A    between atoms: N4_21  and  C14_22 
REMARK   12  A    between atoms: C14_22  and  C15_23 
REMARK   13  A    between atoms: C14_22  and  C16_25 
REMARK       I    between atoms: C15_23  and  N6_40 
REMARK   14  A    between atoms: C16_25  and  C17_26 
REMARK   15  A    between atoms: C17_26  and  C18_27 
REMARK   16  A    between atoms: C17_26  and  C19_28 
REMARK   17  A    between atoms: C20_29  and  C21_30 
REMARK   18  A    between atoms: C20_29  and  C24_33 
REMARK   19  A    between atoms: C20_29  and  N6_40 
REMARK   20  A    between atoms: C21_30  and  C22_31 
REMARK   21  A    between atoms: C22_31  and  C23_32 
REMARK   22  A    between atoms: C23_32  and  O8_43 
REMARK   23  A    between atoms: C24_33  and  C25_34 
REMARK   24  A    between atoms: C28_38  and  O6_39 
REMARK   25  A    between atoms: C29_42  and  O8_43 
REMARK   26  A    between atoms: C29_42  and  C35_49 
ROOT
ATOM      1  C14 non d ame     -35.484  10.988  26.351  0.00  0.00     0.089 C 
ATOM      2  H20 non d ame     -36.408  10.876  25.783  0.00  0.00     0.087 H 
ENDROOT
BRANCH   1   3
ATOM      3  N4  non d ame     -35.748  10.542  27.711  0.00  0.00    -0.346 N 
ATOM      4  C10 non d ame     -36.893   9.602  27.995  0.00  0.00     0.241 C 
ATOM      5  O4  non d ame     -37.590   9.221  27.113  0.00  0.00    -0.271 OA
ATOM      6  H19 non d ame     -35.145  10.879  28.447  0.00  0.00     0.163 HD
BRANCH   4   7
ATOM      7  C9  non d ame     -37.148   9.145  29.407  0.00  0.00     0.092 C 
ATOM      8  H11 non d ame     -36.780   8.126  29.526  0.00  0.00     0.088 H 
BRANCH   7   9
ATOM      9  N3  non d ame     -36.393   9.989  30.338  0.00  0.00    -0.346 N 
ATOM     10  C7  non d ame     -35.048   9.626  30.712  0.00  0.00     0.240 C 
ATOM     11  O3  non d ame     -34.558   8.657  30.274  0.00  0.00    -0.271 OA
ATOM     12  H10 non d ame     -36.802  10.827  30.726  0.00  0.00     0.163 HD
BRANCH  10  13
ATOM     13  C6  non d ame     -34.250  10.527  31.705  0.00  0.00     0.086 C 
ATOM     14  H6  non d ame     -33.308  10.077  32.019  0.00  0.00     0.086 H 
BRANCH  13  15
ATOM     15  N2  non d ame     -33.915  11.776  31.043  0.00  0.00    -0.343 N 
ATOM     16  C5  non d ame     -32.551  11.990  30.554  0.00  0.00     0.273 C 
ATOM     17  O2  non d ame     -31.731  11.152  30.701  0.00  0.00    -0.266 OA
ATOM     18  H5  non d ame     -34.622  12.488  30.924  0.00  0.00     0.163 HD
BRANCH  16  19
ATOM     19  C4  non d ame     -32.183  13.306  29.851  0.00  0.00     0.154 A 
ATOM     20  C1  non d ame     -33.016  14.090  28.992  0.00  0.00    -0.017 A 
ATOM     21  C2  non d ame     -32.214  15.189  28.612  0.00  0.00     0.077 A 
ATOM     22  H1  non d ame     -34.045  13.892  28.691  0.00  0.00     0.091 H 
ATOM     23  O1  non d ame     -31.059  15.044  29.191  0.00  0.00    -0.218 OA
ATOM     24  N1  non d ame     -31.016  13.953  29.919  0.00  0.00    -0.123 NA
BRANCH  21  25
ATOM     25  C3  non d ame     -32.628  16.332  27.695  0.00  0.00    -0.029 C 
ATOM     26  H2  non d ame     -32.591  17.272  28.245  0.00  0.00     0.036 H 
ATOM     27  H3  non d ame     -31.946  16.382  26.846  0.00  0.00     0.036 H 
ATOM     28  H4  non d ame     -33.642  16.161  27.335  0.00  0.00     0.036 H 
ENDBRANCH  21  25
ENDBRANCH  16  19
ENDBRANCH  13  15
BRANCH  13  29
ATOM     29  C8  non d ame     -35.091  10.799  32.927  0.00  0.00    -0.049 C 
ATOM     30  H7  non d ame     -36.136  10.902  32.633  0.00  0.00     0.030 H 
ATOM     31  H8  non d ame     -34.991   9.971  33.628  0.00  0.00     0.030 H 
ATOM     32  H9  non d ame     -34.755  11.721  33.402  0.00  0.00     0.030 H 
ENDBRANCH  13  29
ENDBRANCH  10  13
ENDBRANCH   7   9
BRANCH   7  33
ATOM     33  C11 non d ame     -38.668   9.260  29.723  0.00  0.00    -0.033 C 
ATOM     34  H12 non d ame     -39.207   8.713  28.950  0.00  0.00     0.042 H 
BRANCH  33  35
ATOM     35  C12 non d ame     -39.015   8.600  31.094  0.00  0.00    -0.071 C 
ATOM     36  H13 non d ame     -39.265   9.375  31.818  0.00  0.00     0.028 H 
ATOM     37  H14 non d ame     -39.867   7.931  30.970  0.00  0.00     0.028 H 
ATOM     38  H15 non d ame     -38.156   8.032  31.452  0.00  0.00     0.028 H 
ENDBRANCH  33  35
BRANCH  33  39
ATOM     39  C13 non d ame     -39.137  10.750  29.677  0.00  0.00    -0.071 C 
ATOM     40  H16 non d ame     -38.735  11.284  30.538  0.00  0.00     0.028 H 
ATOM     41  H17 non d ame     -38.778  11.216  28.759  0.00  0.00     0.028 H 
ATOM     42  H18 non d ame     -40.226  10.788  29.700  0.00  0.00     0.028 H 
ENDBRANCH  33  39
ENDBRANCH   7  33
ENDBRANCH   4   7
ENDBRANCH   1   3
BRANCH   1  43
ATOM     43  C15 non d ame     -34.326  10.132  25.764  0.00  0.00     0.240 C 
ATOM     44  O5  non d ame     -33.819   9.288  26.429  0.00  0.00    -0.271 OA
ATOM     45  N6  non d ame     -33.854  10.359  24.368  0.00  0.00    -0.355 N 
ATOM     46  H46 non d ame     -34.280  11.070  23.792  0.00  0.00     0.162 HD
BRANCH  45  47
ATOM     47  C20 non d ame     -32.753   9.535  23.824  0.00  0.00     0.013 C 
ATOM     48  H30 non d ame     -32.518   8.763  24.556  0.00  0.00     0.072 H 
BRANCH  47  49
ATOM     49  C21 non d ame     -31.542  10.410  23.591  0.00  0.00    -0.038 C 
ATOM     50  H31 non d ame     -30.899   9.849  22.914  0.00  0.00     0.036 H 
ATOM     51  H32 non d ame     -31.936  11.382  23.290  0.00  0.00     0.036 H 
BRANCH  49  52
ATOM     52  C22 non d ame     -30.720  10.651  24.875  0.00  0.00     0.018 C 
ATOM     53  H33 non d ame     -30.862   9.761  25.488  0.00  0.00     0.048 H 
ATOM     54  H34 non d ame     -29.721  10.929  24.539  0.00  0.00     0.048 H 
BRANCH  52  55
ATOM     55  C23 non d ame     -31.230  11.844  25.731  0.00  0.00     0.259 C 
ATOM     56  O7  non d ame     -31.103  11.837  26.912  0.00  0.00    -0.265 OA
BRANCH  55  57
ATOM     57  O8  non d ame     -31.864  12.943  25.087  0.00  0.00    -0.317 OA
BRANCH  57  58
ATOM     58  C29 non d ame     -31.098  14.151  25.107  0.00  0.00     0.052 C 
ATOM     59  H47 non d ame     -31.750  14.906  25.547  0.00  0.00     0.082 H 
ATOM     60  H48 non d ame     -30.157  13.895  25.593  0.00  0.00     0.082 H 
BRANCH  58  61
ATOM     61  C35 non d ame     -30.800  14.554  23.639  0.00  0.00    -0.034 A 
ATOM     62  C30 non d ame     -30.003  13.739  22.841  0.00  0.00    -0.075 A 
ATOM     63  C31 non d ame     -29.735  14.100  21.522  0.00  0.00    -0.082 A 
ATOM     64  H49 non d ame     -29.589  12.817  23.249  0.00  0.00     0.084 H 
ATOM     65  C32 non d ame     -30.265  15.284  21.001  0.00  0.00    -0.083 A 
ATOM     66  H50 non d ame     -29.111  13.459  20.898  0.00  0.00     0.083 H 
ATOM     67  C33 non d ame     -31.056  16.096  21.802  0.00  0.00    -0.082 A 
ATOM     68  H51 non d ame     -30.060  15.574  19.971  0.00  0.00     0.083 H 
ATOM     69  C34 non d ame     -31.329  15.737  23.120  0.00  0.00    -0.075 A 
ATOM     70  H52 non d ame     -31.466  17.020  21.394  0.00  0.00     0.083 H 
ATOM     71  H53 non d ame     -31.953  16.379  23.743  0.00  0.00     0.084 H 
ENDBRANCH  58  61
ENDBRANCH  57  58
ENDBRANCH  55  57
ENDBRANCH  52  55
ENDBRANCH  49  52
ENDBRANCH  47  49
BRANCH  47  72
ATOM     72  C24 non d ame     -33.186   8.901  22.504  0.00  0.00    -0.039 C 
ATOM     73  H35 non d ame     -34.217   9.222  22.352  0.00  0.00     0.036 H 
ATOM     74  H36 non d ame     -32.417   9.178  21.783  0.00  0.00     0.036 H 
BRANCH  72  75
ATOM     75  C25 non d ame     -33.198   7.301  22.591  0.00  0.00    -0.001 C 
ATOM     76  C26 non d ame     -32.889   6.822  24.133  0.00  0.00    -0.035 C 
ATOM     77  C27 non d ame     -31.887   5.910  24.114  0.00  0.00     0.085 C 
ATOM     78  H38 non d ame     -32.469   7.649  24.705  0.00  0.00     0.036 H 
ATOM     79  H39 non d ame     -33.737   6.261  24.527  0.00  0.00     0.036 H 
ATOM     80  N5  non d ame     -31.265   5.966  22.740  0.00  0.00    -0.049 N 
ATOM     81  H40 non d ame     -31.162   6.259  24.848  0.00  0.00     0.075 H 
ATOM     82  H41 non d ame     -32.372   4.943  24.245  0.00  0.00     0.075 H 
ATOM     83  C28 non d ame     -32.304   6.784  21.815  0.00  0.00     0.193 C 
ATOM     84  H42 non d ame     -30.418   6.510  22.832  0.00  0.00     0.280 HD
ATOM     85  H43 non d ame     -31.219   5.013  22.408  0.00  0.00     0.280 HD
ATOM     86  H44 non d ame     -32.940   6.261  21.101  0.00  0.00     0.129 H 
ATOM     87  H37 non d ame     -34.070   6.868  22.102  0.00  0.00     0.046 H 
BRANCH  83  88
ATOM     88  O6  non d ame     -31.612   7.776  21.054  0.00  0.00    -0.369 OA
ATOM     89  H45 non d ame     -31.709   8.631  21.480  0.00  0.00     0.212 HD
ENDBRANCH  83  88
ENDBRANCH  72  75
ENDBRANCH  47  72
ENDBRANCH  45  47
ENDBRANCH   1  43
BRANCH   1  90
ATOM     90  C16 non d ame     -35.074  12.452  26.381  0.00  0.00    -0.035 C 
ATOM     91  H21 non d ame     -35.232  12.775  27.409  0.00  0.00     0.037 H 
ATOM     92  H22 non d ame     -34.073  12.480  25.949  0.00  0.00     0.037 H 
BRANCH  90  93
ATOM     93  C17 non d ame     -35.966  13.371  25.487  0.00  0.00    -0.059 C 
ATOM     94  H23 non d ame     -35.869  13.027  24.458  0.00  0.00     0.038 H 
BRANCH  93  95
ATOM     95  C18 non d ame     -37.476  13.287  25.878  0.00  0.00    -0.073 C 
ATOM     96  H24 non d ame     -37.696  14.031  26.642  0.00  0.00     0.028 H 
ATOM     97  H25 non d ame     -38.090  13.477  24.999  0.00  0.00     0.028 H 
ATOM     98  H26 non d ame     -37.695  12.292  26.266  0.00  0.00     0.028 H 
ENDBRANCH  93  95
BRANCH  93  99
ATOM     99  C19 non d ame     -35.473  14.820  25.530  0.00  0.00    -0.073 C 
ATOM    100  H27 non d ame     -35.341  15.129  26.568  0.00  0.00     0.028 H 
ATOM    101  H28 non d ame     -34.520  14.896  25.005  0.00  0.00     0.028 H 
ATOM    102  H29 non d ame     -36.205  15.468  25.049  0.00  0.00     0.028 H 
ENDBRANCH  93  99
ENDBRANCH  90  93
ENDBRANCH   1  90
TORSDOF 26
ENDMDL
MODEL 5
REMARK VINA RESULT:      -6.1      3.413      9.127
REMARK  26 active torsions:
REMARK  status: ('A' for Active; 'I' for Inactive)
REMARK    1  A    between atoms: C2_2  and  C3_3 
REMARK    2  A    between atoms: C4_6  and  C5_7 
REMARK       I    between atoms: C5_7  and  N2_9 
REMARK    3  A    between atoms: N2_9  and  C6_10 
REMARK    4  A    between atoms: C6_10  and  C7_11 
REMARK    5  A    between atoms: C6_10  and  C8_13 
REMARK       I    between atoms: C7_11  and  N3_14 
REMARK    6  A    between atoms: N3_14  and  C9_15 
REMARK    7  A    between atoms: C9_15  and  C10_16 
REMARK    8  A    between atoms: C9_15  and  C11_18 
REMARK       I    between atoms: C10_16  and  N4_21 
REMARK    9  A    between atoms: C11_18  and  C12_19 
REMARK   10  A    between atoms: C11_18  and  C13_20 
REMARK   11  A    between atoms: N4_21  and  C14_22 
REMARK   12  A    between atoms: C14_22  and  C15_23 
REMARK   13  A    between atoms: C14_22  and  C16_25 
REMARK       I    between atoms: C15_23  and  N6_40 
REMARK   14  A    between atoms: C16_25  and  C17_26 
REMARK   15  A    between atoms: C17_26  and  C18_27 
REMARK   16  A    between atoms: C17_26  and  C19_28 
REMARK   17  A    between atoms: C20_29  and  C21_30 
REMARK   18  A    between atoms: C20_29  and  C24_33 
REMARK   19  A    between atoms: C20_29  and  N6_40 
REMARK   20  A    between atoms: C21_30  and  C22_31 
REMARK   21  A    between atoms: C22_31  and  C23_32 
REMARK   22  A    between atoms: C23_32  and  O8_43 
REMARK   23  A    between atoms: C24_33  and  C25_34 
REMARK   24  A    between atoms: C28_38  and  O6_39 
REMARK   25  A    between atoms: C29_42  and  O8_43 
REMARK   26  A    between atoms: C29_42  and  C35_49 
ROOT
ATOM      1  C14 non d ame     -32.853  11.497  25.679  0.00  0.00     0.089 C 
ATOM      2  H20 non d ame     -33.808  11.509  25.153  0.00  0.00     0.087 H 
ENDROOT
BRANCH   1   3
ATOM      3  N4  non d ame     -32.063  10.406  25.129  0.00  0.00    -0.346 N 
ATOM      4  C10 non d ame     -32.691   9.412  24.184  0.00  0.00     0.241 C 
ATOM      5  O4  non d ame     -33.835   9.510  23.883  0.00  0.00    -0.271 OA
ATOM      6  H19 non d ame     -31.092  10.339  25.399  0.00  0.00     0.163 HD
BRANCH   4   7
ATOM      7  C9  non d ame     -31.858   8.291  23.620  0.00  0.00     0.092 C 
ATOM      8  H11 non d ame     -30.957   8.176  24.223  0.00  0.00     0.088 H 
BRANCH   7   9
ATOM      9  N3  non d ame     -32.604   7.033  23.710  0.00  0.00    -0.346 N 
ATOM     10  C7  non d ame     -32.362   6.128  24.807  0.00  0.00     0.240 C 
ATOM     11  O3  non d ame     -31.569   6.397  25.625  0.00  0.00    -0.271 OA
ATOM     12  H10 non d ame     -33.291   6.787  23.011  0.00  0.00     0.163 HD
BRANCH  10  13
ATOM     13  C6  non d ame     -33.158   4.789  24.895  0.00  0.00     0.086 C 
ATOM     14  H6  non d ame     -32.586   3.990  25.367  0.00  0.00     0.086 H 
BRANCH  13  15
ATOM     15  N2  non d ame     -34.339   4.996  25.717  0.00  0.00    -0.343 N 
ATOM     16  C5  non d ame     -34.302   4.635  27.136  0.00  0.00     0.273 C 
ATOM     17  O2  non d ame     -33.319   4.177  27.606  0.00  0.00    -0.266 OA
ATOM     18  H5  non d ame     -35.175   5.386  25.306  0.00  0.00     0.163 HD
BRANCH  16  19
ATOM     19  C4  non d ame     -35.543   4.850  28.017  0.00  0.00     0.154 A 
ATOM     20  C1  non d ame     -35.626   5.620  29.220  0.00  0.00    -0.017 A 
ATOM     21  C2  non d ame     -36.971   5.498  29.637  0.00  0.00     0.077 A 
ATOM     22  H1  non d ame     -34.833   6.181  29.715  0.00  0.00     0.091 H 
ATOM     23  O1  non d ame     -37.579   4.746  28.768  0.00  0.00    -0.218 OA
ATOM     24  N1  non d ame     -36.767   4.355  27.813  0.00  0.00    -0.123 NA
BRANCH  21  25
ATOM     25  C3  non d ame     -37.592   6.132  30.875  0.00  0.00    -0.029 C 
ATOM     26  H2  non d ame     -36.838   6.718  31.400  0.00  0.00     0.036 H 
ATOM     27  H3  non d ame     -38.414   6.782  30.576  0.00  0.00     0.036 H 
ATOM     28  H4  non d ame     -37.968   5.350  31.534  0.00  0.00     0.036 H 
ENDBRANCH  21  25
ENDBRANCH  16  19
ENDBRANCH  13  15
BRANCH  13  29
ATOM     29  C8  non d ame     -33.562   4.349  23.511  0.00  0.00    -0.049 C 
ATOM     30  H7  non d ame     -32.784   4.626  22.800  0.00  0.00     0.030 H 
ATOM     31  H8  non d ame     -33.696   3.268  23.499  0.00  0.00     0.030 H 
ATOM     32  H9  non d ame     -34.497   4.835  23.234  0.00  0.00     0.030 H 
ENDBRANCH  13  29
ENDBRANCH  10  13
ENDBRANCH   7   9
BRANCH   7  33
ATOM     33  C11 non d ame     -31.529   8.591  22.128  0.00  0.00    -0.033 C 
ATOM     34  H12 non d ame     -32.078   9.488  21.844  0.00  0.00     0.042 H 
BRANCH  33  35
ATOM     35  C12 non d ame     -30.010   8.888  21.929  0.00  0.00    -0.071 C 
ATOM     36  H13 non d ame     -29.539   9.038  22.901  0.00  0.00     0.028 H 
ATOM     37  H14 non d ame     -29.538   8.046  21.424  0.00  0.00     0.028 H 
ATOM     38  H15 non d ame     -29.891   9.787  21.326  0.00  0.00     0.028 H 
ENDBRANCH  33  35
BRANCH  33  39
ATOM     39  C13 non d ame     -32.003   7.422  21.205  0.00  0.00    -0.071 C 
ATOM     40  H16 non d ame     -32.471   7.832  20.310  0.00  0.00     0.028 H 
ATOM     41  H17 non d ame     -31.144   6.813  20.920  0.00  0.00     0.028 H 
ATOM     42  H18 non d ame     -32.722   6.804  21.742  0.00  0.00     0.028 H 
ENDBRANCH  33  39
ENDBRANCH   7  33
ENDBRANCH   4   7
ENDBRANCH   1   3
BRANCH   1  43
ATOM     43  C15 non d ame     -32.063  12.824  25.490  0.00  0.00     0.240 C 
ATOM     44  O5  non d ame     -30.947  12.909  25.887  0.00  0.00    -0.271 OA
ATOM     45  N6  non d ame     -32.697  13.987  24.805  0.00  0.00    -0.355 N 
ATOM     46  H46 non d ame     -33.643  13.925  24.458  0.00  0.00     0.162 HD
BRANCH  45  47
ATOM     47  C20 non d ame     -31.932  15.241  24.631  0.00  0.00     0.013 C 
ATOM     48  H30 non d ame     -30.918  15.067  24.990  0.00  0.00     0.072 H 
BRANCH  47  49
ATOM     49  C21 non d ame     -32.585  16.340  25.439  0.00  0.00    -0.038 C 
ATOM     50  H31 non d ame     -32.498  17.242  24.833  0.00  0.00     0.036 H 
ATOM     51  H32 non d ame     -33.569  15.959  25.712  0.00  0.00     0.036 H 
BRANCH  49  52
ATOM     52  C22 non d ame     -31.846  16.630  26.763  0.00  0.00     0.018 C 
ATOM     53  H33 non d ame     -31.317  15.711  27.014  0.00  0.00     0.048 H 
ATOM     54  H34 non d ame     -31.289  17.552  26.595  0.00  0.00     0.048 H 
BRANCH  52  55
ATOM     55  C23 non d ame     -32.796  16.917  27.960  0.00  0.00     0.259 C 
ATOM     56  O7  non d ame     -33.474  17.892  27.971  0.00  0.00    -0.265 OA
BRANCH  55  57
ATOM     57  O8  non d ame     -32.836  16.005  29.051  0.00  0.00    -0.317 OA
BRANCH  57  58
ATOM     58  C29 non d ame     -33.325  14.706  28.706  0.00  0.00     0.052 C 
ATOM     59  H47 non d ame     -34.321  14.640  29.142  0.00  0.00     0.082 H 
ATOM     60  H48 non d ame     -33.195  14.618  27.628  0.00  0.00     0.082 H 
BRANCH  58  61
ATOM     61  C35 non d ame     -32.416  13.654  29.397  0.00  0.00    -0.034 A 
ATOM     62  C30 non d ame     -31.045  13.656  29.162  0.00  0.00    -0.075 A 
ATOM     63  C31 non d ame     -30.229  12.711  29.782  0.00  0.00    -0.082 A 
ATOM     64  H49 non d ame     -30.610  14.397  28.491  0.00  0.00     0.084 H 
ATOM     65  C32 non d ame     -30.789  11.759  30.638  0.00  0.00    -0.083 A 
ATOM     66  H50 non d ame     -29.154  12.716  29.596  0.00  0.00     0.083 H 
ATOM     67  C33 non d ame     -32.158  11.759  30.867  0.00  0.00    -0.082 A 
ATOM     68  H51 non d ame     -30.158  11.017  31.127  0.00  0.00     0.083 H 
ATOM     69  C34 non d ame     -32.978  12.703  30.251  0.00  0.00    -0.075 A 
ATOM     70  H52 non d ame     -32.593  11.014  31.534  0.00  0.00     0.083 H 
ATOM     71  H53 non d ame     -34.052  12.697  30.437  0.00  0.00     0.084 H 
ENDBRANCH  58  61
ENDBRANCH  57  58
ENDBRANCH  55  57
ENDBRANCH  52  55
ENDBRANCH  49  52
ENDBRANCH  47  49
BRANCH  47  72
ATOM     72  C24 non d ame     -31.913  15.635  23.156  0.00  0.00    -0.039 C 
ATOM     73  H35 non d ame     -32.870  15.302  22.754  0.00  0.00     0.036 H 
ATOM     74  H36 non d ame     -31.655  16.693  23.142  0.00  0.00     0.036 H 
BRANCH  72  75
ATOM     75  C25 non d ame     -30.767  14.858  22.350  0.00  0.00    -0.001 C 
ATOM     76  C26 non d ame     -29.437  14.678  23.301  0.00  0.00    -0.035 C 
ATOM     77  C27 non d ame     -28.352  15.122  22.623  0.00  0.00     0.085 C 
ATOM     78  H38 non d ame     -29.496  15.350  24.156  0.00  0.00     0.036 H 
ATOM     79  H39 non d ame     -29.227  13.619  23.454  0.00  0.00     0.036 H 
ATOM     80  N5  non d ame     -28.862  15.888  21.427  0.00  0.00    -0.049 N 
ATOM     81  H40 non d ame     -27.848  15.812  23.299  0.00  0.00     0.075 H 
ATOM     82  H41 non d ame     -27.838  14.225  22.277  0.00  0.00     0.075 H 
ATOM     83  C28 non d ame     -30.424  15.503  21.286  0.00  0.00     0.193 C 
ATOM     84  H42 non d ame     -28.793  16.868  21.663  0.00  0.00     0.280 HD
ATOM     85  H43 non d ame     -28.368  15.526  20.624  0.00  0.00     0.280 HD
ATOM     86  H44 non d ame     -30.755  14.806  20.516  0.00  0.00     0.129 H 
ATOM     87  H37 non d ame     -31.145  13.965  21.852  0.00  0.00     0.046 H 
BRANCH  83  88
ATOM     88  O6  non d ame     -31.207  16.683  21.095  0.00  0.00    -0.369 OA
ATOM     89  H45 non d ame     -30.878  17.381  21.666  0.00  0.00     0.212 HD
ENDBRANCH  83  88
ENDBRANCH  72  75
ENDBRANCH  47  72
ENDBRANCH  45  47
ENDBRANCH   1  43
BRANCH   1  90
ATOM     90  C16 non d ame     -33.083  11.246  27.160  0.00  0.00    -0.035 C 
ATOM     91  H21 non d ame     -32.114  10.945  27.556  0.00  0.00     0.037 H 
ATOM     92  H22 non d ame     -33.568  12.148  27.534  0.00  0.00     0.037 H 
BRANCH  90  93
ATOM     93  C17 non d ame     -34.063  10.065  27.451  0.00  0.00    -0.059 C 
ATOM     94  H23 non d ame     -34.415   9.684  26.492  0.00  0.00     0.038 H 
BRANCH  93  95
ATOM     95  C18 non d ame     -33.362   8.888  28.202  0.00  0.00    -0.073 C 
ATOM     96  H24 non d ame     -33.361   9.091  29.273  0.00  0.00     0.028 H 
ATOM     97  H25 non d ame     -33.902   7.961  28.010  0.00  0.00     0.028 H 
ATOM     98  H26 non d ame     -32.336   8.792  27.849  0.00  0.00     0.028 H 
ENDBRANCH  93  95
BRANCH  93  99
ATOM     99  C19 non d ame     -35.291  10.552  28.225  0.00  0.00    -0.073 C 
ATOM    100  H27 non d ame     -35.080  10.525  29.295  0.00  0.00     0.028 H 
ATOM    101  H28 non d ame     -35.528  11.573  27.927  0.00  0.00     0.028 H 
ATOM    102  H29 non d ame     -36.139   9.904  28.005  0.00  0.00     0.028 H 
ENDBRANCH  93  99
ENDBRANCH  90  93
ENDBRANCH   1  90
TORSDOF 26
ENDMDL
MODEL 6
REMARK VINA RESULT:      -6.1      3.535      8.408
REMARK  26 active torsions:
REMARK  status: ('A' for Active; 'I' for Inactive)
REMARK    1  A    between atoms: C2_2  and  C3_3 
REMARK    2  A    between atoms: C4_6  and  C5_7 
REMARK       I    between atoms: C5_7  and  N2_9 
REMARK    3  A    between atoms: N2_9  and  C6_10 
REMARK    4  A    between atoms: C6_10  and  C7_11 
REMARK    5  A    between atoms: C6_10  and  C8_13 
REMARK       I    between atoms: C7_11  and  N3_14 
REMARK    6  A    between atoms: N3_14  and  C9_15 
REMARK    7  A    between atoms: C9_15  and  C10_16 
REMARK    8  A    between atoms: C9_15  and  C11_18 
REMARK       I    between atoms: C10_16  and  N4_21 
REMARK    9  A    between atoms: C11_18  and  C12_19 
REMARK   10  A    between atoms: C11_18  and  C13_20 
REMARK   11  A    between atoms: N4_21  and  C14_22 
REMARK   12  A    between atoms: C14_22  and  C15_23 
REMARK   13  A    between atoms: C14_22  and  C16_25 
REMARK       I    between atoms: C15_23  and  N6_40 
REMARK   14  A    between atoms: C16_25  and  C17_26 
REMARK   15  A    between atoms: C17_26  and  C18_27 
REMARK   16  A    between atoms: C17_26  and  C19_28 
REMARK   17  A    between atoms: C20_29  and  C21_30 
REMARK   18  A    between atoms: C20_29  and  C24_33 
REMARK   19  A    between atoms: C20_29  and  N6_40 
REMARK   20  A    between atoms: C21_30  and  C22_31 
REMARK   21  A    between atoms: C22_31  and  C23_32 
REMARK   22  A    between atoms: C23_32  and  O8_43 
REMARK   23  A    between atoms: C24_33  and  C25_34 
REMARK   24  A    between atoms: C28_38  and  O6_39 
REMARK   25  A    between atoms: C29_42  and  O8_43 
REMARK   26  A    between atoms: C29_42  and  C35_49 
ROOT
ATOM      1  C14 non d ame     -35.356   9.047  27.277  0.00  0.00     0.089 C 
ATOM      2  H20 non d ame     -35.016   8.311  28.006  0.00  0.00     0.087 H 
ENDROOT
BRANCH   1   3
ATOM      3  N4  non d ame     -34.577  10.259  27.482  0.00  0.00    -0.346 N 
ATOM      4  C10 non d ame     -33.161  10.176  27.996  0.00  0.00     0.241 C 
ATOM      5  O4  non d ame     -32.672   9.123  28.240  0.00  0.00    -0.271 OA
ATOM      6  H19 non d ame     -35.012  11.145  27.270  0.00  0.00     0.163 HD
BRANCH   4   7
ATOM      7  C9  non d ame     -32.367  11.440  28.196  0.00  0.00     0.092 C 
ATOM      8  H11 non d ame     -31.357  11.293  27.815  0.00  0.00     0.088 H 
BRANCH   7   9
ATOM      9  N3  non d ame     -32.971  12.526  27.418  0.00  0.00    -0.346 N 
ATOM     10  C7  non d ame     -32.131  13.523  26.800  0.00  0.00     0.240 C 
ATOM     11  O3  non d ame     -30.968  13.467  26.920  0.00  0.00    -0.271 OA
ATOM     12  H10 non d ame     -33.973  12.588  27.307  0.00  0.00     0.163 HD
BRANCH  10  13
ATOM     13  C6  non d ame     -32.780  14.678  25.976  0.00  0.00     0.086 C 
ATOM     14  H6  non d ame     -32.471  15.665  26.318  0.00  0.00     0.086 H 
BRANCH  13  15
ATOM     15  N2  non d ame     -32.353  14.566  24.591  0.00  0.00    -0.343 N 
ATOM     16  C5  non d ame     -31.245  15.393  24.108  0.00  0.00     0.273 C 
ATOM     17  O2  non d ame     -30.706  16.147  24.841  0.00  0.00    -0.266 OA
ATOM     18  H5  non d ame     -32.822  13.920  23.971  0.00  0.00     0.163 HD
BRANCH  16  19
ATOM     19  C4  non d ame     -30.783  15.284  22.647  0.00  0.00     0.154 A 
ATOM     20  C1  non d ame     -31.169  16.121  21.553  0.00  0.00    -0.017 A 
ATOM     21  C2  non d ame     -30.471  15.606  20.437  0.00  0.00     0.077 A 
ATOM     22  H1  non d ame     -31.851  16.972  21.566  0.00  0.00     0.091 H 
ATOM     23  O1  non d ame     -29.769  14.594  20.853  0.00  0.00    -0.218 OA
ATOM     24  N1  non d ame     -29.934  14.385  22.139  0.00  0.00    -0.123 NA
BRANCH  21  25
ATOM     25  C3  non d ame     -30.531  16.140  19.012  0.00  0.00    -0.029 C 
ATOM     26  H2  non d ame     -29.758  16.896  18.875  0.00  0.00     0.036 H 
ATOM     27  H3  non d ame     -30.366  15.322  18.311  0.00  0.00     0.036 H 
ATOM     28  H4  non d ame     -31.510  16.583  18.830  0.00  0.00     0.036 H 
ENDBRANCH  21  25
ENDBRANCH  16  19
ENDBRANCH  13  15
BRANCH  13  29
ATOM     29  C8  non d ame     -34.282  14.579  26.063  0.00  0.00    -0.049 C 
ATOM     30  H7  non d ame     -34.720  15.567  25.916  0.00  0.00     0.030 H 
ATOM     31  H8  non d ame     -34.647  13.902  25.291  0.00  0.00     0.030 H 
ATOM     32  H9  non d ame     -34.565  14.199  27.045  0.00  0.00     0.030 H 
ENDBRANCH  13  29
ENDBRANCH  10  13
ENDBRANCH   7   9
BRANCH   7  33
ATOM     33  C11 non d ame     -32.373  11.822  29.706  0.00  0.00    -0.033 C 
ATOM     34  H12 non d ame     -32.952  12.740  29.810  0.00  0.00     0.042 H 
BRANCH  33  35
ATOM     35  C12 non d ame     -33.074  10.725  30.567  0.00  0.00    -0.071 C 
ATOM     36  H13 non d ame     -33.965  11.144  31.034  0.00  0.00     0.028 H 
ATOM     37  H14 non d ame     -33.357   9.888  29.929  0.00  0.00     0.028 H 
ATOM     38  H15 non d ame     -32.389  10.378  31.340  0.00  0.00     0.028 H 
ENDBRANCH  33  35
BRANCH  33  39
ATOM     39  C13 non d ame     -30.924  12.104  30.217  0.00  0.00    -0.071 C 
ATOM     40  H16 non d ame     -30.538  11.217  30.721  0.00  0.00     0.028 H 
ATOM     41  H17 non d ame     -30.281  12.350  29.371  0.00  0.00     0.028 H 
ATOM     42  H18 non d ame     -30.941  12.941  30.915  0.00  0.00     0.028 H 
ENDBRANCH  33  39
ENDBRANCH   7  33
ENDBRANCH   4   7
ENDBRANCH   1   3
BRANCH   1  43
ATOM     43  C15 non d ame     -35.146   8.564  25.813  0.00  0.00     0.240 C 
ATOM     44  O5  non d ame     -36.037   8.645  25.030  0.00  0.00    -0.271 OA
ATOM     45  N6  non d ame     -33.830   8.010  25.384  0.00  0.00    -0.355 N 
ATOM     46  H46 non d ame     -33.065   7.941  26.039  0.00  0.00     0.162 HD
BRANCH  45  47
ATOM     47  C20 non d ame     -33.646   7.556  23.989  0.00  0.00     0.013 C 
ATOM     48  H30 non d ame     -34.626   7.297  23.588  0.00  0.00     0.072 H 
BRANCH  47  49
ATOM     49  C21 non d ame     -32.744   6.343  23.972  0.00  0.00    -0.038 C 
ATOM     50  H31 non d ame     -33.339   5.539  23.538  0.00  0.00     0.036 H 
ATOM     51  H32 non d ame     -31.825   6.667  23.484  0.00  0.00     0.036 H 
BRANCH  49  52
ATOM     52  C22 non d ame     -32.344   5.874  25.388  0.00  0.00     0.018 C 
ATOM     53  H33 non d ame     -31.430   5.295  25.261  0.00  0.00     0.048 H 
ATOM     54  H34 non d ame     -32.339   6.773  26.006  0.00  0.00     0.048 H 
BRANCH  52  55
ATOM     55  C23 non d ame     -33.373   4.911  26.042  0.00  0.00     0.259 C 
ATOM     56  O7  non d ame     -33.411   3.765  25.729  0.00  0.00    -0.265 OA
BRANCH  55  57
ATOM     57  O8  non d ame     -34.280   5.416  27.014  0.00  0.00    -0.317 OA
BRANCH  57  58
ATOM     58  C29 non d ame     -35.379   4.543  27.294  0.00  0.00     0.052 C 
ATOM     59  H47 non d ame     -36.081   4.680  26.471  0.00  0.00     0.082 H 
ATOM     60  H48 non d ame     -34.938   3.564  27.478  0.00  0.00     0.082 H 
BRANCH  58  61
ATOM     61  C35 non d ame     -36.056   5.030  28.603  0.00  0.00    -0.034 A 
ATOM     62  C30 non d ame     -37.440   4.976  28.734  0.00  0.00    -0.075 A 
ATOM     63  C31 non d ame     -38.048   5.414  29.909  0.00  0.00    -0.082 A 
ATOM     64  H49 non d ame     -38.048   4.591  27.915  0.00  0.00     0.084 H 
ATOM     65  C32 non d ame     -37.267   5.910  30.956  0.00  0.00    -0.083 A 
ATOM     66  H50 non d ame     -39.133   5.369  30.009  0.00  0.00     0.083 H 
ATOM     67  C33 non d ame     -35.886   5.965  30.820  0.00  0.00    -0.082 A 
ATOM     68  H51 non d ame     -37.734   6.254  31.879  0.00  0.00     0.083 H 
ATOM     69  C34 non d ame     -35.274   5.527  29.648  0.00  0.00    -0.075 A 
ATOM     70  H52 non d ame     -35.280   6.355  31.638  0.00  0.00     0.083 H 
ATOM     71  H53 non d ame     -34.189   5.573  29.549  0.00  0.00     0.084 H 
ENDBRANCH  58  61
ENDBRANCH  57  58
ENDBRANCH  55  57
ENDBRANCH  52  55
ENDBRANCH  49  52
ENDBRANCH  47  49
BRANCH  47  72
ATOM     72  C24 non d ame     -33.013   8.674  23.162  0.00  0.00    -0.039 C 
ATOM     73  H35 non d ame     -32.747   8.215  22.209  0.00  0.00     0.036 H 
ATOM     74  H36 non d ame     -33.728   9.496  23.190  0.00  0.00     0.036 H 
BRANCH  72  75
ATOM     75  C25 non d ame     -31.655   9.205  23.826  0.00  0.00    -0.001 C 
ATOM     76  C26 non d ame     -31.841  10.766  24.307  0.00  0.00    -0.035 C 
ATOM     77  C27 non d ame     -30.820  11.502  23.807  0.00  0.00     0.085 C 
ATOM     78  H38 non d ame     -32.722  11.200  23.836  0.00  0.00     0.036 H 
ATOM     79  H39 non d ame     -31.705  10.844  25.386  0.00  0.00     0.036 H 
ATOM     80  N5  non d ame     -30.136  10.655  22.761  0.00  0.00    -0.049 N 
ATOM     81  H40 non d ame     -31.288  12.358  23.321  0.00  0.00     0.075 H 
ATOM     82  H41 non d ame     -30.136  11.657  24.641  0.00  0.00     0.075 H 
ATOM     83  C28 non d ame     -30.673   9.149  22.989  0.00  0.00     0.193 C 
ATOM     84  H42 non d ame     -30.469  10.982  21.865  0.00  0.00     0.280 HD
ATOM     85  H43 non d ame     -29.149  10.680  22.973  0.00  0.00     0.280 HD
ATOM     86  H44 non d ame     -30.042   8.404  23.474  0.00  0.00     0.129 H 
ATOM     87  H37 non d ame     -31.251   8.505  24.557  0.00  0.00     0.046 H 
BRANCH  83  88
ATOM     88  O6  non d ame     -31.059   8.569  21.742  0.00  0.00    -0.369 OA
ATOM     89  H45 non d ame     -31.756   9.098  21.345  0.00  0.00     0.212 HD
ENDBRANCH  83  88
ENDBRANCH  72  75
ENDBRANCH  47  72
ENDBRANCH  45  47
ENDBRANCH   1  43
BRANCH   1  90
ATOM     90  C16 non d ame     -36.826   9.358  27.506  0.00  0.00    -0.035 C 
ATOM     91  H21 non d ame     -36.885  10.444  27.568  0.00  0.00     0.037 H 
ATOM     92  H22 non d ame     -37.360   8.827  26.718  0.00  0.00     0.037 H 
BRANCH  90  93
ATOM     93  C17 non d ame     -37.379   8.810  28.860  0.00  0.00    -0.059 C 
ATOM     94  H23 non d ame     -37.119   7.753  28.920  0.00  0.00     0.038 H 
BRANCH  93  95
ATOM     95  C18 non d ame     -36.739   9.527  30.092  0.00  0.00    -0.073 C 
ATOM     96  H24 non d ame     -36.825  10.607  29.968  0.00  0.00     0.028 H 
ATOM     97  H25 non d ame     -37.260   9.224  31.000  0.00  0.00     0.028 H 
ATOM     98  H26 non d ame     -35.688   9.252  30.167  0.00  0.00     0.028 H 
ENDBRANCH  93  95
BRANCH  93  99
ATOM     99  C19 non d ame     -38.906   8.906  28.906  0.00  0.00    -0.073 C 
ATOM    100  H27 non d ame     -39.223   9.865  28.495  0.00  0.00     0.028 H 
ATOM    101  H28 non d ame     -39.340   8.098  28.317  0.00  0.00     0.028 H 
ATOM    102  H29 non d ame     -39.244   8.823  29.939  0.00  0.00     0.028 H 
ENDBRANCH  93  99
ENDBRANCH  90  93
ENDBRANCH   1  90
TORSDOF 26
ENDMDL
MODEL 7
REMARK VINA RESULT:      -6.1      2.366      6.250
REMARK  26 active torsions:
REMARK  status: ('A' for Active; 'I' for Inactive)
REMARK    1  A    between atoms: C2_2  and  C3_3 
REMARK    2  A    between atoms: C4_6  and  C5_7 
REMARK       I    between atoms: C5_7  and  N2_9 
REMARK    3  A    between atoms: N2_9  and  C6_10 
REMARK    4  A    between atoms: C6_10  and  C7_11 
REMARK    5  A    between atoms: C6_10  and  C8_13 
REMARK       I    between atoms: C7_11  and  N3_14 
REMARK    6  A    between atoms: N3_14  and  C9_15 
REMARK    7  A    between atoms: C9_15  and  C10_16 
REMARK    8  A    between atoms: C9_15  and  C11_18 
REMARK       I    between atoms: C10_16  and  N4_21 
REMARK    9  A    between atoms: C11_18  and  C12_19 
REMARK   10  A    between atoms: C11_18  and  C13_20 
REMARK   11  A    between atoms: N4_21  and  C14_22 
REMARK   12  A    between atoms: C14_22  and  C15_23 
REMARK   13  A    between atoms: C14_22  and  C16_25 
REMARK       I    between atoms: C15_23  and  N6_40 
REMARK   14  A    between atoms: C16_25  and  C17_26 
REMARK   15  A    between atoms: C17_26  and  C18_27 
REMARK   16  A    between atoms: C17_26  and  C19_28 
REMARK   17  A    between atoms: C20_29  and  C21_30 
REMARK   18  A    between atoms: C20_29  and  C24_33 
REMARK   19  A    between atoms: C20_29  and  N6_40 
REMARK   20  A    between atoms: C21_30  and  C22_31 
REMARK   21  A    between atoms: C22_31  and  C23_32 
REMARK   22  A    between atoms: C23_32  and  O8_43 
REMARK   23  A    between atoms: C24_33  and  C25_34 
REMARK   24  A    between atoms: C28_38  and  O6_39 
REMARK   25  A    between atoms: C29_42  and  O8_43 
REMARK   26  A    between atoms: C29_42  and  C35_49 
ROOT
ATOM      1  C14 non d ame     -36.160  13.226  26.187  0.00  0.00     0.089 C 
ATOM      2  H20 non d ame     -36.865  13.138  27.014  0.00  0.00     0.087 H 
ENDROOT
BRANCH   1   3
ATOM      3  N4  non d ame     -35.904  14.643  25.978  0.00  0.00    -0.346 N 
ATOM      4  C10 non d ame     -36.832  15.679  26.561  0.00  0.00     0.241 C 
ATOM      5  O4  non d ame     -37.780  15.347  27.193  0.00  0.00    -0.271 OA
ATOM      6  H19 non d ame     -35.093  14.904  25.435  0.00  0.00     0.163 HD
BRANCH   4   7
ATOM      7  C9  non d ame     -36.548  17.141  26.339  0.00  0.00     0.092 C 
ATOM      8  H11 non d ame     -36.825  17.699  27.234  0.00  0.00     0.088 H 
BRANCH   7   9
ATOM      9  N3  non d ame     -35.109  17.335  26.135  0.00  0.00    -0.346 N 
ATOM     10  C7  non d ame     -34.258  17.642  27.258  0.00  0.00     0.240 C 
ATOM     11  O3  non d ame     -34.713  17.738  28.332  0.00  0.00    -0.271 OA
ATOM     12  H10 non d ame     -34.702  17.257  25.215  0.00  0.00     0.163 HD
BRANCH  10  13
ATOM     13  C6  non d ame     -32.727  17.850  27.034  0.00  0.00     0.086 C 
ATOM     14  H6  non d ame     -32.119  17.337  27.779  0.00  0.00     0.086 H 
BRANCH  13  15
ATOM     15  N2  non d ame     -32.360  17.295  25.742  0.00  0.00    -0.343 N 
ATOM     16  C5  non d ame     -31.729  15.975  25.678  0.00  0.00     0.273 C 
ATOM     17  O2  non d ame     -31.519  15.369  26.671  0.00  0.00    -0.266 OA
ATOM     18  H5  non d ame     -32.541  17.821  24.899  0.00  0.00     0.163 HD
BRANCH  16  19
ATOM     19  C4  non d ame     -31.337  15.375  24.319  0.00  0.00     0.154 A 
ATOM     20  C1  non d ame     -31.257  16.057  23.063  0.00  0.00    -0.017 A 
ATOM     21  C2  non d ame     -30.857  15.068  22.137  0.00  0.00     0.077 A 
ATOM     22  H1  non d ame     -31.458  17.108  22.856  0.00  0.00     0.091 H 
ATOM     23  O1  non d ame     -30.724  13.953  22.794  0.00  0.00    -0.218 OA
ATOM     24  N1  non d ame     -30.999  14.107  24.069  0.00  0.00    -0.123 NA
BRANCH  21  25
ATOM     25  C3  non d ame     -30.623  15.271  20.646  0.00  0.00    -0.029 C 
ATOM     26  H2  non d ame     -29.976  16.134  20.493  0.00  0.00     0.036 H 
ATOM     27  H3  non d ame     -30.148  14.383  20.229  0.00  0.00     0.036 H 
ATOM     28  H4  non d ame     -31.577  15.440  20.148  0.00  0.00     0.036 H 
ENDBRANCH  21  25
ENDBRANCH  16  19
ENDBRANCH  13  15
BRANCH  13  29
ATOM     29  C8  non d ame     -32.407  19.323  27.074  0.00  0.00    -0.049 C 
ATOM     30  H7  non d ame     -31.934  19.617  26.137  0.00  0.00     0.030 H 
ATOM     31  H8  non d ame     -33.327  19.891  27.210  0.00  0.00     0.030 H 
ATOM     32  H9  non d ame     -31.728  19.525  27.902  0.00  0.00     0.030 H 
ENDBRANCH  13  29
ENDBRANCH  10  13
ENDBRANCH   7   9
BRANCH   7  33
ATOM     33  C11 non d ame     -37.319  17.634  25.080  0.00  0.00    -0.033 C 
ATOM     34  H12 non d ame     -37.132  16.918  24.279  0.00  0.00     0.042 H 
BRANCH  33  35
ATOM     35  C12 non d ame     -38.859  17.666  25.332  0.00  0.00    -0.071 C 
ATOM     36  H13 non d ame     -39.050  17.861  26.387  0.00  0.00     0.028 H 
ATOM     37  H14 non d ame     -39.309  18.453  24.728  0.00  0.00     0.028 H 
ATOM     38  H15 non d ame     -39.291  16.704  25.057  0.00  0.00     0.028 H 
ENDBRANCH  33  35
BRANCH  33  39
ATOM     39  C13 non d ame     -36.792  19.029  24.612  0.00  0.00    -0.071 C 
ATOM     40  H16 non d ame     -36.696  19.688  25.474  0.00  0.00     0.028 H 
ATOM     41  H17 non d ame     -35.819  18.909  24.135  0.00  0.00     0.028 H 
ATOM     42  H18 non d ame     -37.494  19.462  23.899  0.00  0.00     0.028 H 
ENDBRANCH  33  39
ENDBRANCH   7  33
ENDBRANCH   4   7
ENDBRANCH   1   3
BRANCH   1  43
ATOM     43  C15 non d ame     -34.808  12.517  26.489  0.00  0.00     0.240 C 
ATOM     44  O5  non d ame     -33.792  12.989  26.094  0.00  0.00    -0.271 OA
ATOM     45  N6  non d ame     -34.780  11.254  27.281  0.00  0.00    -0.355 N 
ATOM     46  H46 non d ame     -35.637  10.846  27.626  0.00  0.00     0.162 HD
BRANCH  45  47
ATOM     47  C20 non d ame     -33.487  10.594  27.561  0.00  0.00     0.013 C 
ATOM     48  H30 non d ame     -32.704  11.164  27.061  0.00  0.00     0.072 H 
BRANCH  47  49
ATOM     49  C21 non d ame     -33.521   9.181  27.024  0.00  0.00    -0.038 C 
ATOM     50  H31 non d ame     -32.786   9.154  26.220  0.00  0.00     0.036 H 
ATOM     51  H32 non d ame     -33.403   8.533  27.893  0.00  0.00     0.036 H 
BRANCH  49  52
ATOM     52  C22 non d ame     -34.879   8.814  26.387  0.00  0.00     0.018 C 
ATOM     53  H33 non d ame     -35.602   9.510  26.811  0.00  0.00     0.048 H 
ATOM     54  H34 non d ame     -34.705   8.796  25.311  0.00  0.00     0.048 H 
BRANCH  52  55
ATOM     55  C23 non d ame     -35.383   7.393  26.762  0.00  0.00     0.259 C 
ATOM     56  O7  non d ame     -35.064   6.449  26.115  0.00  0.00    -0.265 OA
BRANCH  55  57
ATOM     57  O8  non d ame     -36.244   7.233  27.883  0.00  0.00    -0.317 OA
BRANCH  57  58
ATOM     58  C29 non d ame     -36.865   8.446  28.319  0.00  0.00     0.052 C 
ATOM     59  H47 non d ame     -36.487   9.225  27.656  0.00  0.00     0.082 H 
ATOM     60  H48 non d ame     -37.933   8.233  28.357  0.00  0.00     0.082 H 
BRANCH  58  61
ATOM     61  C35 non d ame     -36.372   8.745  29.760  0.00  0.00    -0.034 A 
ATOM     62  C30 non d ame     -35.603   7.808  30.442  0.00  0.00    -0.075 A 
ATOM     63  C31 non d ame     -35.161   8.077  31.737  0.00  0.00    -0.082 A 
ATOM     64  H49 non d ame     -35.347   6.863  29.963  0.00  0.00     0.084 H 
ATOM     65  C32 non d ame     -35.493   9.287  32.350  0.00  0.00    -0.083 A 
ATOM     66  H50 non d ame     -34.557   7.341  32.268  0.00  0.00     0.083 H 
ATOM     67  C33 non d ame     -36.264  10.218  31.667  0.00  0.00    -0.082 A 
ATOM     68  H51 non d ame     -35.151   9.506  33.362  0.00  0.00     0.083 H 
ATOM     69  C34 non d ame     -36.706   9.955  30.372  0.00  0.00    -0.075 A 
ATOM     70  H52 non d ame     -36.523  11.161  32.149  0.00  0.00     0.083 H 
ATOM     71  H53 non d ame     -37.310  10.691  29.842  0.00  0.00     0.084 H 
ENDBRANCH  58  61
ENDBRANCH  57  58
ENDBRANCH  55  57
ENDBRANCH  52  55
ENDBRANCH  49  52
ENDBRANCH  47  49
BRANCH  47  72
ATOM     72  C24 non d ame     -33.240  10.561  29.068  0.00  0.00    -0.039 C 
ATOM     73  H35 non d ame     -34.213  10.360  29.517  0.00  0.00     0.036 H 
ATOM     74  H36 non d ame     -32.418   9.859  29.212  0.00  0.00     0.036 H 
BRANCH  72  75
ATOM     75  C25 non d ame     -32.750  11.983  29.619  0.00  0.00    -0.001 C 
ATOM     76  C26 non d ame     -31.466  12.512  28.740  0.00  0.00    -0.035 C 
ATOM     77  C27 non d ame     -30.467  12.856  29.589  0.00  0.00     0.085 C 
ATOM     78  H38 non d ame     -31.041  11.689  28.166  0.00  0.00     0.036 H 
ATOM     79  H39 non d ame     -31.713  13.451  28.244  0.00  0.00     0.036 H 
ATOM     80  N5  non d ame     -30.832  12.303  30.945  0.00  0.00    -0.049 N 
ATOM     81  H40 non d ame     -29.581  12.339  29.220  0.00  0.00     0.075 H 
ATOM     82  H41 non d ame     -30.484  13.944  29.633  0.00  0.00     0.075 H 
ATOM     83  C28 non d ame     -32.394  11.907  30.858  0.00  0.00     0.193 C 
ATOM     84  H42 non d ame     -30.292  11.458  31.064  0.00  0.00     0.280 HD
ATOM     85  H43 non d ame     -30.729  13.064  31.601  0.00  0.00     0.280 HD
ATOM     86  H44 non d ame     -33.152  12.538  31.322  0.00  0.00     0.129 H 
ATOM     87  H37 non d ame     -33.577  12.679  29.758  0.00  0.00     0.046 H 
BRANCH  83  88
ATOM     88  O6  non d ame     -32.603  10.601  31.399  0.00  0.00    -0.369 OA
ATOM     89  H45 non d ame     -31.764  10.134  31.441  0.00  0.00     0.212 HD
ENDBRANCH  83  88
ENDBRANCH  72  75
ENDBRANCH  47  72
ENDBRANCH  45  47
ENDBRANCH   1  43
BRANCH   1  90
ATOM     90  C16 non d ame     -36.772  12.641  24.924  0.00  0.00    -0.035 C 
ATOM     91  H21 non d ame     -36.735  13.442  24.187  0.00  0.00     0.037 H 
ATOM     92  H22 non d ame     -36.232  11.711  24.745  0.00  0.00     0.037 H 
BRANCH  90  93
ATOM     93  C17 non d ame     -38.277  12.254  25.079  0.00  0.00    -0.059 C 
ATOM     94  H23 non d ame     -38.463  11.388  24.443  0.00  0.00     0.038 H 
BRANCH  93  95
ATOM     95  C18 non d ame     -38.636  11.854  26.546  0.00  0.00    -0.073 C 
ATOM     96  H24 non d ame     -38.556  12.729  27.191  0.00  0.00     0.028 H 
ATOM     97  H25 non d ame     -39.655  11.471  26.580  0.00  0.00     0.028 H 
ATOM     98  H26 non d ame     -37.946  11.084  26.891  0.00  0.00     0.028 H 
ENDBRANCH  93  95
BRANCH  93  99
ATOM     99  C19 non d ame     -39.185  13.383  24.585  0.00  0.00    -0.073 C 
ATOM    100  H27 non d ame     -40.215  13.027  24.534  0.00  0.00     0.028 H 
ATOM    101  H28 non d ame     -39.126  14.226  25.274  0.00  0.00     0.028 H 
ATOM    102  H29 non d ame     -38.862  13.702  23.594  0.00  0.00     0.028 H 
ENDBRANCH  93  99
ENDBRANCH  90  93
ENDBRANCH   1  90
TORSDOF 26
ENDMDL
MODEL 8
REMARK VINA RESULT:      -6.1      3.319      9.075
REMARK  26 active torsions:
REMARK  status: ('A' for Active; 'I' for Inactive)
REMARK    1  A    between atoms: C2_2  and  C3_3 
REMARK    2  A    between atoms: C4_6  and  C5_7 
REMARK       I    between atoms: C5_7  and  N2_9 
REMARK    3  A    between atoms: N2_9  and  C6_10 
REMARK    4  A    between atoms: C6_10  and  C7_11 
REMARK    5  A    between atoms: C6_10  and  C8_13 
REMARK       I    between atoms: C7_11  and  N3_14 
REMARK    6  A    between atoms: N3_14  and  C9_15 
REMARK    7  A    between atoms: C9_15  and  C10_16 
REMARK    8  A    between atoms: C9_15  and  C11_18 
REMARK       I    between atoms: C10_16  and  N4_21 
REMARK    9  A    between atoms: C11_18  and  C12_19 
REMARK   10  A    between atoms: C11_18  and  C13_20 
REMARK   11  A    between atoms: N4_21  and  C14_22 
REMARK   12  A    between atoms: C14_22  and  C15_23 
REMARK   13  A    between atoms: C14_22  and  C16_25 
REMARK       I    between atoms: C15_23  and  N6_40 
REMARK   14  A    between atoms: C16_25  and  C17_26 
REMARK   15  A    between atoms: C17_26  and  C18_27 
REMARK   16  A    between atoms: C17_26  and  C19_28 
REMARK   17  A    between atoms: C20_29  and  C21_30 
REMARK   18  A    between atoms: C20_29  and  C24_33 
REMARK   19  A    between atoms: C20_29  and  N6_40 
REMARK   20  A    between atoms: C21_30  and  C22_31 
REMARK   21  A    between atoms: C22_31  and  C23_32 
REMARK   22  A    between atoms: C23_32  and  O8_43 
REMARK   23  A    between atoms: C24_33  and  C25_34 
REMARK   24  A    between atoms: C28_38  and  O6_39 
REMARK   25  A    between atoms: C29_42  and  O8_43 
REMARK   26  A    between atoms: C29_42  and  C35_49 
ROOT
ATOM      1  C14 non d ame     -32.496  10.532  26.547  0.00  0.00     0.089 C 
ATOM      2  H20 non d ame     -33.533  10.605  26.217  0.00  0.00     0.087 H 
ENDROOT
BRANCH   1   3
ATOM      3  N4  non d ame     -31.871   9.457  25.792  0.00  0.00    -0.346 N 
ATOM      4  C10 non d ame     -32.337   9.136  24.394  0.00  0.00     0.241 C 
ATOM      5  O4  non d ame     -33.219   9.756  23.899  0.00  0.00    -0.271 OA
ATOM      6  H19 non d ame     -31.123   8.940  26.233  0.00  0.00     0.163 HD
BRANCH   4   7
ATOM      7  C9  non d ame     -31.674   8.023  23.626  0.00  0.00     0.092 C 
ATOM      8  H11 non d ame     -30.709   7.798  24.081  0.00  0.00     0.088 H 
BRANCH   7   9
ATOM      9  N3  non d ame     -32.491   6.810  23.718  0.00  0.00    -0.346 N 
ATOM     10  C7  non d ame     -32.370   5.946  24.866  0.00  0.00     0.240 C 
ATOM     11  O3  non d ame     -31.619   6.210  25.724  0.00  0.00    -0.271 OA
ATOM     12  H10 non d ame     -33.143   6.568  22.986  0.00  0.00     0.163 HD
BRANCH  10  13
ATOM     13  C6  non d ame     -33.241   4.654  24.958  0.00  0.00     0.086 C 
ATOM     14  H6  non d ame     -32.714   3.823  25.427  0.00  0.00     0.086 H 
BRANCH  13  15
ATOM     15  N2  non d ame     -34.405   4.928  25.784  0.00  0.00    -0.343 N 
ATOM     16  C5  non d ame     -34.372   4.593  27.210  0.00  0.00     0.273 C 
ATOM     17  O2  non d ame     -33.406   4.102  27.681  0.00  0.00    -0.266 OA
ATOM     18  H5  non d ame     -35.227   5.346  25.373  0.00  0.00     0.163 HD
BRANCH  16  19
ATOM     19  C4  non d ame     -35.595   4.879  28.096  0.00  0.00     0.154 A 
ATOM     20  C1  non d ame     -35.620   5.611  29.325  0.00  0.00    -0.017 A 
ATOM     21  C2  non d ame     -36.971   5.586  29.736  0.00  0.00     0.077 A 
ATOM     22  H1  non d ame     -34.785   6.087  29.840  0.00  0.00     0.091 H 
ATOM     23  O1  non d ame     -37.636   4.917  28.840  0.00  0.00    -0.218 OA
ATOM     24  N1  non d ame     -36.854   4.494  27.873  0.00  0.00    -0.123 NA
BRANCH  21  25
ATOM     25  C3  non d ame     -37.543   6.225  30.994  0.00  0.00    -0.029 C 
ATOM     26  H2  non d ame     -37.670   7.295  30.833  0.00  0.00     0.036 H 
ATOM     27  H3  non d ame     -38.510   5.776  31.222  0.00  0.00     0.036 H 
ATOM     28  H4  non d ame     -36.861   6.061  31.828  0.00  0.00     0.036 H 
ENDBRANCH  21  25
ENDBRANCH  16  19
ENDBRANCH  13  15
BRANCH  13  29
ATOM     29  C8  non d ame     -33.675   4.238  23.575  0.00  0.00    -0.049 C 
ATOM     30  H7  non d ame     -34.643   3.740  23.633  0.00  0.00     0.030 H 
ATOM     31  H8  non d ame     -33.758   5.120  22.941  0.00  0.00     0.030 H 
ATOM     32  H9  non d ame     -32.939   3.555  23.153  0.00  0.00     0.030 H 
ENDBRANCH  13  29
ENDBRANCH  10  13
ENDBRANCH   7   9
BRANCH   7  33
ATOM     33  C11 non d ame     -31.533   8.438  22.131  0.00  0.00    -0.033 C 
ATOM     34  H12 non d ame     -32.109   9.352  21.988  0.00  0.00     0.042 H 
BRANCH  33  35
ATOM     35  C12 non d ame     -30.049   8.756  21.767  0.00  0.00    -0.071 C 
ATOM     36  H13 non d ame     -29.668   9.527  22.437  0.00  0.00     0.028 H 
ATOM     37  H14 non d ame     -29.448   7.853  21.872  0.00  0.00     0.028 H 
ATOM     38  H15 non d ame     -29.996   9.111  20.738  0.00  0.00     0.028 H 
ENDBRANCH  33  35
BRANCH  33  39
ATOM     39  C13 non d ame     -32.125   7.341  21.189  0.00  0.00    -0.071 C 
ATOM     40  H16 non d ame     -32.154   7.718  20.166  0.00  0.00     0.028 H 
ATOM     41  H17 non d ame     -31.499   6.450  21.230  0.00  0.00     0.028 H 
ATOM     42  H18 non d ame     -33.135   7.090  21.513  0.00  0.00     0.028 H 
ENDBRANCH  33  39
ENDBRANCH   7  33
ENDBRANCH   4   7
ENDBRANCH   1   3
BRANCH   1  43
ATOM     43  C15 non d ame     -31.703  11.845  26.289  0.00  0.00     0.240 C 
ATOM     44  O5  non d ame     -31.003  12.290  27.140  0.00  0.00    -0.271 OA
ATOM     45  N6  non d ame     -31.811  12.544  24.977  0.00  0.00    -0.355 N 
ATOM     46  H46 non d ame     -32.399  12.174  24.245  0.00  0.00     0.162 HD
BRANCH  45  47
ATOM     47  C20 non d ame     -31.049  13.791  24.746  0.00  0.00     0.013 C 
ATOM     48  H30 non d ame     -30.222  13.815  25.455  0.00  0.00     0.072 H 
BRANCH  47  49
ATOM     49  C21 non d ame     -31.957  14.979  24.971  0.00  0.00    -0.038 C 
ATOM     50  H31 non d ame     -31.742  15.673  24.158  0.00  0.00     0.036 H 
ATOM     51  H32 non d ame     -32.959  14.567  25.085  0.00  0.00     0.036 H 
BRANCH  49  52
ATOM     52  C22 non d ame     -31.644  15.733  26.282  0.00  0.00     0.018 C 
ATOM     53  H33 non d ame     -31.845  15.025  27.085  0.00  0.00     0.048 H 
ATOM     54  H34 non d ame     -30.641  16.143  26.154  0.00  0.00     0.048 H 
BRANCH  52  55
ATOM     55  C23 non d ame     -32.573  16.951  26.541  0.00  0.00     0.259 C 
ATOM     56  O7  non d ame     -32.220  18.050  26.261  0.00  0.00    -0.265 OA
BRANCH  55  57
ATOM     57  O8  non d ame     -33.850  16.739  27.131  0.00  0.00    -0.317 OA
BRANCH  57  58
ATOM     58  C29 non d ame     -34.935  16.768  26.199  0.00  0.00     0.052 C 
ATOM     59  H47 non d ame     -35.725  17.341  26.683  0.00  0.00     0.082 H 
ATOM     60  H48 non d ame     -34.507  17.117  25.259  0.00  0.00     0.082 H 
BRANCH  58  61
ATOM     61  C35 non d ame     -35.434  15.313  26.000  0.00  0.00    -0.034 A 
ATOM     62  C30 non d ame     -35.096  14.328  26.922  0.00  0.00    -0.075 A 
ATOM     63  C31 non d ame     -35.544  13.020  26.743  0.00  0.00    -0.082 A 
ATOM     64  H49 non d ame     -34.478  14.580  27.784  0.00  0.00     0.084 H 
ATOM     65  C32 non d ame     -36.333  12.698  25.635  0.00  0.00    -0.083 A 
ATOM     66  H50 non d ame     -35.278  12.251  27.469  0.00  0.00     0.083 H 
ATOM     67  C33 non d ame     -36.666  13.684  24.716  0.00  0.00    -0.082 A 
ATOM     68  H51 non d ame     -36.688  11.678  25.489  0.00  0.00     0.083 H 
ATOM     69  C34 non d ame     -36.221  14.992  24.892  0.00  0.00    -0.075 A 
ATOM     70  H52 non d ame     -37.279  13.429  23.852  0.00  0.00     0.083 H 
ATOM     71  H53 non d ame     -36.488  15.761  24.166  0.00  0.00     0.084 H 
ENDBRANCH  58  61
ENDBRANCH  57  58
ENDBRANCH  55  57
ENDBRANCH  52  55
ENDBRANCH  49  52
ENDBRANCH  47  49
BRANCH  47  72
ATOM     72  C24 non d ame     -30.521  13.816  23.314  0.00  0.00    -0.039 C 
ATOM     73  H35 non d ame     -29.542  13.338  23.357  0.00  0.00     0.036 H 
ATOM     74  H36 non d ame     -31.313  13.381  22.705  0.00  0.00     0.036 H 
BRANCH  72  75
ATOM     75  C25 non d ame     -30.293  15.314  22.792  0.00  0.00    -0.001 C 
ATOM     76  C26 non d ame     -31.310  15.631  21.539  0.00  0.00    -0.035 C 
ATOM     77  C27 non d ame     -30.587  16.127  20.506  0.00  0.00     0.085 C 
ATOM     78  H38 non d ame     -31.716  14.701  21.142  0.00  0.00     0.036 H 
ATOM     79  H39 non d ame     -31.979  16.452  21.798  0.00  0.00     0.036 H 
ATOM     80  N5  non d ame     -29.133  15.871  20.821  0.00  0.00    -0.049 N 
ATOM     81  H40 non d ame     -30.873  15.532  19.639  0.00  0.00     0.075 H 
ATOM     82  H41 non d ame     -30.768  17.201  20.513  0.00  0.00     0.075 H 
ATOM     83  C28 non d ame     -29.079  15.489  22.389  0.00  0.00     0.193 C 
ATOM     84  H42 non d ame     -28.862  15.060  20.283  0.00  0.00     0.280 HD
ATOM     85  H43 non d ame     -28.653  16.749  20.688  0.00  0.00     0.280 HD
ATOM     86  H44 non d ame     -28.729  16.214  23.124  0.00  0.00     0.129 H 
ATOM     87  H37 non d ame     -30.272  16.036  23.608  0.00  0.00     0.046 H 
BRANCH  83  88
ATOM     88  O6  non d ame     -28.273  14.326  22.586  0.00  0.00    -0.369 OA
ATOM     89  H45 non d ame     -27.394  14.590  22.867  0.00  0.00     0.212 HD
ENDBRANCH  83  88
ENDBRANCH  72  75
ENDBRANCH  47  72
ENDBRANCH  45  47
ENDBRANCH   1  43
BRANCH   1  90
ATOM     90  C16 non d ame     -32.451  10.190  28.028  0.00  0.00    -0.035 C 
ATOM     91  H21 non d ame     -32.566   9.108  28.078  0.00  0.00     0.037 H 
ATOM     92  H22 non d ame     -31.542  10.660  28.405  0.00  0.00     0.037 H 
BRANCH  90  93
ATOM     93  C17 non d ame     -33.634  10.797  28.848  0.00  0.00    -0.059 C 
ATOM     94  H23 non d ame     -34.172  11.484  28.194  0.00  0.00     0.038 H 
BRANCH  93  95
ATOM     95  C18 non d ame     -34.643   9.704  29.324  0.00  0.00    -0.073 C 
ATOM     96  H24 non d ame     -34.100   8.796  29.582  0.00  0.00     0.028 H 
ATOM     97  H25 non d ame     -35.183  10.065  30.200  0.00  0.00     0.028 H 
ATOM     98  H26 non d ame     -35.351   9.490  28.524  0.00  0.00     0.028 H 
ENDBRANCH  93  95
BRANCH  93  99
ATOM     99  C19 non d ame     -33.114  11.613  30.034  0.00  0.00    -0.073 C 
ATOM    100  H27 non d ame     -33.173  12.676  29.798  0.00  0.00     0.028 H 
ATOM    101  H28 non d ame     -33.722  11.403  30.914  0.00  0.00     0.028 H 
ATOM    102  H29 non d ame     -32.078  11.342  30.236  0.00  0.00     0.028 H 
ENDBRANCH  93  99
ENDBRANCH  90  93
ENDBRANCH   1  90
TORSDOF 26
ENDMDL
MODEL 9
REMARK VINA RESULT:      -6.0      2.452      8.001
REMARK  26 active torsions:
REMARK  status: ('A' for Active; 'I' for Inactive)
REMARK    1  A    between atoms: C2_2  and  C3_3 
REMARK    2  A    between atoms: C4_6  and  C5_7 
REMARK       I    between atoms: C5_7  and  N2_9 
REMARK    3  A    between atoms: N2_9  and  C6_10 
REMARK    4  A    between atoms: C6_10  and  C7_11 
REMARK    5  A    between atoms: C6_10  and  C8_13 
REMARK       I    between atoms: C7_11  and  N3_14 
REMARK    6  A    between atoms: N3_14  and  C9_15 
REMARK    7  A    between atoms: C9_15  and  C10_16 
REMARK    8  A    between atoms: C9_15  and  C11_18 
REMARK       I    between atoms: C10_16  and  N4_21 
REMARK    9  A    between atoms: C11_18  and  C12_19 
REMARK   10  A    between atoms: C11_18  and  C13_20 
REMARK   11  A    between atoms: N4_21  and  C14_22 
REMARK   12  A    between atoms: C14_22  and  C15_23 
REMARK   13  A    between atoms: C14_22  and  C16_25 
REMARK       I    between atoms: C15_23  and  N6_40 
REMARK   14  A    between atoms: C16_25  and  C17_26 
REMARK   15  A    between atoms: C17_26  and  C18_27 
REMARK   16  A    between atoms: C17_26  and  C19_28 
REMARK   17  A    between atoms: C20_29  and  C21_30 
REMARK   18  A    between atoms: C20_29  and  C24_33 
REMARK   19  A    between atoms: C20_29  and  N6_40 
REMARK   20  A    between atoms: C21_30  and  C22_31 
REMARK   21  A    between atoms: C22_31  and  C23_32 
REMARK   22  A    between atoms: C23_32  and  O8_43 
REMARK   23  A    between atoms: C24_33  and  C25_34 
REMARK   24  A    between atoms: C28_38  and  O6_39 
REMARK   25  A    between atoms: C29_42  and  O8_43 
REMARK   26  A    between atoms: C29_42  and  C35_49 
ROOT
ATOM      1  C14 non d ame     -33.567  11.679  28.760  0.00  0.00     0.089 C 
ATOM      2  H20 non d ame     -33.986  12.014  29.709  0.00  0.00     0.087 H 
ENDROOT
BRANCH   1   3
ATOM      3  N4  non d ame     -34.088  10.346  28.496  0.00  0.00    -0.346 N 
ATOM      4  C10 non d ame     -34.430   9.423  29.638  0.00  0.00     0.241 C 
ATOM      5  O4  non d ame     -34.274   9.774  30.761  0.00  0.00    -0.271 OA
ATOM      6  H19 non d ame     -34.211  10.066  27.534  0.00  0.00     0.163 HD
BRANCH   4   7
ATOM      7  C9  non d ame     -34.974   8.049  29.347  0.00  0.00     0.092 C 
ATOM      8  H11 non d ame     -35.855   8.139  28.711  0.00  0.00     0.088 H 
BRANCH   7   9
ATOM      9  N3  non d ame     -33.977   7.276  28.600  0.00  0.00    -0.346 N 
ATOM     10  C7  non d ame     -34.071   7.177  27.164  0.00  0.00     0.240 C 
ATOM     11  O3  non d ame     -34.942   7.711  26.595  0.00  0.00    -0.271 OA
ATOM     12  H10 non d ame     -33.220   6.809  29.078  0.00  0.00     0.163 HD
BRANCH  10  13
ATOM     13  C6  non d ame     -33.008   6.351  26.375  0.00  0.00     0.086 C 
ATOM     14  H6  non d ame     -33.451   5.724  25.602  0.00  0.00     0.086 H 
BRANCH  13  15
ATOM     15  N2  non d ame     -32.105   7.268  25.700  0.00  0.00    -0.343 N 
ATOM     16  C5  non d ame     -32.270   7.518  24.266  0.00  0.00     0.273 C 
ATOM     17  O2  non d ame     -33.131   6.976  23.665  0.00  0.00    -0.266 OA
ATOM     18  H5  non d ame     -31.370   7.725  26.221  0.00  0.00     0.163 HD
BRANCH  16  19
ATOM     19  C4  non d ame     -31.323   8.486  23.540  0.00  0.00     0.154 A 
ATOM     20  C1  non d ame     -31.383   9.916  23.538  0.00  0.00    -0.017 A 
ATOM     21  C2  non d ame     -30.299  10.324  22.729  0.00  0.00     0.077 A 
ATOM     22  H1  non d ame     -32.103  10.559  24.045  0.00  0.00     0.091 H 
ATOM     23  O1  non d ame     -29.693   9.247  22.321  0.00  0.00    -0.218 OA
ATOM     24  N1  non d ame     -30.272   8.163  22.781  0.00  0.00    -0.123 NA
BRANCH  21  25
ATOM     25  C3  non d ame     -29.911  11.759  22.398  0.00  0.00    -0.029 C 
ATOM     26  H2  non d ame     -30.714  12.431  22.699  0.00  0.00     0.036 H 
ATOM     27  H3  non d ame     -28.998  12.021  22.933  0.00  0.00     0.036 H 
ATOM     28  H4  non d ame     -29.743  11.852  21.325  0.00  0.00     0.036 H 
ENDBRANCH  21  25
ENDBRANCH  16  19
ENDBRANCH  13  15
BRANCH  13  29
ATOM     29  C8  non d ame     -32.237   5.475  27.330  0.00  0.00    -0.049 C 
ATOM     30  H7  non d ame     -31.766   4.662  26.778  0.00  0.00     0.030 H 
ATOM     31  H8  non d ame     -31.470   6.068  27.827  0.00  0.00     0.030 H 
ATOM     32  H9  non d ame     -32.918   5.063  28.075  0.00  0.00     0.030 H 
ENDBRANCH  13  29
ENDBRANCH  10  13
ENDBRANCH   7   9
BRANCH   7  33
ATOM     33  C11 non d ame     -35.291   7.322  30.687  0.00  0.00    -0.033 C 
ATOM     34  H12 non d ame     -34.731   7.826  31.475  0.00  0.00     0.042 H 
BRANCH  33  35
ATOM     35  C12 non d ame     -36.806   7.429  31.047  0.00  0.00    -0.071 C 
ATOM     36  H13 non d ame     -37.078   8.478  31.165  0.00  0.00     0.028 H 
ATOM     37  H14 non d ame     -37.401   6.987  30.248  0.00  0.00     0.028 H 
ATOM     38  H15 non d ame     -36.996   6.898  31.979  0.00  0.00     0.028 H 
ENDBRANCH  33  35
BRANCH  33  39
ATOM     39  C13 non d ame     -34.824   5.832  30.640  0.00  0.00    -0.071 C 
ATOM     40  H16 non d ame     -35.311   5.325  29.807  0.00  0.00     0.028 H 
ATOM     41  H17 non d ame     -33.743   5.794  30.507  0.00  0.00     0.028 H 
ATOM     42  H18 non d ame     -35.092   5.338  31.574  0.00  0.00     0.028 H 
ENDBRANCH  33  39
ENDBRANCH   7  33
ENDBRANCH   4   7
ENDBRANCH   1   3
BRANCH   1  43
ATOM     43  C15 non d ame     -33.968  12.610  27.580  0.00  0.00     0.240 C 
ATOM     44  O5  non d ame     -33.887  12.216  26.462  0.00  0.00    -0.271 OA
ATOM     45  N6  non d ame     -34.462  13.992  27.844  0.00  0.00    -0.355 N 
ATOM     46  H46 non d ame     -34.540  14.336  28.790  0.00  0.00     0.162 HD
BRANCH  45  47
ATOM     47  C20 non d ame     -34.841  14.864  26.712  0.00  0.00     0.013 C 
ATOM     48  H30 non d ame     -34.174  14.641  25.879  0.00  0.00     0.072 H 
BRANCH  47  49
ATOM     49  C21 non d ame     -34.689  16.311  27.123  0.00  0.00    -0.038 C 
ATOM     50  H31 non d ame     -34.941  16.897  26.238  0.00  0.00     0.036 H 
ATOM     51  H32 non d ame     -35.274  16.421  28.035  0.00  0.00     0.036 H 
BRANCH  49  52
ATOM     52  C22 non d ame     -33.235  16.680  27.490  0.00  0.00     0.018 C 
ATOM     53  H33 non d ame     -33.309  17.399  28.305  0.00  0.00     0.048 H 
ATOM     54  H34 non d ame     -32.720  15.731  27.645  0.00  0.00     0.048 H 
BRANCH  52  55
ATOM     55  C23 non d ame     -32.465  17.403  26.350  0.00  0.00     0.259 C 
ATOM     56  O7  non d ame     -31.976  18.470  26.535  0.00  0.00    -0.265 OA
BRANCH  55  57
ATOM     57  O8  non d ame     -32.362  16.781  25.075  0.00  0.00    -0.317 OA
BRANCH  57  58
ATOM     58  C29 non d ame     -31.514  15.630  25.055  0.00  0.00     0.052 C 
ATOM     59  H47 non d ame     -30.780  15.791  25.845  0.00  0.00     0.082 H 
ATOM     60  H48 non d ame     -32.182  14.770  25.100  0.00  0.00     0.082 H 
BRANCH  58  61
ATOM     61  C35 non d ame     -30.772  15.605  23.692  0.00  0.00    -0.034 A 
ATOM     62  C30 non d ame     -31.434  15.991  22.531  0.00  0.00    -0.075 A 
ATOM     63  C31 non d ame     -30.768  15.968  21.307  0.00  0.00    -0.082 A 
ATOM     64  H49 non d ame     -32.475  16.311  22.581  0.00  0.00     0.084 H 
ATOM     65  C32 non d ame     -29.434  15.554  21.246  0.00  0.00    -0.083 A 
ATOM     66  H50 non d ame     -31.289  16.272  20.399  0.00  0.00     0.083 H 
ATOM     67  C33 non d ame     -28.779  15.167  22.406  0.00  0.00    -0.082 A 
ATOM     68  H51 non d ame     -28.906  15.534  20.293  0.00  0.00     0.083 H 
ATOM     69  C34 non d ame     -29.440  15.190  23.633  0.00  0.00    -0.075 A 
ATOM     70  H52 non d ame     -27.739  14.842  22.355  0.00  0.00     0.083 H 
ATOM     71  H53 non d ame     -28.918  14.885  24.540  0.00  0.00     0.084 H 
ENDBRANCH  58  61
ENDBRANCH  57  58
ENDBRANCH  55  57
ENDBRANCH  52  55
ENDBRANCH  49  52
ENDBRANCH  47  49
BRANCH  47  72
ATOM     72  C24 non d ame     -36.292  14.596  26.316  0.00  0.00    -0.039 C 
ATOM     73  H35 non d ame     -36.620  13.776  26.956  0.00  0.00     0.036 H 
ATOM     74  H36 non d ame     -36.791  15.563  26.372  0.00  0.00     0.036 H 
BRANCH  72  75
ATOM     75  C25 non d ame     -36.410  14.090  24.801  0.00  0.00    -0.001 C 
ATOM     76  C26 non d ame     -37.304  15.155  23.923  0.00  0.00    -0.035 C 
ATOM     77  C27 non d ame     -38.278  14.474  23.272  0.00  0.00     0.085 C 
ATOM     78  H38 non d ame     -37.858  15.816  24.589  0.00  0.00     0.036 H 
ATOM     79  H39 non d ame     -36.703  15.573  23.116  0.00  0.00     0.036 H 
ATOM     80  N5  non d ame     -38.333  13.093  23.880  0.00  0.00    -0.049 N 
ATOM     81  H40 non d ame     -39.204  15.001  23.501  0.00  0.00     0.075 H 
ATOM     82  H41 non d ame     -37.937  14.394  22.241  0.00  0.00     0.075 H 
ATOM     83  C28 non d ame     -36.975  12.931  24.738  0.00  0.00     0.193 C 
ATOM     84  H42 non d ame     -39.117  13.092  24.517  0.00  0.00     0.280 HD
ATOM     85  H43 non d ame     -38.307  12.441  23.110  0.00  0.00     0.280 HD
ATOM     86  H44 non d ame     -36.149  12.328  24.358  0.00  0.00     0.129 H 
ATOM     87  H37 non d ame     -35.445  13.795  24.388  0.00  0.00     0.046 H 
BRANCH  83  88
ATOM     88  O6  non d ame     -37.269  12.403  26.032  0.00  0.00    -0.369 OA
ATOM     89  H45 non d ame     -37.665  11.533  25.941  0.00  0.00     0.212 HD
ENDBRANCH  83  88
ENDBRANCH  72  75
ENDBRANCH  47  72
ENDBRANCH  45  47
ENDBRANCH   1  43
BRANCH   1  90
ATOM     90  C16 non d ame     -32.052  11.608  28.862  0.00  0.00    -0.035 C 
ATOM     91  H21 non d ame     -31.843  10.696  29.420  0.00  0.00     0.037 H 
ATOM     92  H22 non d ame     -31.688  11.718  27.840  0.00  0.00     0.037 H 
BRANCH  90  93
ATOM     93  C17 non d ame     -31.424  12.779  29.683  0.00  0.00    -0.059 C 
ATOM     94  H23 non d ame     -32.241  13.356  30.115  0.00  0.00     0.038 H 
BRANCH  93  95
ATOM     95  C18 non d ame     -30.530  12.264  30.856  0.00  0.00    -0.073 C 
ATOM     96  H24 non d ame     -30.584  12.965  31.689  0.00  0.00     0.028 H 
ATOM     97  H25 non d ame     -30.886  11.287  31.182  0.00  0.00     0.028 H 
ATOM     98  H26 non d ame     -29.498  12.180  30.517  0.00  0.00     0.028 H 
ENDBRANCH  93  95
BRANCH  93  99
ATOM     99  C19 non d ame     -30.634  13.723  28.772  0.00  0.00    -0.073 C 
ATOM    100  H27 non d ame     -31.307  14.168  28.038  0.00  0.00     0.028 H 
ATOM    101  H28 non d ame     -30.179  14.512  29.372  0.00  0.00     0.028 H 
ATOM    102  H29 non d ame     -29.854  13.163  28.257  0.00  0.00     0.028 H 
ENDBRANCH  93  99
ENDBRANCH  90  93
ENDBRANCH   1  90
TORSDOF 26
ENDMDL
MODEL 10
REMARK VINA RESULT:      -5.8      3.033      8.936
REMARK  26 active torsions:
REMARK  status: ('A' for Active; 'I' for Inactive)
REMARK    1  A    between atoms: C2_2  and  C3_3 
REMARK    2  A    between atoms: C4_6  and  C5_7 
REMARK       I    between atoms: C5_7  and  N2_9 
REMARK    3  A    between atoms: N2_9  and  C6_10 
REMARK    4  A    between atoms: C6_10  and  C7_11 
REMARK    5  A    between atoms: C6_10  and  C8_13 
REMARK       I    between atoms: C7_11  and  N3_14 
REMARK    6  A    between atoms: N3_14  and  C9_15 
REMARK    7  A    between atoms: C9_15  and  C10_16 
REMARK    8  A    between atoms: C9_15  and  C11_18 
REMARK       I    between atoms: C10_16  and  N4_21 
REMARK    9  A    between atoms: C11_18  and  C12_19 
REMARK   10  A    between atoms: C11_18  and  C13_20 
REMARK   11  A    between atoms: N4_21  and  C14_22 
REMARK   12  A    between atoms: C14_22  and  C15_23 
REMARK   13  A    between atoms: C14_22  and  C16_25 
REMARK       I    between atoms: C15_23  and  N6_40 
REMARK   14  A    between atoms: C16_25  and  C17_26 
REMARK   15  A    between atoms: C17_26  and  C18_27 
REMARK   16  A    between atoms: C17_26  and  C19_28 
REMARK   17  A    between atoms: C20_29  and  C21_30 
REMARK   18  A    between atoms: C20_29  and  C24_33 
REMARK   19  A    between atoms: C20_29  and  N6_40 
REMARK   20  A    between atoms: C21_30  and  C22_31 
REMARK   21  A    between atoms: C22_31  and  C23_32 
REMARK   22  A    between atoms: C23_32  and  O8_43 
REMARK   23  A    between atoms: C24_33  and  C25_34 
REMARK   24  A    between atoms: C28_38  and  O6_39 
REMARK   25  A    between atoms: C29_42  and  O8_43 
REMARK   26  A    between atoms: C29_42  and  C35_49 
ROOT
ATOM      1  C14 non d ame     -32.526  10.557  26.601  0.00  0.00     0.089 C 
ATOM      2  H20 non d ame     -33.544  10.650  26.223  0.00  0.00     0.087 H 
ENDROOT
BRANCH   1   3
ATOM      3  N4  non d ame     -31.895   9.452  25.894  0.00  0.00    -0.346 N 
ATOM      4  C10 non d ame     -32.214   9.196  24.443  0.00  0.00     0.241 C 
ATOM      5  O4  non d ame     -32.984   9.891  23.866  0.00  0.00    -0.271 OA
ATOM      6  H19 non d ame     -31.245   8.871  26.404  0.00  0.00     0.163 HD
BRANCH   4   7
ATOM      7  C9  non d ame     -31.547   8.052  23.725  0.00  0.00     0.092 C 
ATOM      8  H11 non d ame     -30.630   7.785  24.250  0.00  0.00     0.088 H 
BRANCH   7   9
ATOM      9  N3  non d ame     -32.423   6.877  23.758  0.00  0.00    -0.346 N 
ATOM     10  C7  non d ame     -32.363   5.964  24.873  0.00  0.00     0.240 C 
ATOM     11  O3  non d ame     -31.614   6.160  25.752  0.00  0.00    -0.271 OA
ATOM     12  H10 non d ame     -33.073   6.694  23.007  0.00  0.00     0.163 HD
BRANCH  10  13
ATOM     13  C6  non d ame     -33.295   4.714  24.902  0.00  0.00     0.086 C 
ATOM     14  H6  non d ame     -32.745   3.779  25.006  0.00  0.00     0.086 H 
BRANCH  13  15
ATOM     15  N2  non d ame     -34.176   4.808  26.054  0.00  0.00    -0.343 N 
ATOM     16  C5  non d ame     -34.967   6.023  26.260  0.00  0.00     0.273 C 
ATOM     17  O2  non d ame     -34.886   6.920  25.494  0.00  0.00    -0.266 OA
ATOM     18  H5  non d ame     -34.237   4.038  26.705  0.00  0.00     0.163 HD
BRANCH  16  19
ATOM     19  C4  non d ame     -35.903   6.136  27.473  0.00  0.00     0.154 A 
ATOM     20  C1  non d ame     -35.615   5.766  28.825  0.00  0.00    -0.017 A 
ATOM     21  C2  non d ame     -36.794   6.066  29.543  0.00  0.00     0.077 A 
ATOM     22  H1  non d ame     -34.692   5.344  29.223  0.00  0.00     0.091 H 
ATOM     23  O1  non d ame     -37.652   6.553  28.694  0.00  0.00    -0.218 OA
ATOM     24  N1  non d ame     -37.155   6.603  27.480  0.00  0.00    -0.123 NA
BRANCH  21  25
ATOM     25  C3  non d ame     -37.018   5.860  31.035  0.00  0.00    -0.029 C 
ATOM     26  H2  non d ame     -37.700   5.023  31.188  0.00  0.00     0.036 H 
ATOM     27  H3  non d ame     -36.066   5.645  31.519  0.00  0.00     0.036 H 
ATOM     28  H4  non d ame     -37.449   6.763  31.467  0.00  0.00     0.036 H 
ENDBRANCH  21  25
ENDBRANCH  16  19
ENDBRANCH  13  15
BRANCH  13  29
ATOM     29  C8  non d ame     -34.109   4.661  23.633  0.00  0.00    -0.049 C 
ATOM     30  H7  non d ame     -35.008   4.070  23.803  0.00  0.00     0.030 H 
ATOM     31  H8  non d ame     -34.389   5.672  23.339  0.00  0.00     0.030 H 
ATOM     32  H9  non d ame     -33.517   4.203  22.841  0.00  0.00     0.030 H 
ENDBRANCH  13  29
ENDBRANCH  10  13
ENDBRANCH   7   9
BRANCH   7  33
ATOM     33  C11 non d ame     -31.279   8.454  22.245  0.00  0.00    -0.033 C 
ATOM     34  H12 non d ame     -31.822   9.379  22.052  0.00  0.00     0.042 H 
BRANCH  33  35
ATOM     35  C12 non d ame     -29.765   8.738  21.999  0.00  0.00    -0.071 C 
ATOM     36  H13 non d ame     -29.256   7.807  21.751  0.00  0.00     0.028 H 
ATOM     37  H14 non d ame     -29.657   9.442  21.174  0.00  0.00     0.028 H 
ATOM     38  H15 non d ame     -29.324   9.164  22.900  0.00  0.00     0.028 H 
ENDBRANCH  33  35
BRANCH  33  39
ATOM     39  C13 non d ame     -31.818   7.364  21.263  0.00  0.00    -0.071 C 
ATOM     40  H16 non d ame     -30.991   6.741  20.923  0.00  0.00     0.028 H 
ATOM     41  H17 non d ame     -32.554   6.744  21.776  0.00  0.00     0.028 H 
ATOM     42  H18 non d ame     -32.286   7.848  20.406  0.00  0.00     0.028 H 
ENDBRANCH  33  39
ENDBRANCH   7  33
ENDBRANCH   4   7
ENDBRANCH   1   3
BRANCH   1  43
ATOM     43  C15 non d ame     -31.688  11.844  26.357  0.00  0.00     0.240 C 
ATOM     44  O5  non d ame     -30.891  12.193  27.167  0.00  0.00    -0.271 OA
ATOM     45  N6  non d ame     -31.874  12.639  25.109  0.00  0.00    -0.355 N 
ATOM     46  H46 non d ame     -32.545  12.350  24.412  0.00  0.00     0.162 HD
BRANCH  45  47
ATOM     47  C20 non d ame     -31.069  13.860  24.891  0.00  0.00     0.013 C 
ATOM     48  H30 non d ame     -30.243  13.849  25.603  0.00  0.00     0.072 H 
BRANCH  47  49
ATOM     49  C21 non d ame     -31.935  15.077  25.124  0.00  0.00    -0.038 C 
ATOM     50  H31 non d ame     -31.244  15.914  25.233  0.00  0.00     0.036 H 
ATOM     51  H32 non d ame     -32.666  15.076  24.315  0.00  0.00     0.036 H 
BRANCH  49  52
ATOM     52  C22 non d ame     -32.738  14.999  26.440  0.00  0.00     0.018 C 
ATOM     53  H33 non d ame     -32.374  14.111  26.956  0.00  0.00     0.048 H 
ATOM     54  H34 non d ame     -32.638  15.980  26.906  0.00  0.00     0.048 H 
BRANCH  52  55
ATOM     55  C23 non d ame     -34.262  14.777  26.232  0.00  0.00     0.259 C 
ATOM     56  O7  non d ame     -34.671  13.735  25.833  0.00  0.00    -0.265 OA
BRANCH  55  57
ATOM     57  O8  non d ame     -35.165  15.840  26.510  0.00  0.00    -0.317 OA
BRANCH  57  58
ATOM     58  C29 non d ame     -35.165  16.878  25.526  0.00  0.00     0.052 C 
ATOM     59  H47 non d ame     -34.530  16.517  24.717  0.00  0.00     0.082 H 
ATOM     60  H48 non d ame     -36.214  17.103  25.335  0.00  0.00     0.082 H 
BRANCH  58  61
ATOM     61  C35 non d ame     -34.500  18.132  26.152  0.00  0.00    -0.034 A 
ATOM     62  C30 non d ame     -33.537  18.839  25.439  0.00  0.00    -0.075 A 
ATOM     63  C31 non d ame     -32.939  19.965  26.001  0.00  0.00    -0.082 A 
ATOM     64  H49 non d ame     -33.250  18.510  24.440  0.00  0.00     0.084 H 
ATOM     65  C32 non d ame     -33.305  20.383  27.284  0.00  0.00    -0.083 A 
ATOM     66  H50 non d ame     -32.185  20.518  25.439  0.00  0.00     0.083 H 
ATOM     67  C33 non d ame     -34.264  19.673  27.993  0.00  0.00    -0.082 A 
ATOM     68  H51 non d ame     -32.843  21.263  27.730  0.00  0.00     0.083 H 
ATOM     69  C34 non d ame     -34.866  18.548  27.434  0.00  0.00    -0.075 A 
ATOM     70  H52 non d ame     -34.546  20.000  28.994  0.00  0.00     0.083 H 
ATOM     71  H53 non d ame     -35.619  17.995  27.996  0.00  0.00     0.084 H 
ENDBRANCH  58  61
ENDBRANCH  57  58
ENDBRANCH  55  57
ENDBRANCH  52  55
ENDBRANCH  49  52
ENDBRANCH  47  49
BRANCH  47  72
ATOM     72  C24 non d ame     -30.536  13.878  23.460  0.00  0.00    -0.039 C 
ATOM     73  H35 non d ame     -29.573  13.369  23.503  0.00  0.00     0.036 H 
ATOM     74  H36 non d ame     -31.340  13.473  22.846  0.00  0.00     0.036 H 
BRANCH  72  75
ATOM     75  C25 non d ame     -30.259  15.372  22.950  0.00  0.00    -0.001 C 
ATOM     76  C26 non d ame     -31.351  15.779  21.791  0.00  0.00    -0.035 C 
ATOM     77  C27 non d ame     -30.684  16.255  20.712  0.00  0.00     0.085 C 
ATOM     78  H38 non d ame     -31.844  14.885  21.411  0.00  0.00     0.036 H 
ATOM     79  H39 non d ame     -31.945  16.632  22.119  0.00  0.00     0.036 H 
ATOM     80  N5  non d ame     -29.228  15.905  20.902  0.00  0.00    -0.049 N 
ATOM     81  H40 non d ame     -31.075  15.699  19.860  0.00  0.00     0.075 H 
ATOM     82  H41 non d ame     -30.797  17.338  20.754  0.00  0.00     0.075 H 
ATOM     83  C28 non d ame     -29.072  15.483  22.453  0.00  0.00     0.193 C 
ATOM     84  H42 non d ame     -29.052  15.092  20.329  0.00  0.00     0.280 HD
ATOM     85  H43 non d ame     -28.707  16.756  20.746  0.00  0.00     0.280 HD
ATOM     86  H44 non d ame     -28.620  16.168  23.170  0.00  0.00     0.129 H 
ATOM     87  H37 non d ame     -30.127  16.072  23.776  0.00  0.00     0.046 H 
BRANCH  83  88
ATOM     88  O6  non d ame     -28.326  14.269  22.561  0.00  0.00    -0.369 OA
ATOM     89  H45 non d ame     -27.387  14.470  22.563  0.00  0.00     0.212 HD
ENDBRANCH  83  88
ENDBRANCH  72  75
ENDBRANCH  47  72
ENDBRANCH  45  47
ENDBRANCH   1  43
BRANCH   1  90
ATOM     90  C16 non d ame     -32.557  10.241  28.088  0.00  0.00    -0.035 C 
ATOM     91  H21 non d ame     -31.672   9.631  28.272  0.00  0.00     0.037 H 
ATOM     92  H22 non d ame     -32.667  11.205  28.586  0.00  0.00     0.037 H 
BRANCH  90  93
ATOM     93  C17 non d ame     -33.784   9.377  28.520  0.00  0.00    -0.059 C 
ATOM     94  H23 non d ame     -33.552   8.336  28.296  0.00  0.00     0.038 H 
BRANCH  93  95
ATOM     95  C18 non d ame     -34.068   9.482  30.053  0.00  0.00    -0.073 C 
ATOM     96  H24 non d ame     -33.162   9.240  30.608  0.00  0.00     0.028 H 
ATOM     97  H25 non d ame     -34.382  10.496  30.297  0.00  0.00     0.028 H 
ATOM     98  H26 non d ame     -34.858   8.782  30.325  0.00  0.00     0.028 H 
ENDBRANCH  93  95
BRANCH  93  99
ATOM     99  C19 non d ame     -35.028   9.751  27.710  0.00  0.00    -0.073 C 
ATOM    100  H27 non d ame     -35.818  10.078  28.386  0.00  0.00     0.028 H 
ATOM    101  H28 non d ame     -34.783  10.558  27.019  0.00  0.00     0.028 H 
ATOM    102  H29 non d ame     -35.369   8.883  27.146  0.00  0.00     0.028 H 
ENDBRANCH  93  99
ENDBRANCH  90  93
ENDBRANCH   1  90
TORSDOF 26
ENDMDL
MODEL 11
REMARK VINA RESULT:      -5.8      4.535      9.688
REMARK  26 active torsions:
REMARK  status: ('A' for Active; 'I' for Inactive)
REMARK    1  A    between atoms: C2_2  and  C3_3 
REMARK    2  A    between atoms: C4_6  and  C5_7 
REMARK       I    between atoms: C5_7  and  N2_9 
REMARK    3  A    between atoms: N2_9  and  C6_10 
REMARK    4  A    between atoms: C6_10  and  C7_11 
REMARK    5  A    between atoms: C6_10  and  C8_13 
REMARK       I    between atoms: C7_11  and  N3_14 
REMARK    6  A    between atoms: N3_14  and  C9_15 
REMARK    7  A    between atoms: C9_15  and  C10_16 
REMARK    8  A    between atoms: C9_15  and  C11_18 
REMARK       I    between atoms: C10_16  and  N4_21 
REMARK    9  A    between atoms: C11_18  and  C12_19 
REMARK   10  A    between atoms: C11_18  and  C13_20 
REMARK   11  A    between atoms: N4_21  and  C14_22 
REMARK   12  A    between atoms: C14_22  and  C15_23 
REMARK   13  A    between atoms: C14_22  and  C16_25 
REMARK       I    between atoms: C15_23  and  N6_40 
REMARK   14  A    between atoms: C16_25  and  C17_26 
REMARK   15  A    between atoms: C17_26  and  C18_27 
REMARK   16  A    between atoms: C17_26  and  C19_28 
REMARK   17  A    between atoms: C20_29  and  C21_30 
REMARK   18  A    between atoms: C20_29  and  C24_33 
REMARK   19  A    between atoms: C20_29  and  N6_40 
REMARK   20  A    between atoms: C21_30  and  C22_31 
REMARK   21  A    between atoms: C22_31  and  C23_32 
REMARK   22  A    between atoms: C23_32  and  O8_43 
REMARK   23  A    between atoms: C24_33  and  C25_34 
REMARK   24  A    between atoms: C28_38  and  O6_39 
REMARK   25  A    between atoms: C29_42  and  O8_43 
REMARK   26  A    between atoms: C29_42  and  C35_49 
ROOT
ATOM      1  C14 non d ame     -35.277   9.673  29.489  0.00  0.00     0.089 C 
ATOM      2  H20 non d ame     -36.297   9.924  29.782  0.00  0.00     0.087 H 
ENDROOT
BRANCH   1   3
ATOM      3  N4  non d ame     -35.294   8.318  28.958  0.00  0.00    -0.346 N 
ATOM      4  C10 non d ame     -36.591   7.689  28.517  0.00  0.00     0.241 C 
ATOM      5  O4  non d ame     -37.610   8.292  28.602  0.00  0.00    -0.271 OA
ATOM      6  H19 non d ame     -34.417   7.821  28.897  0.00  0.00     0.163 HD
BRANCH   4   7
ATOM      7  C9  non d ame     -36.590   6.288  27.965  0.00  0.00     0.092 C 
ATOM      8  H11 non d ame     -37.194   6.259  27.058  0.00  0.00     0.088 H 
BRANCH   7   9
ATOM      9  N3  non d ame     -35.224   5.913  27.587  0.00  0.00    -0.346 N 
ATOM     10  C7  non d ame     -35.004   5.000  26.492  0.00  0.00     0.240 C 
ATOM     11  O3  non d ame     -35.915   4.557  25.905  0.00  0.00    -0.271 OA
ATOM     12  H10 non d ame     -34.428   6.286  28.085  0.00  0.00     0.163 HD
BRANCH  10  13
ATOM     13  C6  non d ame     -33.548   4.603  26.096  0.00  0.00     0.086 C 
ATOM     14  H6  non d ame     -33.376   3.528  26.146  0.00  0.00     0.086 H 
BRANCH  13  15
ATOM     15  N2  non d ame     -33.309   4.999  24.719  0.00  0.00    -0.343 N 
ATOM     16  C5  non d ame     -33.302   3.981  23.666  0.00  0.00     0.273 C 
ATOM     17  O2  non d ame     -33.486   2.846  23.938  0.00  0.00    -0.266 OA
ATOM     18  H5  non d ame     -33.149   5.971  24.495  0.00  0.00     0.163 HD
BRANCH  16  19
ATOM     19  C4  non d ame     -33.051   4.386  22.205  0.00  0.00     0.154 A 
ATOM     20  C1  non d ame     -33.777   5.353  21.439  0.00  0.00    -0.017 A 
ATOM     21  C2  non d ame     -33.157   5.351  20.170  0.00  0.00     0.077 A 
ATOM     22  H1  non d ame     -34.623   5.963  21.757  0.00  0.00     0.091 H 
ATOM     23  O1  non d ame     -32.190   4.482  20.212  0.00  0.00    -0.218 OA
ATOM     24  N1  non d ame     -32.109   3.906  21.389  0.00  0.00    -0.123 NA
BRANCH  21  25
ATOM     25  C3  non d ame     -33.549   6.209  18.974  0.00  0.00    -0.029 C 
ATOM     26  H2  non d ame     -32.656   6.471  18.406  0.00  0.00     0.036 H 
ATOM     27  H3  non d ame     -34.234   5.651  18.336  0.00  0.00     0.036 H 
ATOM     28  H4  non d ame     -34.038   7.118  19.323  0.00  0.00     0.036 H 
ENDBRANCH  21  25
ENDBRANCH  16  19
ENDBRANCH  13  15
BRANCH  13  29
ATOM     29  C8  non d ame     -32.569   5.295  27.010  0.00  0.00    -0.049 C 
ATOM     30  H7  non d ame     -32.451   6.332  26.698  0.00  0.00     0.030 H 
ATOM     31  H8  non d ame     -32.943   5.264  28.033  0.00  0.00     0.030 H 
ATOM     32  H9  non d ame     -31.605   4.789  26.961  0.00  0.00     0.030 H 
ENDBRANCH  13  29
ENDBRANCH  10  13
ENDBRANCH   7   9
BRANCH   7  33
ATOM     33  C11 non d ame     -37.114   5.302  29.050  0.00  0.00    -0.033 C 
ATOM     34  H12 non d ame     -36.690   4.321  28.834  0.00  0.00     0.042 H 
BRANCH  33  35
ATOM     35  C12 non d ame     -36.633   5.718  30.475  0.00  0.00    -0.071 C 
ATOM     36  H13 non d ame     -36.309   6.758  30.460  0.00  0.00     0.028 H 
ATOM     37  H14 non d ame     -37.454   5.603  31.183  0.00  0.00     0.028 H 
ATOM     38  H15 non d ame     -35.801   5.082  30.777  0.00  0.00     0.028 H 
ENDBRANCH  33  35
BRANCH  33  39
ATOM     39  C13 non d ame     -38.670   5.180  28.989  0.00  0.00    -0.071 C 
ATOM     40  H16 non d ame     -39.118   6.159  29.166  0.00  0.00     0.028 H 
ATOM     41  H17 non d ame     -38.969   4.815  28.006  0.00  0.00     0.028 H 
ATOM     42  H18 non d ame     -39.010   4.481  29.754  0.00  0.00     0.028 H 
ENDBRANCH  33  39
ENDBRANCH   7  33
ENDBRANCH   4   7
ENDBRANCH   1   3
BRANCH   1  43
ATOM     43  C15 non d ame     -34.730  10.629  28.391  0.00  0.00     0.240 C 
ATOM     44  O5  non d ame     -35.484  11.303  27.765  0.00  0.00    -0.271 OA
ATOM     45  N6  non d ame     -33.266  10.711  28.124  0.00  0.00    -0.355 N 
ATOM     46  H46 non d ame     -32.616  10.147  28.652  0.00  0.00     0.162 HD
BRANCH  45  47
ATOM     47  C20 non d ame     -32.762  11.625  27.077  0.00  0.00     0.013 C 
ATOM     48  H30 non d ame     -33.602  12.218  26.716  0.00  0.00     0.072 H 
BRANCH  47  49
ATOM     49  C21 non d ame     -32.177  10.813  25.943  0.00  0.00    -0.038 C 
ATOM     50  H31 non d ame     -31.586  11.514  25.353  0.00  0.00     0.036 H 
ATOM     51  H32 non d ame     -31.697   9.955  26.413  0.00  0.00     0.036 H 
BRANCH  49  52
ATOM     52  C22 non d ame     -33.256  10.245  24.995  0.00  0.00     0.018 C 
ATOM     53  H33 non d ame     -34.184  10.743  25.272  0.00  0.00     0.048 H 
ATOM     54  H34 non d ame     -32.854  10.361  23.988  0.00  0.00     0.048 H 
BRANCH  52  55
ATOM     55  C23 non d ame     -33.514   8.724  25.180  0.00  0.00     0.259 C 
ATOM     56  O7  non d ame     -33.958   8.308  26.201  0.00  0.00    -0.265 OA
BRANCH  55  57
ATOM     57  O8  non d ame     -33.201   7.830  24.119  0.00  0.00    -0.317 OA
BRANCH  57  58
ATOM     58  C29 non d ame     -32.828   8.480  22.901  0.00  0.00     0.052 C 
ATOM     59  H47 non d ame     -33.333   7.930  22.107  0.00  0.00     0.082 H 
ATOM     60  H48 non d ame     -33.043   9.537  23.053  0.00  0.00     0.082 H 
BRANCH  58  61
ATOM     61  C35 non d ame     -31.296   8.312  22.718  0.00  0.00    -0.034 A 
ATOM     62  C30 non d ame     -30.708   7.062  22.882  0.00  0.00    -0.075 A 
ATOM     63  C31 non d ame     -29.332   6.911  22.718  0.00  0.00    -0.082 A 
ATOM     64  H49 non d ame     -31.325   6.200  23.140  0.00  0.00     0.084 H 
ATOM     65  C32 non d ame     -28.542   8.016  22.391  0.00  0.00    -0.083 A 
ATOM     66  H50 non d ame     -28.874   5.929  22.846  0.00  0.00     0.083 H 
ATOM     67  C33 non d ame     -29.134   9.262  22.231  0.00  0.00    -0.082 A 
ATOM     68  H51 non d ame     -27.466   7.907  22.260  0.00  0.00     0.083 H 
ATOM     69  C34 non d ame     -30.509   9.418  22.392  0.00  0.00    -0.075 A 
ATOM     70  H52 non d ame     -28.515  10.124  21.978  0.00  0.00     0.083 H 
ATOM     71  H53 non d ame     -30.966  10.399  22.264  0.00  0.00     0.084 H 
ENDBRANCH  58  61
ENDBRANCH  57  58
ENDBRANCH  55  57
ENDBRANCH  52  55
ENDBRANCH  49  52
ENDBRANCH  47  49
BRANCH  47  72
ATOM     72  C24 non d ame     -31.683  12.535  27.661  0.00  0.00    -0.039 C 
ATOM     73  H35 non d ame     -30.884  11.867  27.984  0.00  0.00     0.036 H 
ATOM     74  H36 non d ame     -31.490  13.286  26.895  0.00  0.00     0.036 H 
BRANCH  72  75
ATOM     75  C25 non d ame     -32.204  13.312  28.962  0.00  0.00    -0.001 C 
ATOM     76  C26 non d ame     -32.453  14.897  28.606  0.00  0.00    -0.035 C 
ATOM     77  C27 non d ame     -31.806  15.657  29.522  0.00  0.00     0.085 C 
ATOM     78  H38 non d ame     -31.958  15.152  27.669  0.00  0.00     0.036 H 
ATOM     79  H39 non d ame     -33.502  15.155  28.756  0.00  0.00     0.036 H 
ATOM     80  N5  non d ame     -30.873  14.741  30.276  0.00  0.00    -0.049 N 
ATOM     81  H40 non d ame     -31.217  16.370  28.945  0.00  0.00     0.075 H 
ATOM     82  H41 non d ame     -32.579  16.014  30.202  0.00  0.00     0.075 H 
ATOM     83  C28 non d ame     -31.347  13.238  29.925  0.00  0.00     0.193 C 
ATOM     84  H42 non d ame     -29.952  14.887  29.887  0.00  0.00     0.280 HD
ATOM     85  H43 non d ame     -31.039  14.910  31.258  0.00  0.00     0.280 HD
ATOM     86  H44 non d ame     -31.912  12.652  30.650  0.00  0.00     0.129 H 
ATOM     87  H37 non d ame     -33.016  12.782  29.462  0.00  0.00     0.046 H 
BRANCH  83  88
ATOM     88  O6  non d ame     -30.217  12.433  29.581  0.00  0.00    -0.369 OA
ATOM     89  H45 non d ame     -30.156  11.692  30.188  0.00  0.00     0.212 HD
ENDBRANCH  83  88
ENDBRANCH  72  75
ENDBRANCH  47  72
ENDBRANCH  45  47
ENDBRANCH   1  43
BRANCH   1  90
ATOM     90  C16 non d ame     -34.366   9.718  30.705  0.00  0.00    -0.035 C 
ATOM     91  H21 non d ame     -33.788   8.795  30.668  0.00  0.00     0.037 H 
ATOM     92  H22 non d ame     -33.858  10.681  30.650  0.00  0.00     0.037 H 
BRANCH  90  93
ATOM     93  C17 non d ame     -35.134   9.701  32.065  0.00  0.00    -0.059 C 
ATOM     94  H23 non d ame     -34.598   9.034  32.740  0.00  0.00     0.038 H 
BRANCH  93  95
ATOM     95  C18 non d ame     -35.184  11.113  32.732  0.00  0.00    -0.073 C 
ATOM     96  H24 non d ame     -35.052  11.880  31.969  0.00  0.00     0.028 H 
ATOM     97  H25 non d ame     -36.148  11.251  33.221  0.00  0.00     0.028 H 
ATOM     98  H26 non d ame     -34.387  11.194  33.471  0.00  0.00     0.028 H 
ENDBRANCH  93  95
BRANCH  93  99
ATOM     99  C19 non d ame     -36.545   9.132  31.889  0.00  0.00    -0.073 C 
ATOM    100  H27 non d ame     -36.481   8.120  31.490  0.00  0.00     0.028 H 
ATOM    101  H28 non d ame     -37.052   9.112  32.854  0.00  0.00     0.028 H 
ATOM    102  H29 non d ame     -37.106   9.761  31.198  0.00  0.00     0.028 H 
ENDBRANCH  93  99
ENDBRANCH  90  93
ENDBRANCH   1  90
TORSDOF 26
ENDMDL
MODEL 12
REMARK VINA RESULT:      -5.8      3.269      8.146
REMARK  26 active torsions:
REMARK  status: ('A' for Active; 'I' for Inactive)
REMARK    1  A    between atoms: C2_2  and  C3_3 
REMARK    2  A    between atoms: C4_6  and  C5_7 
REMARK       I    between atoms: C5_7  and  N2_9 
REMARK    3  A    between atoms: N2_9  and  C6_10 
REMARK    4  A    between atoms: C6_10  and  C7_11 
REMARK    5  A    between atoms: C6_10  and  C8_13 
REMARK       I    between atoms: C7_11  and  N3_14 
REMARK    6  A    between atoms: N3_14  and  C9_15 
REMARK    7  A    between atoms: C9_15  and  C10_16 
REMARK    8  A    between atoms: C9_15  and  C11_18 
REMARK       I    between atoms: C10_16  and  N4_21 
REMARK    9  A    between atoms: C11_18  and  C12_19 
REMARK   10  A    between atoms: C11_18  and  C13_20 
REMARK   11  A    between atoms: N4_21  and  C14_22 
REMARK   12  A    between atoms: C14_22  and  C15_23 
REMARK   13  A    between atoms: C14_22  and  C16_25 
REMARK       I    between atoms: C15_23  and  N6_40 
REMARK   14  A    between atoms: C16_25  and  C17_26 
REMARK   15  A    between atoms: C17_26  and  C18_27 
REMARK   16  A    between atoms: C17_26  and  C19_28 
REMARK   17  A    between atoms: C20_29  and  C21_30 
REMARK   18  A    between atoms: C20_29  and  C24_33 
REMARK   19  A    between atoms: C20_29  and  N6_40 
REMARK   20  A    between atoms: C21_30  and  C22_31 
REMARK   21  A    between atoms: C22_31  and  C23_32 
REMARK   22  A    between atoms: C23_32  and  O8_43 
REMARK   23  A    between atoms: C24_33  and  C25_34 
REMARK   24  A    between atoms: C28_38  and  O6_39 
REMARK   25  A    between atoms: C29_42  and  O8_43 
REMARK   26  A    between atoms: C29_42  and  C35_49 
ROOT
ATOM      1  C14 non d ame     -32.198   8.728  24.554  0.00  0.00     0.089 C 
ATOM      2  H20 non d ame     -31.235   8.230  24.671  0.00  0.00     0.087 H 
ENDROOT
BRANCH   1   3
ATOM      3  N4  non d ame     -33.232   7.707  24.636  0.00  0.00    -0.346 N 
ATOM      4  C10 non d ame     -32.914   6.343  25.194  0.00  0.00     0.241 C 
ATOM      5  O4  non d ame     -31.817   6.089  25.569  0.00  0.00    -0.271 OA
ATOM      6  H19 non d ame     -34.159   7.942  24.309  0.00  0.00     0.163 HD
BRANCH   4   7
ATOM      7  C9  non d ame     -33.998   5.301  25.276  0.00  0.00     0.092 C 
ATOM      8  H11 non d ame     -33.665   4.487  25.921  0.00  0.00     0.088 H 
BRANCH   7   9
ATOM      9  N3  non d ame     -35.191   5.884  25.896  0.00  0.00    -0.346 N 
ATOM     10  C7  non d ame     -35.808   5.232  27.025  0.00  0.00     0.240 C 
ATOM     11  O3  non d ame     -35.359   4.237  27.447  0.00  0.00    -0.271 OA
ATOM     12  H10 non d ame     -35.592   6.741  25.543  0.00  0.00     0.163 HD
BRANCH  10  13
ATOM     13  C6  non d ame     -37.080   5.856  27.679  0.00  0.00     0.086 C 
ATOM     14  H6  non d ame     -37.852   5.116  27.890  0.00  0.00     0.086 H 
BRANCH  13  15
ATOM     15  N2  non d ame     -36.713   6.449  28.954  0.00  0.00    -0.343 N 
ATOM     16  C5  non d ame     -35.971   7.712  28.976  0.00  0.00     0.273 C 
ATOM     17  O2  non d ame     -35.674   8.241  27.962  0.00  0.00    -0.266 OA
ATOM     18  H5  non d ame     -36.969   5.988  29.816  0.00  0.00     0.163 HD
BRANCH  16  19
ATOM     19  C4  non d ame     -35.577   8.350  30.317  0.00  0.00     0.154 A 
ATOM     20  C1  non d ame     -35.737   9.719  30.703  0.00  0.00    -0.017 A 
ATOM     21  C2  non d ame     -35.223   9.788  32.017  0.00  0.00     0.077 A 
ATOM     22  H1  non d ame     -36.161  10.536  30.119  0.00  0.00     0.091 H 
ATOM     23  O1  non d ame     -34.820   8.594  32.339  0.00  0.00    -0.218 OA
ATOM     24  N1  non d ame     -35.015   7.738  31.363  0.00  0.00    -0.123 NA
BRANCH  21  25
ATOM     25  C3  non d ame     -35.156  11.031  32.894  0.00  0.00    -0.029 C 
ATOM     26  H2  non d ame     -36.162  11.311  33.207  0.00  0.00     0.036 H 
ATOM     27  H3  non d ame     -34.548  10.822  33.774  0.00  0.00     0.036 H 
ATOM     28  H4  non d ame     -34.710  11.850  32.331  0.00  0.00     0.036 H 
ENDBRANCH  21  25
ENDBRANCH  16  19
ENDBRANCH  13  15
BRANCH  13  29
ATOM     29  C8  non d ame     -37.653   6.910  26.766  0.00  0.00    -0.049 C 
ATOM     30  H7  non d ame     -37.368   7.898  27.128  0.00  0.00     0.030 H 
ATOM     31  H8  non d ame     -37.263   6.767  25.758  0.00  0.00     0.030 H 
ATOM     32  H9  non d ame     -38.740   6.827  26.751  0.00  0.00     0.030 H 
ENDBRANCH  13  29
ENDBRANCH  10  13
ENDBRANCH   7   9
BRANCH   7  33
ATOM     33  C11 non d ame     -34.351   4.805  23.843  0.00  0.00    -0.033 C 
ATOM     34  H12 non d ame     -34.974   5.568  23.376  0.00  0.00     0.042 H 
BRANCH  33  35
ATOM     35  C12 non d ame     -33.070   4.644  22.966  0.00  0.00    -0.071 C 
ATOM     36  H13 non d ame     -32.725   5.626  22.642  0.00  0.00     0.028 H 
ATOM     37  H14 non d ame     -32.289   4.159  23.550  0.00  0.00     0.028 H 
ATOM     38  H15 non d ame     -33.302   4.035  22.093  0.00  0.00     0.028 H 
ENDBRANCH  33  35
BRANCH  33  39
ATOM     39  C13 non d ame     -35.172   3.477  23.897  0.00  0.00    -0.071 C 
ATOM     40  H16 non d ame     -36.237   3.706  23.861  0.00  0.00     0.028 H 
ATOM     41  H17 non d ame     -34.905   2.850  23.045  0.00  0.00     0.028 H 
ATOM     42  H18 non d ame     -34.945   2.947  24.822  0.00  0.00     0.028 H 
ENDBRANCH  33  39
ENDBRANCH   7  33
ENDBRANCH   4   7
ENDBRANCH   1   3
BRANCH   1  43
ATOM     43  C15 non d ame     -32.453   9.782  25.669  0.00  0.00     0.240 C 
ATOM     44  O5  non d ame     -32.508   9.439  26.805  0.00  0.00    -0.271 OA
ATOM     45  N6  non d ame     -32.621  11.222  25.320  0.00  0.00    -0.355 N 
ATOM     46  H46 non d ame     -32.572  11.526  24.358  0.00  0.00     0.162 HD
BRANCH  45  47
ATOM     47  C20 non d ame     -32.862  12.212  26.392  0.00  0.00     0.013 C 
ATOM     48  H30 non d ame     -33.454  11.728  27.168  0.00  0.00     0.072 H 
BRANCH  47  49
ATOM     49  C21 non d ame     -33.620  13.390  25.822  0.00  0.00    -0.038 C 
ATOM     50  H31 non d ame     -33.345  13.436  24.768  0.00  0.00     0.036 H 
ATOM     51  H32 non d ame     -34.661  13.236  26.109  0.00  0.00     0.036 H 
BRANCH  49  52
ATOM     52  C22 non d ame     -33.190  14.736  26.444  0.00  0.00     0.018 C 
ATOM     53  H33 non d ame     -33.799  14.856  27.340  0.00  0.00     0.048 H 
ATOM     54  H34 non d ame     -32.104  14.691  26.526  0.00  0.00     0.048 H 
BRANCH  52  55
ATOM     55  C23 non d ame     -33.501  15.968  25.548  0.00  0.00     0.259 C 
ATOM     56  O7  non d ame     -34.606  16.399  25.478  0.00  0.00    -0.265 OA
BRANCH  55  57
ATOM     57  O8  non d ame     -32.450  16.568  24.801  0.00  0.00    -0.317 OA
BRANCH  57  58
ATOM     58  C29 non d ame     -31.198  15.884  24.903  0.00  0.00     0.052 C 
ATOM     59  H47 non d ame     -30.493  16.616  25.298  0.00  0.00     0.082 H 
ATOM     60  H48 non d ame     -31.405  14.971  25.461  0.00  0.00     0.082 H 
BRANCH  58  61
ATOM     61  C35 non d ame     -30.748  15.493  23.470  0.00  0.00    -0.034 A 
ATOM     62  C30 non d ame     -31.118  16.280  22.384  0.00  0.00    -0.075 A 
ATOM     63  C31 non d ame     -30.715  15.928  21.097  0.00  0.00    -0.082 A 
ATOM     64  H49 non d ame     -31.725  17.172  22.542  0.00  0.00     0.084 H 
ATOM     65  C32 non d ame     -29.939  14.782  20.898  0.00  0.00    -0.083 A 
ATOM     66  H50 non d ame     -31.005  16.548  20.248  0.00  0.00     0.083 H 
ATOM     67  C33 non d ame     -29.575  13.998  21.984  0.00  0.00    -0.082 A 
ATOM     68  H51 non d ame     -29.619  14.501  19.895  0.00  0.00     0.083 H 
ATOM     69  C34 non d ame     -29.975  14.347  23.272  0.00  0.00    -0.075 A 
ATOM     70  H52 non d ame     -28.973  13.104  21.824  0.00  0.00     0.083 H 
ATOM     71  H53 non d ame     -29.684  13.727  24.120  0.00  0.00     0.084 H 
ENDBRANCH  58  61
ENDBRANCH  57  58
ENDBRANCH  55  57
ENDBRANCH  52  55
ENDBRANCH  49  52
ENDBRANCH  47  49
BRANCH  47  72
ATOM     72  C24 non d ame     -31.529  12.691  26.962  0.00  0.00    -0.039 C 
ATOM     73  H35 non d ame     -30.763  12.223  26.342  0.00  0.00     0.036 H 
ATOM     74  H36 non d ame     -31.605  13.777  27.004  0.00  0.00     0.036 H 
BRANCH  72  75
ATOM     75  C25 non d ame     -31.305  12.173  28.461  0.00  0.00    -0.001 C 
ATOM     76  C26 non d ame     -32.757  11.873  29.172  0.00  0.00    -0.035 C 
ATOM     77  C27 non d ame     -32.800  12.515  30.364  0.00  0.00     0.085 C 
ATOM     78  H38 non d ame     -33.557  12.342  28.601  0.00  0.00     0.036 H 
ATOM     79  H39 non d ame     -32.828  10.820  29.447  0.00  0.00     0.036 H 
ATOM     80  N5  non d ame     -31.646  13.488  30.384  0.00  0.00    -0.049 N 
ATOM     81  H40 non d ame     -33.736  13.073  30.360  0.00  0.00     0.075 H 
ATOM     82  H41 non d ame     -32.627  11.745  31.116  0.00  0.00     0.075 H 
ATOM     83  C28 non d ame     -30.676  13.050  29.169  0.00  0.00     0.193 C 
ATOM     84  H42 non d ame     -32.034  14.396  30.174  0.00  0.00     0.280 HD
ATOM     85  H43 non d ame     -31.159  13.335  31.255  0.00  0.00     0.280 HD
ATOM     86  H44 non d ame     -29.747  12.516  29.368  0.00  0.00     0.129 H 
ATOM     87  H37 non d ame     -30.552  11.386  28.518  0.00  0.00     0.046 H 
BRANCH  83  88
ATOM     88  O6  non d ame     -30.301  14.195  28.401  0.00  0.00    -0.369 OA
ATOM     89  H45 non d ame     -30.835  14.235  27.605  0.00  0.00     0.212 HD
ENDBRANCH  83  88
ENDBRANCH  72  75
ENDBRANCH  47  72
ENDBRANCH  45  47
ENDBRANCH   1  43
BRANCH   1  90
ATOM     90  C16 non d ame     -32.269   9.398  23.191  0.00  0.00    -0.035 C 
ATOM     91  H21 non d ame     -32.999   8.822  22.624  0.00  0.00     0.037 H 
ATOM     92  H22 non d ame     -32.447  10.453  23.397  0.00  0.00     0.037 H 
BRANCH  90  93
ATOM     93  C17 non d ame     -30.931   9.325  22.387  0.00  0.00    -0.059 C 
ATOM     94  H23 non d ame     -31.169   9.477  21.335  0.00  0.00     0.038 H 
BRANCH  93  95
ATOM     95  C18 non d ame     -29.926  10.442  22.814  0.00  0.00    -0.073 C 
ATOM     96  H24 non d ame     -28.981  10.300  22.291  0.00  0.00     0.028 H 
ATOM     97  H25 non d ame     -30.337  11.418  22.560  0.00  0.00     0.028 H 
ATOM     98  H26 non d ame     -29.757  10.387  23.889  0.00  0.00     0.028 H 
ENDBRANCH  93  95
BRANCH  93  99
ATOM     99  C19 non d ame     -30.292   7.940  22.513  0.00  0.00    -0.073 C 
ATOM    100  H27 non d ame     -29.803   7.852  23.484  0.00  0.00     0.028 H 
ATOM    101  H28 non d ame     -31.063   7.174  22.424  0.00  0.00     0.028 H 
ATOM    102  H29 non d ame     -29.555   7.806  21.722  0.00  0.00     0.028 H 
ENDBRANCH  93  99
ENDBRANCH  90  93
ENDBRANCH   1  90
TORSDOF 26
ENDMDL
MODEL 13
REMARK VINA RESULT:      -5.8      2.989      6.992
REMARK  26 active torsions:
REMARK  status: ('A' for Active; 'I' for Inactive)
REMARK    1  A    between atoms: C2_2  and  C3_3 
REMARK    2  A    between atoms: C4_6  and  C5_7 
REMARK       I    between atoms: C5_7  and  N2_9 
REMARK    3  A    between atoms: N2_9  and  C6_10 
REMARK    4  A    between atoms: C6_10  and  C7_11 
REMARK    5  A    between atoms: C6_10  and  C8_13 
REMARK       I    between atoms: C7_11  and  N3_14 
REMARK    6  A    between atoms: N3_14  and  C9_15 
REMARK    7  A    between atoms: C9_15  and  C10_16 
REMARK    8  A    between atoms: C9_15  and  C11_18 
REMARK       I    between atoms: C10_16  and  N4_21 
REMARK    9  A    between atoms: C11_18  and  C12_19 
REMARK   10  A    between atoms: C11_18  and  C13_20 
REMARK   11  A    between atoms: N4_21  and  C14_22 
REMARK   12  A    between atoms: C14_22  and  C15_23 
REMARK   13  A    between atoms: C14_22  and  C16_25 
REMARK       I    between atoms: C15_23  and  N6_40 
REMARK   14  A    between atoms: C16_25  and  C17_26 
REMARK   15  A    between atoms: C17_26  and  C18_27 
REMARK   16  A    between atoms: C17_26  and  C19_28 
REMARK   17  A    between atoms: C20_29  and  C21_30 
REMARK   18  A    between atoms: C20_29  and  C24_33 
REMARK   19  A    between atoms: C20_29  and  N6_40 
REMARK   20  A    between atoms: C21_30  and  C22_31 
REMARK   21  A    between atoms: C22_31  and  C23_32 
REMARK   22  A    between atoms: C23_32  and  O8_43 
REMARK   23  A    between atoms: C24_33  and  C25_34 
REMARK   24  A    between atoms: C28_38  and  O6_39 
REMARK   25  A    between atoms: C29_42  and  O8_43 
REMARK   26  A    between atoms: C29_42  and  C35_49 
ROOT
ATOM      1  C14 non d ame     -36.842  12.255  24.596  0.00  0.00     0.089 C 
ATOM      2  H20 non d ame     -37.612  12.233  25.367  0.00  0.00     0.087 H 
ENDROOT
BRANCH   1   3
ATOM      3  N4  non d ame     -35.812  13.187  25.031  0.00  0.00    -0.346 N 
ATOM      4  C10 non d ame     -36.020  14.031  26.262  0.00  0.00     0.241 C 
ATOM      5  O4  non d ame     -37.026  13.946  26.886  0.00  0.00    -0.271 OA
ATOM      6  H19 non d ame     -34.964  13.246  24.485  0.00  0.00     0.163 HD
BRANCH   4   7
ATOM      7  C9  non d ame     -34.941  14.986  26.701  0.00  0.00     0.092 C 
ATOM      8  H11 non d ame     -35.029  15.158  27.774  0.00  0.00     0.088 H 
BRANCH   7   9
ATOM      9  N3  non d ame     -33.627  14.380  26.466  0.00  0.00    -0.346 N 
ATOM     10  C7  non d ame     -32.699  14.226  27.560  0.00  0.00     0.240 C 
ATOM     11  O3  non d ame     -32.993  14.585  28.635  0.00  0.00    -0.271 OA
ATOM     12  H10 non d ame     -33.358  14.068  25.544  0.00  0.00     0.163 HD
BRANCH  10  13
ATOM     13  C6  non d ame     -31.300  13.583  27.303  0.00  0.00     0.086 C 
ATOM     14  H6  non d ame     -31.338  12.495  27.260  0.00  0.00     0.086 H 
BRANCH  13  15
ATOM     15  N2  non d ame     -30.804  14.034  26.013  0.00  0.00    -0.343 N 
ATOM     16  C5  non d ame     -31.144  13.278  24.806  0.00  0.00     0.273 C 
ATOM     17  O2  non d ame     -31.815  12.308  24.883  0.00  0.00    -0.266 OA
ATOM     18  H5  non d ame     -30.230  14.863  25.957  0.00  0.00     0.163 HD
BRANCH  16  19
ATOM     19  C4  non d ame     -30.628  13.744  23.435  0.00  0.00     0.154 A 
ATOM     20  C1  non d ame     -31.036  14.906  22.707  0.00  0.00    -0.017 A 
ATOM     21  C2  non d ame     -30.268  14.880  21.521  0.00  0.00     0.077 A 
ATOM     22  H1  non d ame     -31.774  15.654  22.995  0.00  0.00     0.091 H 
ATOM     23  O1  non d ame     -29.512  13.823  21.573  0.00  0.00    -0.218 OA
ATOM     24  N1  non d ame     -29.704  13.144  22.680  0.00  0.00    -0.123 NA
BRANCH  21  25
ATOM     25  C3  non d ame     -30.318  15.901  20.393  0.00  0.00    -0.029 C 
ATOM     26  H2  non d ame     -29.481  16.592  20.490  0.00  0.00     0.036 H 
ATOM     27  H3  non d ame     -30.253  15.386  19.434  0.00  0.00     0.036 H 
ATOM     28  H4  non d ame     -31.255  16.455  20.444  0.00  0.00     0.036 H 
ENDBRANCH  21  25
ENDBRANCH  16  19
ENDBRANCH  13  15
BRANCH  13  29
ATOM     29  C8  non d ame     -30.347  13.995  28.396  0.00  0.00    -0.049 C 
ATOM     30  H7  non d ame     -30.912  14.272  29.286  0.00  0.00     0.030 H 
ATOM     31  H8  non d ame     -29.683  13.164  28.631  0.00  0.00     0.030 H 
ATOM     32  H9  non d ame     -29.756  14.848  28.060  0.00  0.00     0.030 H 
ENDBRANCH  13  29
ENDBRANCH  10  13
ENDBRANCH   7   9
BRANCH   7  33
ATOM     33  C11 non d ame     -35.054  16.307  25.885  0.00  0.00    -0.033 C 
ATOM     34  H12 non d ame     -35.662  16.098  25.005  0.00  0.00     0.042 H 
BRANCH  33  35
ATOM     35  C12 non d ame     -35.778  17.421  26.703  0.00  0.00    -0.071 C 
ATOM     36  H13 non d ame     -35.868  17.107  27.743  0.00  0.00     0.028 H 
ATOM     37  H14 non d ame     -35.202  18.344  26.650  0.00  0.00     0.028 H 
ATOM     38  H15 non d ame     -36.772  17.588  26.288  0.00  0.00     0.028 H 
ENDBRANCH  33  35
BRANCH  33  39
ATOM     39  C13 non d ame     -33.648  16.785  25.398  0.00  0.00    -0.071 C 
ATOM     40  H16 non d ame     -32.973  16.856  26.251  0.00  0.00     0.028 H 
ATOM     41  H17 non d ame     -33.250  16.070  24.677  0.00  0.00     0.028 H 
ATOM     42  H18 non d ame     -33.741  17.763  24.925  0.00  0.00     0.028 H 
ENDBRANCH  33  39
ENDBRANCH   7  33
ENDBRANCH   4   7
ENDBRANCH   1   3
BRANCH   1  43
ATOM     43  C15 non d ame     -36.188  10.860  24.378  0.00  0.00     0.240 C 
ATOM     44  O5  non d ame     -36.855   9.945  24.015  0.00  0.00    -0.271 OA
ATOM     45  N6  non d ame     -34.729  10.667  24.614  0.00  0.00    -0.355 N 
ATOM     46  H46 non d ame     -34.152  11.438  24.918  0.00  0.00     0.162 HD
BRANCH  45  47
ATOM     47  C20 non d ame     -34.123   9.335  24.401  0.00  0.00     0.013 C 
ATOM     48  H30 non d ame     -34.750   8.789  23.697  0.00  0.00     0.072 H 
BRANCH  47  49
ATOM     49  C21 non d ame     -34.063   8.597  25.719  0.00  0.00    -0.038 C 
ATOM     50  H31 non d ame     -33.022   8.647  26.038  0.00  0.00     0.036 H 
ATOM     51  H32 non d ame     -34.845   9.037  26.338  0.00  0.00     0.036 H 
BRANCH  49  52
ATOM     52  C22 non d ame     -34.405   7.097  25.582  0.00  0.00     0.018 C 
ATOM     53  H33 non d ame     -35.125   6.885  26.373  0.00  0.00     0.048 H 
ATOM     54  H34 non d ame     -34.684   6.952  24.538  0.00  0.00     0.048 H 
BRANCH  52  55
ATOM     55  C23 non d ame     -33.198   6.153  25.838  0.00  0.00     0.259 C 
ATOM     56  O7  non d ame     -32.648   5.618  24.931  0.00  0.00    -0.265 OA
BRANCH  55  57
ATOM     57  O8  non d ame     -32.763   5.925  27.173  0.00  0.00    -0.317 OA
BRANCH  57  58
ATOM     58  C29 non d ame     -32.923   4.573  27.614  0.00  0.00     0.052 C 
ATOM     59  H47 non d ame     -33.756   4.172  27.038  0.00  0.00     0.082 H 
ATOM     60  H48 non d ame     -31.936   4.118  27.535  0.00  0.00     0.082 H 
BRANCH  58  61
ATOM     61  C35 non d ame     -33.330   4.603  29.112  0.00  0.00    -0.034 A 
ATOM     62  C30 non d ame     -32.599   3.877  30.047  0.00  0.00    -0.075 A 
ATOM     63  C31 non d ame     -32.965   3.903  31.392  0.00  0.00    -0.082 A 
ATOM     64  H49 non d ame     -31.741   3.287  29.726  0.00  0.00     0.084 H 
ATOM     65  C32 non d ame     -34.068   4.658  31.800  0.00  0.00    -0.083 A 
ATOM     66  H50 non d ame     -32.390   3.335  32.123  0.00  0.00     0.083 H 
ATOM     67  C33 non d ame     -34.796   5.378  30.863  0.00  0.00    -0.082 A 
ATOM     68  H51 non d ame     -34.361   4.685  32.850  0.00  0.00     0.083 H 
ATOM     69  C34 non d ame     -34.433   5.356  29.518  0.00  0.00    -0.075 A 
ATOM     70  H52 non d ame     -35.658   5.964  31.184  0.00  0.00     0.083 H 
ATOM     71  H53 non d ame     -35.009   5.925  28.788  0.00  0.00     0.084 H 
ENDBRANCH  58  61
ENDBRANCH  57  58
ENDBRANCH  55  57
ENDBRANCH  52  55
ENDBRANCH  49  52
ENDBRANCH  47  49
BRANCH  47  72
ATOM     72  C24 non d ame     -32.711   9.494  23.841  0.00  0.00    -0.039 C 
ATOM     73  H35 non d ame     -32.582  10.564  23.677  0.00  0.00     0.036 H 
ATOM     74  H36 non d ame     -32.060   8.968  24.540  0.00  0.00     0.036 H 
BRANCH  72  75
ATOM     75  C25 non d ame     -32.553   8.776  22.418  0.00  0.00    -0.001 C 
ATOM     76  C26 non d ame     -33.976   8.075  21.984  0.00  0.00    -0.035 C 
ATOM     77  C27 non d ame     -33.741   6.785  21.645  0.00  0.00     0.085 C 
ATOM     78  H38 non d ame     -34.633   7.996  22.850  0.00  0.00     0.036 H 
ATOM     79  H39 non d ame     -34.345   8.518  21.059  0.00  0.00     0.036 H 
ATOM     80  N5  non d ame     -32.348   6.450  22.120  0.00  0.00    -0.049 N 
ATOM     81  H40 non d ame     -34.462   6.198  22.215  0.00  0.00     0.075 H 
ATOM     82  H41 non d ame     -33.760   6.761  20.556  0.00  0.00     0.075 H 
ATOM     83  C28 non d ame     -31.641   7.863  22.453  0.00  0.00     0.193 C 
ATOM     84  H42 non d ame     -32.455   5.933  22.981  0.00  0.00     0.280 HD
ATOM     85  H43 non d ame     -31.872   6.029  21.334  0.00  0.00     0.280 HD
ATOM     86  H44 non d ame     -30.907   8.290  21.769  0.00  0.00     0.129 H 
ATOM     87  H37 non d ame     -32.073   9.421  21.681  0.00  0.00     0.046 H 
BRANCH  83  88
ATOM     88  O6  non d ame     -30.989   7.801  23.723  0.00  0.00    -0.369 OA
ATOM     89  H45 non d ame     -30.261   8.427  23.740  0.00  0.00     0.212 HD
ENDBRANCH  83  88
ENDBRANCH  72  75
ENDBRANCH  47  72
ENDBRANCH  45  47
ENDBRANCH   1  43
BRANCH   1  90
ATOM     90  C16 non d ame     -37.438  12.750  23.288  0.00  0.00    -0.035 C 
ATOM     91  H21 non d ame     -37.108  13.784  23.193  0.00  0.00     0.037 H 
ATOM     92  H22 non d ame     -37.144  12.013  22.540  0.00  0.00     0.037 H 
BRANCH  90  93
ATOM     93  C17 non d ame     -39.000  12.784  23.284  0.00  0.00    -0.059 C 
ATOM     94  H23 non d ame     -39.309  13.695  22.772  0.00  0.00     0.038 H 
BRANCH  93  95
ATOM     95  C18 non d ame     -39.614  11.572  22.513  0.00  0.00    -0.073 C 
ATOM     96  H24 non d ame     -39.466  10.661  23.091  0.00  0.00     0.028 H 
ATOM     97  H25 non d ame     -40.681  11.739  22.365  0.00  0.00     0.028 H 
ATOM     98  H26 non d ame     -39.124  11.472  21.545  0.00  0.00     0.028 H 
ENDBRANCH  93  95
BRANCH  93  99
ATOM     99  C19 non d ame     -39.548  12.856  24.711  0.00  0.00    -0.073 C 
ATOM    100  H27 non d ame     -40.005  11.901  24.974  0.00  0.00     0.028 H 
ATOM    101  H28 non d ame     -38.734  13.071  25.404  0.00  0.00     0.028 H 
ATOM    102  H29 non d ame     -40.296  13.646  24.774  0.00  0.00     0.028 H 
ENDBRANCH  93  99
ENDBRANCH  90  93
ENDBRANCH   1  90
TORSDOF 26
ENDMDL
MODEL 14
REMARK VINA RESULT:      -5.8      2.851      6.685
REMARK  26 active torsions:
REMARK  status: ('A' for Active; 'I' for Inactive)
REMARK    1  A    between atoms: C2_2  and  C3_3 
REMARK    2  A    between atoms: C4_6  and  C5_7 
REMARK       I    between atoms: C5_7  and  N2_9 
REMARK    3  A    between atoms: N2_9  and  C6_10 
REMARK    4  A    between atoms: C6_10  and  C7_11 
REMARK    5  A    between atoms: C6_10  and  C8_13 
REMARK       I    between atoms: C7_11  and  N3_14 
REMARK    6  A    between atoms: N3_14  and  C9_15 
REMARK    7  A    between atoms: C9_15  and  C10_16 
REMARK    8  A    between atoms: C9_15  and  C11_18 
REMARK       I    between atoms: C10_16  and  N4_21 
REMARK    9  A    between atoms: C11_18  and  C12_19 
REMARK   10  A    between atoms: C11_18  and  C13_20 
REMARK   11  A    between atoms: N4_21  and  C14_22 
REMARK   12  A    between atoms: C14_22  and  C15_23 
REMARK   13  A    between atoms: C14_22  and  C16_25 
REMARK       I    between atoms: C15_23  and  N6_40 
REMARK   14  A    between atoms: C16_25  and  C17_26 
REMARK   15  A    between atoms: C17_26  and  C18_27 
REMARK   16  A    between atoms: C17_26  and  C19_28 
REMARK   17  A    between atoms: C20_29  and  C21_30 
REMARK   18  A    between atoms: C20_29  and  C24_33 
REMARK   19  A    between atoms: C20_29  and  N6_40 
REMARK   20  A    between atoms: C21_30  and  C22_31 
REMARK   21  A    between atoms: C22_31  and  C23_32 
REMARK   22  A    between atoms: C23_32  and  O8_43 
REMARK   23  A    between atoms: C24_33  and  C25_34 
REMARK   24  A    between atoms: C28_38  and  O6_39 
REMARK   25  A    between atoms: C29_42  and  O8_43 
REMARK   26  A    between atoms: C29_42  and  C35_49 
ROOT
ATOM      1  C14 non d ame     -36.432  12.528  26.692  0.00  0.00     0.089 C 
ATOM      2  H20 non d ame     -37.277  13.088  27.095  0.00  0.00     0.087 H 
ENDROOT
BRANCH   1   3
ATOM      3  N4  non d ame     -35.258  13.384  26.781  0.00  0.00    -0.346 N 
ATOM      4  C10 non d ame     -35.407  14.851  27.093  0.00  0.00     0.241 C 
ATOM      5  O4  non d ame     -36.482  15.322  27.267  0.00  0.00    -0.271 OA
ATOM      6  H19 non d ame     -34.352  12.964  26.627  0.00  0.00     0.163 HD
BRANCH   4   7
ATOM      7  C9  non d ame     -34.180  15.721  27.187  0.00  0.00     0.092 C 
ATOM      8  H11 non d ame     -33.698  15.558  28.151  0.00  0.00     0.088 H 
BRANCH   7   9
ATOM      9  N3  non d ame     -33.221  15.326  26.151  0.00  0.00    -0.346 N 
ATOM     10  C7  non d ame     -32.087  14.505  26.494  0.00  0.00     0.240 C 
ATOM     11  O3  non d ame     -31.930  14.153  27.600  0.00  0.00    -0.271 OA
ATOM     12  H10 non d ame     -33.343  15.624  25.193  0.00  0.00     0.163 HD
BRANCH  10  13
ATOM     13  C6  non d ame     -31.068  14.091  25.388  0.00  0.00     0.086 C 
ATOM     14  H6  non d ame     -30.126  13.725  25.797  0.00  0.00     0.086 H 
BRANCH  13  15
ATOM     15  N2  non d ame     -31.634  13.002  24.609  0.00  0.00    -0.343 N 
ATOM     16  C5  non d ame     -31.475  11.623  25.075  0.00  0.00     0.273 C 
ATOM     17  O2  non d ame     -30.888  11.400  26.077  0.00  0.00    -0.266 OA
ATOM     18  H5  non d ame     -32.132  13.202  23.753  0.00  0.00     0.163 HD
BRANCH  16  19
ATOM     19  C4  non d ame     -32.070  10.462  24.263  0.00  0.00     0.154 A 
ATOM     20  C1  non d ame     -31.451   9.757  23.182  0.00  0.00    -0.017 A 
ATOM     21  C2  non d ame     -32.404   8.794  22.784  0.00  0.00     0.077 A 
ATOM     22  H1  non d ame     -30.463   9.920  22.752  0.00  0.00     0.091 H 
ATOM     23  O1  non d ame     -33.444   8.936  23.553  0.00  0.00    -0.218 OA
ATOM     24  N1  non d ame     -33.272   9.903  24.424  0.00  0.00    -0.123 NA
BRANCH  21  25
ATOM     25  C3  non d ame     -32.243   7.776  21.662  0.00  0.00    -0.029 C 
ATOM     26  H2  non d ame     -31.184   7.584  21.494  0.00  0.00     0.036 H 
ATOM     27  H3  non d ame     -32.741   6.847  21.940  0.00  0.00     0.036 H 
ATOM     28  H4  non d ame     -32.691   8.168  20.749  0.00  0.00     0.036 H 
ENDBRANCH  21  25
ENDBRANCH  16  19
ENDBRANCH  13  15
BRANCH  13  29
ATOM     29  C8  non d ame     -30.784  15.272  24.494  0.00  0.00    -0.049 C 
ATOM     30  H7  non d ame     -30.593  14.922  23.480  0.00  0.00     0.030 H 
ATOM     31  H8  non d ame     -31.645  15.940  24.492  0.00  0.00     0.030 H 
ATOM     32  H9  non d ame     -29.910  15.807  24.865  0.00  0.00     0.030 H 
ENDBRANCH  13  29
ENDBRANCH  10  13
ENDBRANCH   7   9
BRANCH   7  33
ATOM     33  C11 non d ame     -34.583  17.210  26.978  0.00  0.00    -0.033 C 
ATOM     34  H12 non d ame     -35.552  17.358  27.454  0.00  0.00     0.042 H 
BRANCH  33  35
ATOM     35  C12 non d ame     -33.569  18.175  27.667  0.00  0.00    -0.071 C 
ATOM     36  H13 non d ame     -33.950  19.195  27.622  0.00  0.00     0.028 H 
ATOM     37  H14 non d ame     -33.438  17.882  28.708  0.00  0.00     0.028 H 
ATOM     38  H15 non d ame     -32.610  18.123  27.151  0.00  0.00     0.028 H 
ENDBRANCH  33  35
BRANCH  33  39
ATOM     39  C13 non d ame     -34.736  17.540  25.458  0.00  0.00    -0.071 C 
ATOM     40  H16 non d ame     -35.759  17.857  25.257  0.00  0.00     0.028 H 
ATOM     41  H17 non d ame     -34.047  18.340  25.189  0.00  0.00     0.028 H 
ATOM     42  H18 non d ame     -34.508  16.652  24.869  0.00  0.00     0.028 H 
ENDBRANCH  33  39
ENDBRANCH   7  33
ENDBRANCH   4   7
ENDBRANCH   1   3
BRANCH   1  43
ATOM     43  C15 non d ame     -36.156  11.224  27.493  0.00  0.00     0.240 C 
ATOM     44  O5  non d ame     -36.917  10.876  28.337  0.00  0.00    -0.271 OA
ATOM     45  N6  non d ame     -34.947  10.402  27.200  0.00  0.00    -0.355 N 
ATOM     46  H46 non d ame     -34.297  10.684  26.482  0.00  0.00     0.162 HD
BRANCH  45  47
ATOM     47  C20 non d ame     -34.700   9.163  27.969  0.00  0.00     0.013 C 
ATOM     48  H30 non d ame     -35.444   9.107  28.764  0.00  0.00     0.072 H 
BRANCH  47  49
ATOM     49  C21 non d ame     -33.311   9.214  28.565  0.00  0.00    -0.038 C 
ATOM     50  H31 non d ame     -33.317   8.498  29.387  0.00  0.00     0.036 H 
ATOM     51  H32 non d ame     -32.627   9.078  27.728  0.00  0.00     0.036 H 
BRANCH  49  52
ATOM     52  C22 non d ame     -32.975  10.587  29.185  0.00  0.00     0.018 C 
ATOM     53  H33 non d ame     -31.907  10.731  29.023  0.00  0.00     0.048 H 
ATOM     54  H34 non d ame     -33.691  11.289  28.756  0.00  0.00     0.048 H 
BRANCH  52  55
ATOM     55  C23 non d ame     -33.186  10.649  30.723  0.00  0.00     0.259 C 
ATOM     56  O7  non d ame     -32.864  11.613  31.338  0.00  0.00    -0.265 OA
BRANCH  55  57
ATOM     57  O8  non d ame     -33.757   9.532  31.394  0.00  0.00    -0.317 OA
BRANCH  57  58
ATOM     58  C29 non d ame     -35.155   9.667  31.663  0.00  0.00     0.052 C 
ATOM     59  H47 non d ame     -35.230   9.887  32.728  0.00  0.00     0.082 H 
ATOM     60  H48 non d ame     -35.529  10.383  30.931  0.00  0.00     0.082 H 
BRANCH  58  61
ATOM     61  C35 non d ame     -35.830   8.295  31.396  0.00  0.00    -0.034 A 
ATOM     62  C30 non d ame     -37.211   8.214  31.251  0.00  0.00    -0.075 A 
ATOM     63  C31 non d ame     -37.817   6.982  31.012  0.00  0.00    -0.082 A 
ATOM     64  H49 non d ame     -37.819   9.116  31.326  0.00  0.00     0.084 H 
ATOM     65  C32 non d ame     -37.036   5.826  30.920  0.00  0.00    -0.083 A 
ATOM     66  H50 non d ame     -38.900   6.922  30.897  0.00  0.00     0.083 H 
ATOM     67  C33 non d ame     -35.658   5.912  31.068  0.00  0.00    -0.082 A 
ATOM     68  H51 non d ame     -37.502   4.859  30.732  0.00  0.00     0.083 H 
ATOM     69  C34 non d ame     -35.048   7.142  31.306  0.00  0.00    -0.075 A 
ATOM     70  H52 non d ame     -35.052   5.008  30.998  0.00  0.00     0.083 H 
ATOM     71  H53 non d ame     -33.966   7.200  31.420  0.00  0.00     0.084 H 
ENDBRANCH  58  61
ENDBRANCH  57  58
ENDBRANCH  55  57
ENDBRANCH  52  55
ENDBRANCH  49  52
ENDBRANCH  47  49
BRANCH  47  72
ATOM     72  C24 non d ame     -34.816   7.951  27.048  0.00  0.00    -0.039 C 
ATOM     73  H35 non d ame     -35.777   7.496  27.286  0.00  0.00     0.036 H 
ATOM     74  H36 non d ame     -34.627   8.331  26.044  0.00  0.00     0.036 H 
BRANCH  72  75
ATOM     75  C25 non d ame     -33.686   6.859  27.360  0.00  0.00    -0.001 C 
ATOM     76  C26 non d ame     -32.669   6.722  26.074  0.00  0.00    -0.035 C 
ATOM     77  C27 non d ame     -32.562   5.413  25.740  0.00  0.00     0.085 C 
ATOM     78  H38 non d ame     -33.120   7.174  25.191  0.00  0.00     0.036 H 
ATOM     79  H39 non d ame     -31.655   6.993  26.368  0.00  0.00     0.036 H 
ATOM     80  N5  non d ame     -33.663   4.681  26.468  0.00  0.00    -0.049 N 
ATOM     81  H40 non d ame     -32.754   5.370  24.668  0.00  0.00     0.075 H 
ATOM     82  H41 non d ame     -31.599   5.090  26.135  0.00  0.00     0.075 H 
ATOM     83  C28 non d ame     -34.207   5.701  27.595  0.00  0.00     0.193 C 
ATOM     84  H42 non d ame     -34.398   4.525  25.794  0.00  0.00     0.280 HD
ATOM     85  H43 non d ame     -33.226   3.895  26.930  0.00  0.00     0.280 HD
ATOM     86  H44 non d ame     -33.931   5.569  28.641  0.00  0.00     0.129 H 
ATOM     87  H37 non d ame     -33.230   7.005  28.339  0.00  0.00     0.046 H 
BRANCH  83  88
ATOM     88  O6  non d ame     -35.635   5.739  27.578  0.00  0.00    -0.369 OA
ATOM     89  H45 non d ame     -35.929   6.507  27.081  0.00  0.00     0.212 HD
ENDBRANCH  83  88
ENDBRANCH  72  75
ENDBRANCH  47  72
ENDBRANCH  45  47
ENDBRANCH   1  43
BRANCH   1  90
ATOM     90  C16 non d ame     -36.689  12.188  25.233  0.00  0.00    -0.035 C 
ATOM     91  H21 non d ame     -35.772  12.454  24.709  0.00  0.00     0.037 H 
ATOM     92  H22 non d ame     -37.036  11.154  25.234  0.00  0.00     0.037 H 
BRANCH  90  93
ATOM     93  C17 non d ame     -37.829  13.035  24.583  0.00  0.00    -0.059 C 
ATOM     94  H23 non d ame     -38.307  12.418  23.822  0.00  0.00     0.038 H 
BRANCH  93  95
ATOM     95  C18 non d ame     -38.923  13.446  25.620  0.00  0.00    -0.073 C 
ATOM     96  H24 non d ame     -39.556  14.223  25.193  0.00  0.00     0.028 H 
ATOM     97  H25 non d ame     -39.532  12.577  25.868  0.00  0.00     0.028 H 
ATOM     98  H26 non d ame     -38.443  13.823  26.523  0.00  0.00     0.028 H 
ENDBRANCH  93  95
BRANCH  93  99
ATOM     99  C19 non d ame     -37.259  14.268  23.876  0.00  0.00    -0.073 C 
ATOM    100  H27 non d ame     -36.644  13.951  23.033  0.00  0.00     0.028 H 
ATOM    101  H28 non d ame     -38.077  14.891  23.514  0.00  0.00     0.028 H 
ATOM    102  H29 non d ame     -36.651  14.839  24.576  0.00  0.00     0.028 H 
ENDBRANCH  93  99
ENDBRANCH  90  93
ENDBRANCH   1  90
TORSDOF 26
ENDMDL
MODEL 15
REMARK VINA RESULT:      -5.8      2.913      6.669
REMARK  26 active torsions:
REMARK  status: ('A' for Active; 'I' for Inactive)
REMARK    1  A    between atoms: C2_2  and  C3_3 
REMARK    2  A    between atoms: C4_6  and  C5_7 
REMARK       I    between atoms: C5_7  and  N2_9 
REMARK    3  A    between atoms: N2_9  and  C6_10 
REMARK    4  A    between atoms: C6_10  and  C7_11 
REMARK    5  A    between atoms: C6_10  and  C8_13 
REMARK       I    between atoms: C7_11  and  N3_14 
REMARK    6  A    between atoms: N3_14  and  C9_15 
REMARK    7  A    between atoms: C9_15  and  C10_16 
REMARK    8  A    between atoms: C9_15  and  C11_18 
REMARK       I    between atoms: C10_16  and  N4_21 
REMARK    9  A    between atoms: C11_18  and  C12_19 
REMARK   10  A    between atoms: C11_18  and  C13_20 
REMARK   11  A    between atoms: N4_21  and  C14_22 
REMARK   12  A    between atoms: C14_22  and  C15_23 
REMARK   13  A    between atoms: C14_22  and  C16_25 
REMARK       I    between atoms: C15_23  and  N6_40 
REMARK   14  A    between atoms: C16_25  and  C17_26 
REMARK   15  A    between atoms: C17_26  and  C18_27 
REMARK   16  A    between atoms: C17_26  and  C19_28 
REMARK   17  A    between atoms: C20_29  and  C21_30 
REMARK   18  A    between atoms: C20_29  and  C24_33 
REMARK   19  A    between atoms: C20_29  and  N6_40 
REMARK   20  A    between atoms: C21_30  and  C22_31 
REMARK   21  A    between atoms: C22_31  and  C23_32 
REMARK   22  A    between atoms: C23_32  and  O8_43 
REMARK   23  A    between atoms: C24_33  and  C25_34 
REMARK   24  A    between atoms: C28_38  and  O6_39 
REMARK   25  A    between atoms: C29_42  and  O8_43 
REMARK   26  A    between atoms: C29_42  and  C35_49 
ROOT
ATOM      1  C14 non d ame     -34.587   9.314  26.729  0.00  0.00     0.089 C 
ATOM      2  H20 non d ame     -34.617   8.806  25.765  0.00  0.00     0.087 H 
ENDROOT
BRANCH   1   3
ATOM      3  N4  non d ame     -35.241  10.604  26.565  0.00  0.00    -0.346 N 
ATOM      4  C10 non d ame     -35.949  10.940  25.276  0.00  0.00     0.241 C 
ATOM      5  O4  non d ame     -35.976  10.158  24.384  0.00  0.00    -0.271 OA
ATOM      6  H19 non d ame     -35.204  11.257  27.335  0.00  0.00     0.163 HD
BRANCH   4   7
ATOM      7  C9  non d ame     -36.625  12.278  25.126  0.00  0.00     0.092 C 
ATOM      8  H11 non d ame     -37.208  12.488  26.023  0.00  0.00     0.088 H 
BRANCH   7   9
ATOM      9  N3  non d ame     -35.610  13.329  25.011  0.00  0.00    -0.346 N 
ATOM     10  C7  non d ame     -35.189  14.054  26.185  0.00  0.00     0.240 C 
ATOM     11  O3  non d ame     -35.657  13.806  27.228  0.00  0.00    -0.271 OA
ATOM     12  H10 non d ame     -35.198  13.556  24.118  0.00  0.00     0.163 HD
BRANCH  10  13
ATOM     13  C6  non d ame     -34.111  15.175  26.057  0.00  0.00     0.086 C 
ATOM     14  H6  non d ame     -33.332  15.099  26.815  0.00  0.00     0.086 H 
BRANCH  13  15
ATOM     15  N2  non d ame     -33.450  15.047  24.768  0.00  0.00    -0.343 N 
ATOM     16  C5  non d ame     -31.993  15.178  24.688  0.00  0.00     0.273 C 
ATOM     17  O2  non d ame     -31.363  15.388  25.666  0.00  0.00    -0.266 OA
ATOM     18  H5  non d ame     -33.997  14.870  23.937  0.00  0.00     0.163 HD
BRANCH  16  19
ATOM     19  C4  non d ame     -31.282  15.044  23.333  0.00  0.00     0.154 A 
ATOM     20  C1  non d ame     -31.433  15.891  22.190  0.00  0.00    -0.017 A 
ATOM     21  C2  non d ame     -30.568  15.345  21.215  0.00  0.00     0.077 A 
ATOM     22  H1  non d ame     -32.072  16.768  22.083  0.00  0.00     0.091 H 
ATOM     23  O1  non d ame     -29.991  14.307  21.748  0.00  0.00    -0.218 OA
ATOM     24  N1  non d ame     -30.392  14.111  22.983  0.00  0.00    -0.123 NA
BRANCH  21  25
ATOM     25  C3  non d ame     -30.350  15.874  19.804  0.00  0.00    -0.029 C 
ATOM     26  H2  non d ame     -29.346  15.616  19.470  0.00  0.00     0.036 H 
ATOM     27  H3  non d ame     -31.083  15.427  19.132  0.00  0.00     0.036 H 
ATOM     28  H4  non d ame     -30.468  16.958  19.800  0.00  0.00     0.036 H 
ENDBRANCH  21  25
ENDBRANCH  16  19
ENDBRANCH  13  15
BRANCH  13  29
ATOM     29  C8  non d ame     -34.770  16.526  26.168  0.00  0.00    -0.049 C 
ATOM     30  H7  non d ame     -34.068  17.299  25.854  0.00  0.00     0.030 H 
ATOM     31  H8  non d ame     -35.651  16.554  25.527  0.00  0.00     0.030 H 
ATOM     32  H9  non d ame     -35.066  16.702  27.202  0.00  0.00     0.030 H 
ENDBRANCH  13  29
ENDBRANCH  10  13
ENDBRANCH   7   9
BRANCH   7  33
ATOM     33  C11 non d ame     -37.508  12.271  23.843  0.00  0.00    -0.033 C 
ATOM     34  H12 non d ame     -37.134  11.482  23.191  0.00  0.00     0.042 H 
BRANCH  33  35
ATOM     35  C12 non d ame     -38.995  11.936  24.178  0.00  0.00    -0.071 C 
ATOM     36  H13 non d ame     -39.347  11.143  23.518  0.00  0.00     0.028 H 
ATOM     37  H14 non d ame     -39.069  11.607  25.214  0.00  0.00     0.028 H 
ATOM     38  H15 non d ame     -39.608  12.826  24.035  0.00  0.00     0.028 H 
ENDBRANCH  33  35
BRANCH  33  39
ATOM     39  C13 non d ame     -37.391  13.627  23.077  0.00  0.00    -0.071 C 
ATOM     40  H16 non d ame     -36.339  13.884  22.951  0.00  0.00     0.028 H 
ATOM     41  H17 non d ame     -37.863  13.533  22.098  0.00  0.00     0.028 H 
ATOM     42  H18 non d ame     -37.892  14.410  23.646  0.00  0.00     0.028 H 
ENDBRANCH  33  39
ENDBRANCH   7  33
ENDBRANCH   4   7
ENDBRANCH   1   3
BRANCH   1  43
ATOM     43  C15 non d ame     -35.334   8.517  27.836  0.00  0.00     0.240 C 
ATOM     44  O5  non d ame     -36.521   8.457  27.822  0.00  0.00    -0.271 OA
ATOM     45  N6  non d ame     -34.568   7.822  28.910  0.00  0.00    -0.355 N 
ATOM     46  H46 non d ame     -33.560   7.863  28.930  0.00  0.00     0.162 HD
BRANCH  45  47
ATOM     47  C20 non d ame     -35.293   7.068  29.956  0.00  0.00     0.013 C 
ATOM     48  H30 non d ame     -36.355   7.291  29.855  0.00  0.00     0.072 H 
BRANCH  47  49
ATOM     49  C21 non d ame     -34.801   7.502  31.318  0.00  0.00    -0.038 C 
ATOM     50  H31 non d ame     -34.852   6.613  31.947  0.00  0.00     0.036 H 
ATOM     51  H32 non d ame     -33.843   7.991  31.142  0.00  0.00     0.036 H 
BRANCH  49  52
ATOM     52  C22 non d ame     -35.715   8.556  31.977  0.00  0.00     0.018 C 
ATOM     53  H33 non d ame     -36.731   8.178  31.865  0.00  0.00     0.048 H 
ATOM     54  H34 non d ame     -35.303   8.724  32.973  0.00  0.00     0.048 H 
BRANCH  52  55
ATOM     55  C23 non d ame     -35.692   9.938  31.267  0.00  0.00     0.259 C 
ATOM     56  O7  non d ame     -36.656  10.633  31.268  0.00  0.00    -0.265 OA
BRANCH  55  57
ATOM     57  O8  non d ame     -34.508  10.360  30.602  0.00  0.00    -0.317 OA
BRANCH  57  58
ATOM     58  C29 non d ame     -33.667  11.206  31.391  0.00  0.00     0.052 C 
ATOM     59  H47 non d ame     -34.316  11.994  31.773  0.00  0.00     0.082 H 
ATOM     60  H48 non d ame     -33.149  10.543  32.085  0.00  0.00     0.082 H 
BRANCH  58  61
ATOM     61  C35 non d ame     -32.614  11.848  30.449  0.00  0.00    -0.034 A 
ATOM     62  C30 non d ame     -33.022  12.492  29.285  0.00  0.00    -0.075 A 
ATOM     63  C31 non d ame     -32.077  13.069  28.438  0.00  0.00    -0.082 A 
ATOM     64  H49 non d ame     -34.082  12.544  29.036  0.00  0.00     0.084 H 
ATOM     65  C32 non d ame     -30.718  12.999  28.758  0.00  0.00    -0.083 A 
ATOM     66  H50 non d ame     -32.400  13.574  27.528  0.00  0.00     0.083 H 
ATOM     67  C33 non d ame     -30.316  12.353  29.919  0.00  0.00    -0.082 A 
ATOM     68  H51 non d ame     -29.972  13.448  28.102  0.00  0.00     0.083 H 
ATOM     69  C34 non d ame     -31.257  11.776  30.770  0.00  0.00    -0.075 A 
ATOM     70  H52 non d ame     -29.255  12.298  30.165  0.00  0.00     0.083 H 
ATOM     71  H53 non d ame     -30.933  11.272  31.680  0.00  0.00     0.084 H 
ENDBRANCH  58  61
ENDBRANCH  57  58
ENDBRANCH  55  57
ENDBRANCH  52  55
ENDBRANCH  49  52
ENDBRANCH  47  49
BRANCH  47  72
ATOM     72  C24 non d ame     -35.046   5.571  29.777  0.00  0.00    -0.039 C 
ATOM     73  H35 non d ame     -34.381   5.288  30.593  0.00  0.00     0.036 H 
ATOM     74  H36 non d ame     -36.036   5.121  29.700  0.00  0.00     0.036 H 
BRANCH  72  75
ATOM     75  C25 non d ame     -34.276   5.257  28.408  0.00  0.00    -0.001 C 
ATOM     76  C26 non d ame     -35.236   4.359  27.419  0.00  0.00    -0.035 C 
ATOM     77  C27 non d ame     -34.541   3.274  27.004  0.00  0.00     0.085 C 
ATOM     78  H38 non d ame     -36.062   3.932  27.987  0.00  0.00     0.036 H 
ATOM     79  H39 non d ame     -35.434   4.904  26.495  0.00  0.00     0.036 H 
ATOM     80  N5  non d ame     -33.312   3.176  27.875  0.00  0.00    -0.049 N 
ATOM     81  H40 non d ame     -35.188   2.420  27.204  0.00  0.00     0.075 H 
ATOM     82  H41 non d ame     -34.235   3.497  25.982  0.00  0.00     0.075 H 
ATOM     83  C28 non d ame     -33.186   4.600  28.625  0.00  0.00     0.193 C 
ATOM     84  H42 non d ame     -33.507   2.465  28.566  0.00  0.00     0.280 HD
ATOM     85  H43 non d ame     -32.526   3.071  27.250  0.00  0.00     0.280 HD
ATOM     86  H44 non d ame     -32.446   5.333  28.301  0.00  0.00     0.129 H 
ATOM     87  H37 non d ame     -33.817   6.147  27.979  0.00  0.00     0.046 H 
BRANCH  83  88
ATOM     88  O6  non d ame     -32.943   4.404  30.019  0.00  0.00    -0.369 OA
ATOM     89  H45 non d ame     -33.543   4.954  30.529  0.00  0.00     0.212 HD
ENDBRANCH  83  88
ENDBRANCH  72  75
ENDBRANCH  47  72
ENDBRANCH  45  47
ENDBRANCH   1  43
BRANCH   1  90
ATOM     90  C16 non d ame     -33.143   9.540  27.147  0.00  0.00    -0.035 C 
ATOM     91  H21 non d ame     -33.117  10.547  27.562  0.00  0.00     0.037 H 
ATOM     92  H22 non d ame     -32.887   8.686  27.774  0.00  0.00     0.037 H 
BRANCH  90  93
ATOM     93  C17 non d ame     -32.135   9.529  25.954  0.00  0.00    -0.059 C 
ATOM     94  H23 non d ame     -31.194   9.118  26.319  0.00  0.00     0.038 H 
BRANCH  93  95
ATOM     95  C18 non d ame     -32.626   8.625  24.777  0.00  0.00    -0.073 C 
ATOM     96  H24 non d ame     -33.058   9.249  23.995  0.00  0.00     0.028 H 
ATOM     97  H25 non d ame     -31.782   8.068  24.371  0.00  0.00     0.028 H 
ATOM     98  H26 non d ame     -33.379   7.929  25.144  0.00  0.00     0.028 H 
ENDBRANCH  93  95
BRANCH  93  99
ATOM     99  C19 non d ame     -31.851  10.952  25.465  0.00  0.00    -0.073 C 
ATOM    100  H27 non d ame     -32.465  11.165  24.590  0.00  0.00     0.028 H 
ATOM    101  H28 non d ame     -32.088  11.663  26.257  0.00  0.00     0.028 H 
ATOM    102  H29 non d ame     -30.797  11.042  25.201  0.00  0.00     0.028 H 
ENDBRANCH  93  99
ENDBRANCH  90  93
ENDBRANCH   1  90
TORSDOF 26
ENDMDL
MODEL 16
REMARK VINA RESULT:      -5.8      3.256      6.325
REMARK  26 active torsions:
REMARK  status: ('A' for Active; 'I' for Inactive)
REMARK    1  A    between atoms: C2_2  and  C3_3 
REMARK    2  A    between atoms: C4_6  and  C5_7 
REMARK       I    between atoms: C5_7  and  N2_9 
REMARK    3  A    between atoms: N2_9  and  C6_10 
REMARK    4  A    between atoms: C6_10  and  C7_11 
REMARK    5  A    between atoms: C6_10  and  C8_13 
REMARK       I    between atoms: C7_11  and  N3_14 
REMARK    6  A    between atoms: N3_14  and  C9_15 
REMARK    7  A    between atoms: C9_15  and  C10_16 
REMARK    8  A    between atoms: C9_15  and  C11_18 
REMARK       I    between atoms: C10_16  and  N4_21 
REMARK    9  A    between atoms: C11_18  and  C12_19 
REMARK   10  A    between atoms: C11_18  and  C13_20 
REMARK   11  A    between atoms: N4_21  and  C14_22 
REMARK   12  A    between atoms: C14_22  and  C15_23 
REMARK   13  A    between atoms: C14_22  and  C16_25 
REMARK       I    between atoms: C15_23  and  N6_40 
REMARK   14  A    between atoms: C16_25  and  C17_26 
REMARK   15  A    between atoms: C17_26  and  C18_27 
REMARK   16  A    between atoms: C17_26  and  C19_28 
REMARK   17  A    between atoms: C20_29  and  C21_30 
REMARK   18  A    between atoms: C20_29  and  C24_33 
REMARK   19  A    between atoms: C20_29  and  N6_40 
REMARK   20  A    between atoms: C21_30  and  C22_31 
REMARK   21  A    between atoms: C22_31  and  C23_32 
REMARK   22  A    between atoms: C23_32  and  O8_43 
REMARK   23  A    between atoms: C24_33  and  C25_34 
REMARK   24  A    between atoms: C28_38  and  O6_39 
REMARK   25  A    between atoms: C29_42  and  O8_43 
REMARK   26  A    between atoms: C29_42  and  C35_49 
ROOT
ATOM      1  C14 non d ame     -33.996   7.069  27.218  0.00  0.00     0.089 C 
ATOM      2  H20 non d ame     -33.816   6.324  27.993  0.00  0.00     0.087 H 
ENDROOT
BRANCH   1   3
ATOM      3  N4  non d ame     -34.144   8.358  27.876  0.00  0.00    -0.346 N 
ATOM      4  C10 non d ame     -34.611   8.434  29.308  0.00  0.00     0.241 C 
ATOM      5  O4  non d ame     -34.864   7.443  29.910  0.00  0.00    -0.271 OA
ATOM      6  H19 non d ame     -33.926   9.190  27.345  0.00  0.00     0.163 HD
BRANCH   4   7
ATOM      7  C9  non d ame     -34.753   9.777  29.974  0.00  0.00     0.092 C 
ATOM      8  H11 non d ame     -34.619   9.659  31.050  0.00  0.00     0.088 H 
BRANCH   7   9
ATOM      9  N3  non d ame     -33.693  10.673  29.501  0.00  0.00    -0.346 N 
ATOM     10  C7  non d ame     -32.859  11.367  30.452  0.00  0.00     0.240 C 
ATOM     11  O3  non d ame     -33.028  11.218  31.600  0.00  0.00    -0.271 OA
ATOM     12  H10 non d ame     -33.536  10.813  28.514  0.00  0.00     0.163 HD
BRANCH  10  13
ATOM     13  C6  non d ame     -31.734  12.321  29.942  0.00  0.00     0.086 C 
ATOM     14  H6  non d ame     -31.246  11.953  29.040  0.00  0.00     0.086 H 
BRANCH  13  15
ATOM     15  N2  non d ame     -32.324  13.605  29.602  0.00  0.00    -0.343 N 
ATOM     16  C5  non d ame     -31.634  14.488  28.658  0.00  0.00     0.273 C 
ATOM     17  O2  non d ame     -30.605  14.157  28.181  0.00  0.00    -0.266 OA
ATOM     18  H5  non d ame     -33.203  13.881  30.016  0.00  0.00     0.163 HD
BRANCH  16  19
ATOM     19  C4  non d ame     -32.247  15.848  28.288  0.00  0.00     0.154 A 
ATOM     20  C1  non d ame     -32.588  16.314  26.979  0.00  0.00    -0.017 A 
ATOM     21  C2  non d ame     -33.112  17.611  27.180  0.00  0.00     0.077 A 
ATOM     22  H1  non d ame     -32.474  15.792  26.028  0.00  0.00     0.091 H 
ATOM     23  O1  non d ame     -33.072  17.850  28.458  0.00  0.00    -0.218 OA
ATOM     24  N1  non d ame     -32.571  16.837  29.125  0.00  0.00    -0.123 NA
BRANCH  21  25
ATOM     25  C3  non d ame     -33.627  18.553  26.100  0.00  0.00    -0.029 C 
ATOM     26  H2  non d ame     -33.598  19.578  26.467  0.00  0.00     0.036 H 
ATOM     27  H3  non d ame     -33.000  18.467  25.213  0.00  0.00     0.036 H 
ATOM     28  H4  non d ame     -34.653  18.287  25.846  0.00  0.00     0.036 H 
ENDBRANCH  21  25
ENDBRANCH  16  19
ENDBRANCH  13  15
BRANCH  13  29
ATOM     29  C8  non d ame     -30.696  12.500  31.021  0.00  0.00    -0.049 C 
ATOM     30  H7  non d ame     -30.052  13.343  30.769  0.00  0.00     0.030 H 
ATOM     31  H8  non d ame     -31.190  12.691  31.973  0.00  0.00     0.030 H 
ATOM     32  H9  non d ame     -30.094  11.594  31.099  0.00  0.00     0.030 H 
ENDBRANCH  13  29
ENDBRANCH  10  13
ENDBRANCH   7   9
BRANCH   7  33
ATOM     33  C11 non d ame     -36.140  10.388  29.620  0.00  0.00    -0.033 C 
ATOM     34  H12 non d ame     -36.004  11.462  29.495  0.00  0.00     0.042 H 
BRANCH  33  35
ATOM     35  C12 non d ame     -36.682   9.823  28.270  0.00  0.00    -0.071 C 
ATOM     36  H13 non d ame     -37.750  10.026  28.194  0.00  0.00     0.028 H 
ATOM     37  H14 non d ame     -36.161  10.302  27.441  0.00  0.00     0.028 H 
ATOM     38  H15 non d ame     -36.513   8.747  28.233  0.00  0.00     0.028 H 
ENDBRANCH  33  35
BRANCH  33  39
ATOM     39  C13 non d ame     -37.163  10.162  30.779  0.00  0.00    -0.071 C 
ATOM     40  H16 non d ame     -36.795   9.378  31.441  0.00  0.00     0.028 H 
ATOM     41  H17 non d ame     -37.282  11.088  31.344  0.00  0.00     0.028 H 
ATOM     42  H18 non d ame     -38.125   9.866  30.362  0.00  0.00     0.028 H 
ENDBRANCH  33  39
ENDBRANCH   7  33
ENDBRANCH   4   7
ENDBRANCH   1   3
BRANCH   1  43
ATOM     43  C15 non d ame     -32.818   7.161  26.206  0.00  0.00     0.240 C 
ATOM     44  O5  non d ame     -31.880   6.441  26.325  0.00  0.00    -0.271 OA
ATOM     45  N6  non d ame     -32.863   8.141  25.084  0.00  0.00    -0.355 N 
ATOM     46  H46 non d ame     -33.657   8.754  24.970  0.00  0.00     0.162 HD
BRANCH  45  47
ATOM     47  C20 non d ame     -31.736   8.215  24.130  0.00  0.00     0.013 C 
ATOM     48  H30 non d ame     -30.835   7.888  24.649  0.00  0.00     0.072 H 
BRANCH  47  49
ATOM     49  C21 non d ame     -31.572   9.643  23.660  0.00  0.00    -0.038 C 
ATOM     50  H31 non d ame     -30.523   9.889  23.826  0.00  0.00     0.036 H 
ATOM     51  H32 non d ame     -31.985   9.670  22.652  0.00  0.00     0.036 H 
BRANCH  49  52
ATOM     52  C22 non d ame     -32.393  10.647  24.497  0.00  0.00     0.018 C 
ATOM     53  H33 non d ame     -32.641  11.463  23.819  0.00  0.00     0.048 H 
ATOM     54  H34 non d ame     -33.189  10.063  24.961  0.00  0.00     0.048 H 
BRANCH  52  55
ATOM     55  C23 non d ame     -31.596  11.288  25.666  0.00  0.00     0.259 C 
ATOM     56  O7  non d ame     -31.389  10.675  26.663  0.00  0.00    -0.265 OA
BRANCH  55  57
ATOM     57  O8  non d ame     -31.125  12.625  25.538  0.00  0.00    -0.317 OA
BRANCH  57  58
ATOM     58  C29 non d ame     -31.937  13.450  24.698  0.00  0.00     0.052 C 
ATOM     59  H47 non d ame     -32.656  12.777  24.230  0.00  0.00     0.082 H 
ATOM     60  H48 non d ame     -32.285  14.264  25.332  0.00  0.00     0.082 H 
BRANCH  58  61
ATOM     61  C35 non d ame     -31.028  14.045  23.589  0.00  0.00    -0.034 A 
ATOM     62  C30 non d ame     -30.023  13.269  23.021  0.00  0.00    -0.075 A 
ATOM     63  C31 non d ame     -29.207  13.804  22.025  0.00  0.00    -0.082 A 
ATOM     64  H49 non d ame     -29.875  12.242  23.356  0.00  0.00     0.084 H 
ATOM     65  C32 non d ame     -29.397  15.121  21.600  0.00  0.00    -0.083 A 
ATOM     66  H50 non d ame     -28.421  13.192  21.581  0.00  0.00     0.083 H 
ATOM     67  C33 non d ame     -30.399  15.893  22.172  0.00  0.00    -0.082 A 
ATOM     68  H51 non d ame     -28.764  15.547  20.822  0.00  0.00     0.083 H 
ATOM     69  C34 non d ame     -31.219  15.362  23.166  0.00  0.00    -0.075 A 
ATOM     70  H52 non d ame     -30.543  16.921  21.840  0.00  0.00     0.083 H 
ATOM     71  H53 non d ame     -32.004  15.974  23.610  0.00  0.00     0.084 H 
ENDBRANCH  58  61
ENDBRANCH  57  58
ENDBRANCH  55  57
ENDBRANCH  52  55
ENDBRANCH  49  52
ENDBRANCH  47  49
BRANCH  47  72
ATOM     72  C24 non d ame     -32.014   7.312  22.930  0.00  0.00    -0.039 C 
ATOM     73  H35 non d ame     -31.178   7.470  22.248  0.00  0.00     0.036 H 
ATOM     74  H36 non d ame     -32.197   6.322  23.348  0.00  0.00     0.036 H 
BRANCH  72  75
ATOM     75  C25 non d ame     -33.345   7.751  22.154  0.00  0.00    -0.001 C 
ATOM     76  C26 non d ame     -34.605   6.803  22.623  0.00  0.00    -0.035 C 
ATOM     77  C27 non d ame     -35.211   6.305  21.519  0.00  0.00     0.085 C 
ATOM     78  H38 non d ame     -34.234   5.914  23.133  0.00  0.00     0.036 H 
ATOM     79  H39 non d ame     -35.380   7.413  23.086  0.00  0.00     0.036 H 
ATOM     80  N5  non d ame     -34.285   6.561  20.354  0.00  0.00    -0.049 N 
ATOM     81  H40 non d ame     -35.284   5.230  21.686  0.00  0.00     0.075 H 
ATOM     82  H41 non d ame     -36.115   6.899  21.391  0.00  0.00     0.075 H 
ATOM     83  C28 non d ame     -33.201   7.637  20.876  0.00  0.00     0.193 C 
ATOM     84  H42 non d ame     -33.810   5.689  20.169  0.00  0.00     0.280 HD
ATOM     85  H43 non d ame     -34.846   6.993  19.633  0.00  0.00     0.280 HD
ATOM     86  H44 non d ame     -33.269   8.682  20.575  0.00  0.00     0.129 H 
ATOM     87  H37 non d ame     -33.501   8.829  22.179  0.00  0.00     0.046 H 
BRANCH  83  88
ATOM     88  O6  non d ame     -31.882   7.221  20.518  0.00  0.00    -0.369 OA
ATOM     89  H45 non d ame     -31.710   6.350  20.885  0.00  0.00     0.212 HD
ENDBRANCH  83  88
ENDBRANCH  72  75
ENDBRANCH  47  72
ENDBRANCH  45  47
ENDBRANCH   1  43
BRANCH   1  90
ATOM     90  C16 non d ame     -35.282   6.740  26.476  0.00  0.00    -0.035 C 
ATOM     91  H21 non d ame     -35.893   7.639  26.545  0.00  0.00     0.037 H 
ATOM     92  H22 non d ame     -34.966   6.368  25.501  0.00  0.00     0.037 H 
BRANCH  90  93
ATOM     93  C17 non d ame     -36.111   5.593  27.138  0.00  0.00    -0.059 C 
ATOM     94  H23 non d ame     -36.614   6.010  28.010  0.00  0.00     0.038 H 
BRANCH  93  95
ATOM     95  C18 non d ame     -37.208   5.030  26.178  0.00  0.00    -0.073 C 
ATOM     96  H24 non d ame     -36.803   4.188  25.618  0.00  0.00     0.028 H 
ATOM     97  H25 non d ame     -38.066   4.698  26.762  0.00  0.00     0.028 H 
ATOM     98  H26 non d ame     -37.520   5.811  25.485  0.00  0.00     0.028 H 
ENDBRANCH  93  95
BRANCH  93  99
ATOM     99  C19 non d ame     -35.194   4.472  27.634  0.00  0.00    -0.073 C 
ATOM    100  H27 non d ame     -35.779   3.564  27.783  0.00  0.00     0.028 H 
ATOM    101  H28 non d ame     -34.415   4.285  26.895  0.00  0.00     0.028 H 
ATOM    102  H29 non d ame     -34.735   4.768  28.577  0.00  0.00     0.028 H 
ENDBRANCH  93  99
ENDBRANCH  90  93
ENDBRANCH   1  90
TORSDOF 26
ENDMDL
MODEL 17
REMARK VINA RESULT:      -5.8      3.273      6.175
REMARK  26 active torsions:
REMARK  status: ('A' for Active; 'I' for Inactive)
REMARK    1  A    between atoms: C2_2  and  C3_3 
REMARK    2  A    between atoms: C4_6  and  C5_7 
REMARK       I    between atoms: C5_7  and  N2_9 
REMARK    3  A    between atoms: N2_9  and  C6_10 
REMARK    4  A    between atoms: C6_10  and  C7_11 
REMARK    5  A    between atoms: C6_10  and  C8_13 
REMARK       I    between atoms: C7_11  and  N3_14 
REMARK    6  A    between atoms: N3_14  and  C9_15 
REMARK    7  A    between atoms: C9_15  and  C10_16 
REMARK    8  A    between atoms: C9_15  and  C11_18 
REMARK       I    between atoms: C10_16  and  N4_21 
REMARK    9  A    between atoms: C11_18  and  C12_19 
REMARK   10  A    between atoms: C11_18  and  C13_20 
REMARK   11  A    between atoms: N4_21  and  C14_22 
REMARK   12  A    between atoms: C14_22  and  C15_23 
REMARK   13  A    between atoms: C14_22  and  C16_25 
REMARK       I    between atoms: C15_23  and  N6_40 
REMARK   14  A    between atoms: C16_25  and  C17_26 
REMARK   15  A    between atoms: C17_26  and  C18_27 
REMARK   16  A    between atoms: C17_26  and  C19_28 
REMARK   17  A    between atoms: C20_29  and  C21_30 
REMARK   18  A    between atoms: C20_29  and  C24_33 
REMARK   19  A    between atoms: C20_29  and  N6_40 
REMARK   20  A    between atoms: C21_30  and  C22_31 
REMARK   21  A    between atoms: C22_31  and  C23_32 
REMARK   22  A    between atoms: C23_32  and  O8_43 
REMARK   23  A    between atoms: C24_33  and  C25_34 
REMARK   24  A    between atoms: C28_38  and  O6_39 
REMARK   25  A    between atoms: C29_42  and  O8_43 
REMARK   26  A    between atoms: C29_42  and  C35_49 
ROOT
ATOM      1  C14 non d ame     -36.797  11.445  26.998  0.00  0.00     0.089 C 
ATOM      2  H20 non d ame     -37.546  11.876  26.333  0.00  0.00     0.087 H 
ENDROOT
BRANCH   1   3
ATOM      3  N4  non d ame     -35.781  12.460  27.231  0.00  0.00    -0.346 N 
ATOM      4  C10 non d ame     -36.056  13.904  26.895  0.00  0.00     0.241 C 
ATOM      5  O4  non d ame     -37.102  14.225  26.435  0.00  0.00    -0.271 OA
ATOM      6  H19 non d ame     -34.896  12.167  27.621  0.00  0.00     0.163 HD
BRANCH   4   7
ATOM      7  C9  non d ame     -34.995  14.943  27.148  0.00  0.00     0.092 C 
ATOM      8  H11 non d ame     -34.966  15.174  28.213  0.00  0.00     0.088 H 
BRANCH   7   9
ATOM      9  N3  non d ame     -33.682  14.399  26.787  0.00  0.00    -0.346 N 
ATOM     10  C7  non d ame     -32.665  14.241  27.798  0.00  0.00     0.240 C 
ATOM     11  O3  non d ame     -32.886  14.547  28.906  0.00  0.00    -0.271 OA
ATOM     12  H10 non d ame     -33.477  14.132  25.835  0.00  0.00     0.163 HD
BRANCH  10  13
ATOM     13  C6  non d ame     -31.269  13.665  27.407  0.00  0.00     0.086 C 
ATOM     14  H6  non d ame     -31.308  12.608  27.142  0.00  0.00     0.086 H 
BRANCH  13  15
ATOM     15  N2  non d ame     -30.780  14.370  26.233  0.00  0.00    -0.343 N 
ATOM     16  C5  non d ame     -31.045  13.823  24.901  0.00  0.00     0.273 C 
ATOM     17  O2  non d ame     -31.651  12.814  24.784  0.00  0.00    -0.266 OA
ATOM     18  H5  non d ame     -30.261  15.229  26.343  0.00  0.00     0.163 HD
BRANCH  16  19
ATOM     19  C4  non d ame     -30.536  14.558  23.651  0.00  0.00     0.154 A 
ATOM     20  C1  non d ame     -31.313  15.015  22.540  0.00  0.00    -0.017 A 
ATOM     21  C2  non d ame     -30.380  15.621  21.669  0.00  0.00     0.077 A 
ATOM     22  H1  non d ame     -32.388  14.922  22.389  0.00  0.00     0.091 H 
ATOM     23  O1  non d ame     -29.208  15.520  22.225  0.00  0.00    -0.218 OA
ATOM     24  N1  non d ame     -29.273  14.903  23.382  0.00  0.00    -0.123 NA
BRANCH  21  25
ATOM     25  C3  non d ame     -30.690  16.273  20.328  0.00  0.00    -0.029 C 
ATOM     26  H2  non d ame     -30.348  15.625  19.521  0.00  0.00     0.036 H 
ATOM     27  H3  non d ame     -31.765  16.427  20.239  0.00  0.00     0.036 H 
ATOM     28  H4  non d ame     -30.179  17.234  20.264  0.00  0.00     0.036 H 
ENDBRANCH  21  25
ENDBRANCH  16  19
ENDBRANCH  13  15
BRANCH  13  29
ATOM     29  C8  non d ame     -30.309  13.845  28.555  0.00  0.00    -0.049 C 
ATOM     30  H7  non d ame     -29.640  14.679  28.342  0.00  0.00     0.030 H 
ATOM     31  H8  non d ame     -30.868  14.051  29.467  0.00  0.00     0.030 H 
ATOM     32  H9  non d ame     -29.723  12.934  28.685  0.00  0.00     0.030 H 
ENDBRANCH  13  29
ENDBRANCH  10  13
ENDBRANCH   7   9
BRANCH   7  33
ATOM     33  C11 non d ame     -35.287  16.204  26.283  0.00  0.00    -0.033 C 
ATOM     34  H12 non d ame     -36.182  16.000  25.696  0.00  0.00     0.042 H 
BRANCH  33  35
ATOM     35  C12 non d ame     -35.586  17.449  27.176  0.00  0.00    -0.071 C 
ATOM     36  H13 non d ame     -36.543  17.882  26.887  0.00  0.00     0.028 H 
ATOM     37  H14 non d ame     -35.625  17.145  28.221  0.00  0.00     0.028 H 
ATOM     38  H15 non d ame     -34.798  18.190  27.042  0.00  0.00     0.028 H 
ENDBRANCH  33  35
BRANCH  33  39
ATOM     39  C13 non d ame     -34.112  16.487  25.292  0.00  0.00    -0.071 C 
ATOM     40  H16 non d ame     -34.236  17.478  24.856  0.00  0.00     0.028 H 
ATOM     41  H17 non d ame     -33.164  16.441  25.830  0.00  0.00     0.028 H 
ATOM     42  H18 non d ame     -34.117  15.737  24.501  0.00  0.00     0.028 H 
ENDBRANCH  33  39
ENDBRANCH   7  33
ENDBRANCH   4   7
ENDBRANCH   1   3
BRANCH   1  43
ATOM     43  C15 non d ame     -37.400  11.024  28.368  0.00  0.00     0.240 C 
ATOM     44  O5  non d ame     -38.426  11.501  28.734  0.00  0.00    -0.271 OA
ATOM     45  N6  non d ame     -36.704  10.019  29.221  0.00  0.00    -0.355 N 
ATOM     46  H46 non d ame     -35.835   9.603  28.919  0.00  0.00     0.162 HD
BRANCH  45  47
ATOM     47  C20 non d ame     -37.292   9.628  30.521  0.00  0.00     0.013 C 
ATOM     48  H30 non d ame     -38.355   9.868  30.494  0.00  0.00     0.072 H 
BRANCH  47  49
ATOM     49  C21 non d ame     -36.615  10.404  31.628  0.00  0.00    -0.038 C 
ATOM     50  H31 non d ame     -36.434  11.399  31.223  0.00  0.00     0.036 H 
ATOM     51  H32 non d ame     -37.251  10.279  32.505  0.00  0.00     0.036 H 
BRANCH  49  52
ATOM     52  C22 non d ame     -35.233   9.828  32.005  0.00  0.00     0.018 C 
ATOM     53  H33 non d ame     -35.162   9.917  33.089  0.00  0.00     0.048 H 
ATOM     54  H34 non d ame     -35.184   8.846  31.534  0.00  0.00     0.048 H 
BRANCH  52  55
ATOM     55  C23 non d ame     -34.039  10.639  31.430  0.00  0.00     0.259 C 
ATOM     56  O7  non d ame     -33.882  11.777  31.731  0.00  0.00    -0.265 OA
BRANCH  55  57
ATOM     57  O8  non d ame     -33.139  10.008  30.527  0.00  0.00    -0.317 OA
BRANCH  57  58
ATOM     58  C29 non d ame     -32.962  10.712  29.295  0.00  0.00     0.052 C 
ATOM     59  H47 non d ame     -33.820  11.379  29.210  0.00  0.00     0.082 H 
ATOM     60  H48 non d ame     -31.954  11.125  29.333  0.00  0.00     0.082 H 
BRANCH  58  61
ATOM     61  C35 non d ame     -33.026   9.679  28.139  0.00  0.00    -0.034 A 
ATOM     62  C30 non d ame     -33.615   8.436  28.347  0.00  0.00    -0.075 A 
ATOM     63  C31 non d ame     -33.672   7.508  27.309  0.00  0.00    -0.082 A 
ATOM     64  H49 non d ame     -34.032   8.189  29.324  0.00  0.00     0.084 H 
ATOM     65  C32 non d ame     -33.135   7.825  26.058  0.00  0.00    -0.083 A 
ATOM     66  H50 non d ame     -34.136   6.535  27.475  0.00  0.00     0.083 H 
ATOM     67  C33 non d ame     -32.545   9.065  25.856  0.00  0.00    -0.082 A 
ATOM     68  H51 non d ame     -33.176   7.105  25.241  0.00  0.00     0.083 H 
ATOM     69  C34 non d ame     -32.487   9.997  26.890  0.00  0.00    -0.075 A 
ATOM     70  H52 non d ame     -32.124   9.309  24.880  0.00  0.00     0.083 H 
ATOM     71  H53 non d ame     -32.023  10.969  26.723  0.00  0.00     0.084 H 
ENDBRANCH  58  61
ENDBRANCH  57  58
ENDBRANCH  55  57
ENDBRANCH  52  55
ENDBRANCH  49  52
ENDBRANCH  47  49
BRANCH  47  72
ATOM     72  C24 non d ame     -37.091   8.131  30.750  0.00  0.00    -0.039 C 
ATOM     73  H35 non d ame     -36.084   8.033  31.157  0.00  0.00     0.036 H 
ATOM     74  H36 non d ame     -37.950   7.810  31.338  0.00  0.00     0.036 H 
BRANCH  72  75
ATOM     75  C25 non d ame     -37.126   7.311  29.374  0.00  0.00    -0.001 C 
ATOM     76  C26 non d ame     -38.683   7.094  28.892  0.00  0.00    -0.035 C 
ATOM     77  C27 non d ame     -38.879   5.780  28.630  0.00  0.00     0.085 C 
ATOM     78  H38 non d ame     -39.362   7.293  29.720  0.00  0.00     0.036 H 
ATOM     79  H39 non d ame     -38.846   7.573  27.926  0.00  0.00     0.036 H 
ATOM     80  N5  non d ame     -37.697   5.034  29.201  0.00  0.00    -0.049 N 
ATOM     81  H40 non d ame     -39.776   5.503  29.184  0.00  0.00     0.075 H 
ATOM     82  H41 non d ame     -38.862   5.694  27.544  0.00  0.00     0.075 H 
ATOM     83  C28 non d ame     -36.573   6.152  29.506  0.00  0.00     0.193 C 
ATOM     84  H42 non d ame     -38.005   4.639  30.078  0.00  0.00     0.280 HD
ATOM     85  H43 non d ame     -37.359   4.430  28.466  0.00  0.00     0.280 HD
ATOM     86  H44 non d ame     -35.713   6.267  28.847  0.00  0.00     0.129 H 
ATOM     87  H37 non d ame     -36.430   7.712  28.637  0.00  0.00     0.046 H 
BRANCH  83  88
ATOM     88  O6  non d ame     -36.030   5.960  30.814  0.00  0.00    -0.369 OA
ATOM     89  H45 non d ame     -35.616   5.095  30.865  0.00  0.00     0.212 HD
ENDBRANCH  83  88
ENDBRANCH  72  75
ENDBRANCH  47  72
ENDBRANCH  45  47
ENDBRANCH   1  43
BRANCH   1  90
ATOM     90  C16 non d ame     -36.151  10.240  26.332  0.00  0.00    -0.035 C 
ATOM     91  H21 non d ame     -35.423  10.652  25.634  0.00  0.00     0.037 H 
ATOM     92  H22 non d ame     -35.819   9.601  27.151  0.00  0.00     0.037 H 
BRANCH  90  93
ATOM     93  C17 non d ame     -37.144   9.387  25.481  0.00  0.00    -0.059 C 
ATOM     94  H23 non d ame     -38.152   9.598  25.838  0.00  0.00     0.038 H 
BRANCH  93  95
ATOM     95  C18 non d ame     -37.089   9.757  23.964  0.00  0.00    -0.073 C 
ATOM     96  H24 non d ame     -36.212   9.296  23.509  0.00  0.00     0.028 H 
ATOM     97  H25 non d ame     -37.988   9.393  23.468  0.00  0.00     0.028 H 
ATOM     98  H26 non d ame     -37.027  10.839  23.856  0.00  0.00     0.028 H 
ENDBRANCH  93  95
BRANCH  93  99
ATOM     99  C19 non d ame     -36.893   7.890  25.686  0.00  0.00    -0.073 C 
ATOM    100  H27 non d ame     -36.153   7.750  26.474  0.00  0.00     0.028 H 
ATOM    101  H28 non d ame     -37.825   7.401  25.972  0.00  0.00     0.028 H 
ATOM    102  H29 non d ame     -36.525   7.453  24.758  0.00  0.00     0.028 H 
ENDBRANCH  93  99
ENDBRANCH  90  93
ENDBRANCH   1  90
TORSDOF 26
ENDMDL
MODEL 18
REMARK VINA RESULT:      -5.8      3.268      7.991
REMARK  26 active torsions:
REMARK  status: ('A' for Active; 'I' for Inactive)
REMARK    1  A    between atoms: C2_2  and  C3_3 
REMARK    2  A    between atoms: C4_6  and  C5_7 
REMARK       I    between atoms: C5_7  and  N2_9 
REMARK    3  A    between atoms: N2_9  and  C6_10 
REMARK    4  A    between atoms: C6_10  and  C7_11 
REMARK    5  A    between atoms: C6_10  and  C8_13 
REMARK       I    between atoms: C7_11  and  N3_14 
REMARK    6  A    between atoms: N3_14  and  C9_15 
REMARK    7  A    between atoms: C9_15  and  C10_16 
REMARK    8  A    between atoms: C9_15  and  C11_18 
REMARK       I    between atoms: C10_16  and  N4_21 
REMARK    9  A    between atoms: C11_18  and  C12_19 
REMARK   10  A    between atoms: C11_18  and  C13_20 
REMARK   11  A    between atoms: N4_21  and  C14_22 
REMARK   12  A    between atoms: C14_22  and  C15_23 
REMARK   13  A    between atoms: C14_22  and  C16_25 
REMARK       I    between atoms: C15_23  and  N6_40 
REMARK   14  A    between atoms: C16_25  and  C17_26 
REMARK   15  A    between atoms: C17_26  and  C18_27 
REMARK   16  A    between atoms: C17_26  and  C19_28 
REMARK   17  A    between atoms: C20_29  and  C21_30 
REMARK   18  A    between atoms: C20_29  and  C24_33 
REMARK   19  A    between atoms: C20_29  and  N6_40 
REMARK   20  A    between atoms: C21_30  and  C22_31 
REMARK   21  A    between atoms: C22_31  and  C23_32 
REMARK   22  A    between atoms: C23_32  and  O8_43 
REMARK   23  A    between atoms: C24_33  and  C25_34 
REMARK   24  A    between atoms: C28_38  and  O6_39 
REMARK   25  A    between atoms: C29_42  and  O8_43 
REMARK   26  A    between atoms: C29_42  and  C35_49 
ROOT
ATOM      1  C14 non d ame     -32.648  10.933  30.034  0.00  0.00     0.089 C 
ATOM      2  H20 non d ame     -31.703  10.414  29.871  0.00  0.00     0.087 H 
ENDROOT
BRANCH   1   3
ATOM      3  N4  non d ame     -33.170  11.312  28.729  0.00  0.00    -0.346 N 
ATOM      4  C10 non d ame     -32.881  10.463  27.517  0.00  0.00     0.241 C 
ATOM      5  O4  non d ame     -32.223   9.480  27.615  0.00  0.00    -0.271 OA
ATOM      6  H19 non d ame     -33.726  12.154  28.666  0.00  0.00     0.163 HD
BRANCH   4   7
ATOM      7  C9  non d ame     -33.434  10.868  26.176  0.00  0.00     0.092 C 
ATOM      8  H11 non d ame     -34.511  11.015  26.261  0.00  0.00     0.088 H 
BRANCH   7   9
ATOM      9  N3  non d ame     -32.852  12.153  25.774  0.00  0.00    -0.346 N 
ATOM     10  C7  non d ame     -33.509  13.385  26.136  0.00  0.00     0.240 C 
ATOM     11  O3  non d ame     -34.506  13.361  26.748  0.00  0.00    -0.271 OA
ATOM     12  H10 non d ame     -31.993  12.189  25.244  0.00  0.00     0.163 HD
BRANCH  10  13
ATOM     13  C6  non d ame     -32.887  14.749  25.703  0.00  0.00     0.086 C 
ATOM     14  H6  non d ame     -33.151  15.028  24.683  0.00  0.00     0.086 H 
BRANCH  13  15
ATOM     15  N2  non d ame     -33.401  15.797  26.568  0.00  0.00    -0.343 N 
ATOM     16  C5  non d ame     -34.488  16.656  26.094  0.00  0.00     0.273 C 
ATOM     17  O2  non d ame     -34.941  16.497  25.013  0.00  0.00    -0.266 OA
ATOM     18  H5  non d ame     -33.007  15.928  27.489  0.00  0.00     0.163 HD
BRANCH  16  19
ATOM     19  C4  non d ame     -35.043  17.767  26.998  0.00  0.00     0.154 A 
ATOM     20  C1  non d ame     -35.723  18.957  26.588  0.00  0.00    -0.017 A 
ATOM     21  C2  non d ame     -36.023  19.637  27.790  0.00  0.00     0.077 A 
ATOM     22  H1  non d ame     -35.963  19.278  25.574  0.00  0.00     0.091 H 
ATOM     23  O1  non d ame     -35.565  18.914  28.769  0.00  0.00    -0.218 OA
ATOM     24  N1  non d ame     -34.988  17.818  28.332  0.00  0.00    -0.123 NA
BRANCH  21  25
ATOM     25  C3  non d ame     -36.748  20.971  27.914  0.00  0.00    -0.029 C 
ATOM     26  H2  non d ame     -36.402  21.491  28.807  0.00  0.00     0.036 H 
ATOM     27  H3  non d ame     -36.541  21.580  27.035  0.00  0.00     0.036 H 
ATOM     28  H4  non d ame     -37.821  20.795  27.989  0.00  0.00     0.036 H 
ENDBRANCH  21  25
ENDBRANCH  16  19
ENDBRANCH  13  15
BRANCH  13  29
ATOM     29  C8  non d ame     -31.385  14.677  25.814  0.00  0.00    -0.049 C 
ATOM     30  H7  non d ame     -31.072  15.084  26.776  0.00  0.00     0.030 H 
ATOM     31  H8  non d ame     -31.064  13.639  25.738  0.00  0.00     0.030 H 
ATOM     32  H9  non d ame     -30.933  15.258  25.010  0.00  0.00     0.030 H 
ENDBRANCH  13  29
ENDBRANCH  10  13
ENDBRANCH   7   9
BRANCH   7  33
ATOM     33  C11 non d ame     -33.073   9.785  25.117  0.00  0.00    -0.033 C 
ATOM     34  H12 non d ame     -32.706   8.910  25.654  0.00  0.00     0.042 H 
BRANCH  33  35
ATOM     35  C12 non d ame     -34.329   9.343  24.304  0.00  0.00    -0.071 C 
ATOM     36  H13 non d ame     -35.145  10.042  24.488  0.00  0.00     0.028 H 
ATOM     37  H14 non d ame     -34.090   9.335  23.241  0.00  0.00     0.028 H 
ATOM     38  H15 non d ame     -34.631   8.343  24.617  0.00  0.00     0.028 H 
ENDBRANCH  33  35
BRANCH  33  39
ATOM     39  C13 non d ame     -31.933  10.285  24.172  0.00  0.00    -0.071 C 
ATOM     40  H16 non d ame     -32.359  10.574  23.211  0.00  0.00     0.028 H 
ATOM     41  H17 non d ame     -31.437  11.144  24.624  0.00  0.00     0.028 H 
ATOM     42  H18 non d ame     -31.208   9.485  24.023  0.00  0.00     0.028 H 
ENDBRANCH  33  39
ENDBRANCH   7  33
ENDBRANCH   4   7
ENDBRANCH   1   3
BRANCH   1  43
ATOM     43  C15 non d ame     -33.698  10.031  30.744  0.00  0.00     0.240 C 
ATOM     44  O5  non d ame     -34.160  10.370  31.785  0.00  0.00    -0.271 OA
ATOM     45  N6  non d ame     -34.134   8.749  30.122  0.00  0.00    -0.355 N 
ATOM     46  H46 non d ame     -33.752   8.452  29.235  0.00  0.00     0.162 HD
BRANCH  45  47
ATOM     47  C20 non d ame     -35.134   7.903  30.809  0.00  0.00     0.013 C 
ATOM     48  H30 non d ame     -35.078   8.118  31.876  0.00  0.00     0.072 H 
BRANCH  47  49
ATOM     49  C21 non d ame     -34.815   6.447  30.558  0.00  0.00    -0.038 C 
ATOM     50  H31 non d ame     -33.784   6.310  30.885  0.00  0.00     0.036 H 
ATOM     51  H32 non d ame     -35.618   5.884  31.033  0.00  0.00     0.036 H 
BRANCH  49  52
ATOM     52  C22 non d ame     -34.850   6.076  29.059  0.00  0.00     0.018 C 
ATOM     53  H33 non d ame     -35.826   5.623  28.890  0.00  0.00     0.048 H 
ATOM     54  H34 non d ame     -34.570   6.984  28.524  0.00  0.00     0.048 H 
BRANCH  52  55
ATOM     55  C23 non d ame     -33.803   5.001  28.655  0.00  0.00     0.259 C 
ATOM     56  O7  non d ame     -33.332   4.281  29.475  0.00  0.00    -0.265 OA
BRANCH  55  57
ATOM     57  O8  non d ame     -33.403   4.895  27.295  0.00  0.00    -0.317 OA
BRANCH  57  58
ATOM     58  C29 non d ame     -32.457   5.887  26.886  0.00  0.00     0.052 C 
ATOM     59  H47 non d ame     -32.809   6.824  27.317  0.00  0.00     0.082 H 
ATOM     60  H48 non d ame     -31.479   5.493  27.163  0.00  0.00     0.082 H 
BRANCH  58  61
ATOM     61  C35 non d ame     -32.521   6.002  25.340  0.00  0.00    -0.034 A 
ATOM     62  C30 non d ame     -31.443   6.528  24.635  0.00  0.00    -0.075 A 
ATOM     63  C31 non d ame     -31.500   6.632  23.246  0.00  0.00    -0.082 A 
ATOM     64  H49 non d ame     -30.553   6.860  25.172  0.00  0.00     0.084 H 
ATOM     65  C32 non d ame     -32.642   6.208  22.562  0.00  0.00    -0.083 A 
ATOM     66  H50 non d ame     -30.653   7.043  22.697  0.00  0.00     0.083 H 
ATOM     67  C33 non d ame     -33.717   5.687  23.269  0.00  0.00    -0.082 A 
ATOM     68  H51 non d ame     -32.695   6.285  21.476  0.00  0.00     0.083 H 
ATOM     69  C34 non d ame     -33.663   5.580  24.657  0.00  0.00    -0.075 A 
ATOM     70  H52 non d ame     -34.607   5.360  22.732  0.00  0.00     0.083 H 
ATOM     71  H53 non d ame     -34.511   5.168  25.206  0.00  0.00     0.084 H 
ENDBRANCH  58  61
ENDBRANCH  57  58
ENDBRANCH  55  57
ENDBRANCH  52  55
ENDBRANCH  49  52
ENDBRANCH  47  49
BRANCH  47  72
ATOM     72  C24 non d ame     -36.530   8.219  30.277  0.00  0.00    -0.039 C 
ATOM     73  H35 non d ame     -36.372   8.861  29.410  0.00  0.00     0.036 H 
ATOM     74  H36 non d ame     -37.020   7.253  30.157  0.00  0.00     0.036 H 
BRANCH  72  75
ATOM     75  C25 non d ame     -37.392   9.058  31.336  0.00  0.00    -0.001 C 
ATOM     76  C26 non d ame     -38.929   8.477  31.392  0.00  0.00    -0.035 C 
ATOM     77  C27 non d ame     -39.792   9.509  31.237  0.00  0.00     0.085 C 
ATOM     78  H38 non d ame     -39.124   7.849  30.523  0.00  0.00     0.036 H 
ATOM     79  H39 non d ame     -39.152   8.107  32.393  0.00  0.00     0.036 H 
ATOM     80  N5  non d ame     -38.986  10.690  30.753  0.00  0.00    -0.049 N 
ATOM     81  H40 non d ame     -40.478   9.199  30.448  0.00  0.00     0.075 H 
ATOM     82  H41 non d ame     -40.172   9.724  32.235  0.00  0.00     0.075 H 
ATOM     83  C28 non d ame     -37.439  10.308  31.014  0.00  0.00     0.193 C 
ATOM     84  H42 non d ame     -39.138  10.752  29.757  0.00  0.00     0.280 HD
ATOM     85  H43 non d ame     -39.231  11.467  31.351  0.00  0.00     0.280 HD
ATOM     86  H44 non d ame     -36.893  10.748  31.849  0.00  0.00     0.129 H 
ATOM     87  H37 non d ame     -36.873   9.181  32.286  0.00  0.00     0.046 H 
BRANCH  83  88
ATOM     88  O6  non d ame     -36.657  10.596  29.853  0.00  0.00    -0.369 OA
ATOM     89  H45 non d ame     -36.743   9.876  29.224  0.00  0.00     0.212 HD
ENDBRANCH  83  88
ENDBRANCH  72  75
ENDBRANCH  47  72
ENDBRANCH  45  47
ENDBRANCH   1  43
BRANCH   1  90
ATOM     90  C16 non d ame     -32.411  12.188  30.857  0.00  0.00    -0.035 C 
ATOM     91  H21 non d ame     -33.353  12.735  30.828  0.00  0.00     0.037 H 
ATOM     92  H22 non d ame     -32.014  11.838  31.810  0.00  0.00     0.037 H 
BRANCH  90  93
ATOM     93  C17 non d ame     -31.331  13.140  30.252  0.00  0.00    -0.059 C 
ATOM     94  H23 non d ame     -30.769  13.572  31.081  0.00  0.00     0.038 H 
BRANCH  93  95
ATOM     95  C18 non d ame     -30.320  12.378  29.337  0.00  0.00    -0.073 C 
ATOM     96  H24 non d ame     -30.643  11.344  29.221  0.00  0.00     0.028 H 
ATOM     97  H25 non d ame     -30.281  12.857  28.360  0.00  0.00     0.028 H 
ATOM     98  H26 non d ame     -29.330  12.400  29.792  0.00  0.00     0.028 H 
ENDBRANCH  93  95
BRANCH  93  99
ATOM     99  C19 non d ame     -31.985  14.298  29.495  0.00  0.00    -0.073 C 
ATOM    100  H27 non d ame     -32.387  13.933  28.549  0.00  0.00     0.028 H 
ATOM    101  H28 non d ame     -32.793  14.716  30.096  0.00  0.00     0.028 H 
ATOM    102  H29 non d ame     -31.242  15.071  29.299  0.00  0.00     0.028 H 
ENDBRANCH  93  99
ENDBRANCH  90  93
ENDBRANCH   1  90
TORSDOF 26
ENDMDL
MODEL 19
REMARK VINA RESULT:      -5.7      3.042      8.290
REMARK  26 active torsions:
REMARK  status: ('A' for Active; 'I' for Inactive)
REMARK    1  A    between atoms: C2_2  and  C3_3 
REMARK    2  A    between atoms: C4_6  and  C5_7 
REMARK       I    between atoms: C5_7  and  N2_9 
REMARK    3  A    between atoms: N2_9  and  C6_10 
REMARK    4  A    between atoms: C6_10  and  C7_11 
REMARK    5  A    between atoms: C6_10  and  C8_13 
REMARK       I    between atoms: C7_11  and  N3_14 
REMARK    6  A    between atoms: N3_14  and  C9_15 
REMARK    7  A    between atoms: C9_15  and  C10_16 
REMARK    8  A    between atoms: C9_15  and  C11_18 
REMARK       I    between atoms: C10_16  and  N4_21 
REMARK    9  A    between atoms: C11_18  and  C12_19 
REMARK   10  A    between atoms: C11_18  and  C13_20 
REMARK   11  A    between atoms: N4_21  and  C14_22 
REMARK   12  A    between atoms: C14_22  and  C15_23 
REMARK   13  A    between atoms: C14_22  and  C16_25 
REMARK       I    between atoms: C15_23  and  N6_40 
REMARK   14  A    between atoms: C16_25  and  C17_26 
REMARK   15  A    between atoms: C17_26  and  C18_27 
REMARK   16  A    between atoms: C17_26  and  C19_28 
REMARK   17  A    between atoms: C20_29  and  C21_30 
REMARK   18  A    between atoms: C20_29  and  C24_33 
REMARK   19  A    between atoms: C20_29  and  N6_40 
REMARK   20  A    between atoms: C21_30  and  C22_31 
REMARK   21  A    between atoms: C22_31  and  C23_32 
REMARK   22  A    between atoms: C23_32  and  O8_43 
REMARK   23  A    between atoms: C24_33  and  C25_34 
REMARK   24  A    between atoms: C28_38  and  O6_39 
REMARK   25  A    between atoms: C29_42  and  O8_43 
REMARK   26  A    between atoms: C29_42  and  C35_49 
ROOT
ATOM      1  C14 non d ame     -35.674   9.752  29.093  0.00  0.00     0.089 C 
ATOM      2  H20 non d ame     -35.185   8.829  29.406  0.00  0.00     0.087 H 
ENDROOT
BRANCH   1   3
ATOM      3  N4  non d ame     -34.646  10.776  28.981  0.00  0.00    -0.346 N 
ATOM      4  C10 non d ame     -33.239  10.402  28.588  0.00  0.00     0.241 C 
ATOM      5  O4  non d ame     -32.957   9.270  28.370  0.00  0.00    -0.271 OA
ATOM      6  H19 non d ame     -34.906  11.733  29.172  0.00  0.00     0.163 HD
BRANCH   4   7
ATOM      7  C9  non d ame     -32.189  11.476  28.470  0.00  0.00     0.092 C 
ATOM      8  H11 non d ame     -31.225  11.013  28.259  0.00  0.00     0.088 H 
BRANCH   7   9
ATOM      9  N3  non d ame     -32.507  12.350  27.337  0.00  0.00    -0.346 N 
ATOM     10  C7  non d ame     -31.644  12.374  26.182  0.00  0.00     0.240 C 
ATOM     11  O3  non d ame     -30.689  11.699  26.148  0.00  0.00    -0.271 OA
ATOM     12  H10 non d ame     -33.327  12.939  27.352  0.00  0.00     0.163 HD
BRANCH  10  13
ATOM     13  C6  non d ame     -31.987  13.309  24.980  0.00  0.00     0.086 C 
ATOM     14  H6  non d ame     -33.004  13.169  24.614  0.00  0.00     0.086 H 
BRANCH  13  15
ATOM     15  N2  non d ame     -31.887  14.692  25.415  0.00  0.00    -0.343 N 
ATOM     16  C5  non d ame     -33.086  15.533  25.426  0.00  0.00     0.273 C 
ATOM     17  O2  non d ame     -34.125  15.088  25.080  0.00  0.00    -0.266 OA
ATOM     18  H5  non d ame     -30.994  15.065  25.706  0.00  0.00     0.163 HD
BRANCH  16  19
ATOM     19  C4  non d ame     -32.996  16.997  25.885  0.00  0.00     0.154 A 
ATOM     20  C1  non d ame     -34.082  17.900  26.113  0.00  0.00    -0.017 A 
ATOM     21  C2  non d ame     -33.472  19.108  26.518  0.00  0.00     0.077 A 
ATOM     22  H1  non d ame     -35.150  17.708  26.002  0.00  0.00     0.091 H 
ATOM     23  O1  non d ame     -32.186  18.910  26.520  0.00  0.00    -0.218 OA
ATOM     24  N1  non d ame     -31.884  17.686  26.154  0.00  0.00    -0.123 NA
BRANCH  21  25
ATOM     25  C3  non d ame     -34.187  20.401  26.885  0.00  0.00    -0.029 C 
ATOM     26  H2  non d ame     -35.171  20.418  26.416  0.00  0.00     0.036 H 
ATOM     27  H3  non d ame     -34.300  20.458  27.968  0.00  0.00     0.036 H 
ATOM     28  H4  non d ame     -33.603  21.252  26.536  0.00  0.00     0.036 H 
ENDBRANCH  21  25
ENDBRANCH  16  19
ENDBRANCH  13  15
BRANCH  13  29
ATOM     29  C8  non d ame     -31.023  13.052  23.850  0.00  0.00    -0.049 C 
ATOM     30  H7  non d ame     -31.471  13.373  22.910  0.00  0.00     0.030 H 
ATOM     31  H8  non d ame     -30.103  13.611  24.023  0.00  0.00     0.030 H 
ATOM     32  H9  non d ame     -30.797  11.987  23.799  0.00  0.00     0.030 H 
ENDBRANCH  13  29
ENDBRANCH  10  13
ENDBRANCH   7   9
BRANCH   7  33
ATOM     33  C11 non d ame     -32.160  12.318  29.779  0.00  0.00    -0.033 C 
ATOM     34  H12 non d ame     -33.143  12.775  29.898  0.00  0.00     0.042 H 
BRANCH  33  35
ATOM     35  C12 non d ame     -31.906  11.419  31.029  0.00  0.00    -0.071 C 
ATOM     36  H13 non d ame     -31.787  10.382  30.712  0.00  0.00     0.028 H 
ATOM     37  H14 non d ame     -31.001  11.750  31.537  0.00  0.00     0.028 H 
ATOM     38  H15 non d ame     -32.754  11.495  31.709  0.00  0.00     0.028 H 
ENDBRANCH  33  35
BRANCH  33  39
ATOM     39  C13 non d ame     -31.103  13.465  29.683  0.00  0.00    -0.071 C 
ATOM     40  H16 non d ame     -30.207  13.181  30.235  0.00  0.00     0.028 H 
ATOM     41  H17 non d ame     -30.847  13.637  28.637  0.00  0.00     0.028 H 
ATOM     42  H18 non d ame     -31.519  14.379  30.108  0.00  0.00     0.028 H 
ENDBRANCH  33  39
ENDBRANCH   7  33
ENDBRANCH   4   7
ENDBRANCH   1   3
BRANCH   1  43
ATOM     43  C15 non d ame     -36.379   9.604  27.715  0.00  0.00     0.240 C 
ATOM     44  O5  non d ame     -37.539   9.845  27.616  0.00  0.00    -0.271 OA
ATOM     45  N6  non d ame     -35.607   9.171  26.516  0.00  0.00    -0.355 N 
ATOM     46  H46 non d ame     -34.620   8.969  26.587  0.00  0.00     0.162 HD
BRANCH  45  47
ATOM     47  C20 non d ame     -36.292   9.037  25.212  0.00  0.00     0.013 C 
ATOM     48  H30 non d ame     -37.362   8.960  25.402  0.00  0.00     0.072 H 
BRANCH  47  49
ATOM     49  C21 non d ame     -35.800   7.788  24.515  0.00  0.00    -0.038 C 
ATOM     50  H31 non d ame     -36.435   6.979  24.877  0.00  0.00     0.036 H 
ATOM     51  H32 non d ame     -35.780   8.033  23.453  0.00  0.00     0.036 H 
BRANCH  49  52
ATOM     52  C22 non d ame     -34.353   7.415  24.905  0.00  0.00     0.018 C 
ATOM     53  H33 non d ame     -33.766   7.519  23.993  0.00  0.00     0.048 H 
ATOM     54  H34 non d ame     -34.116   8.023  25.778  0.00  0.00     0.048 H 
BRANCH  52  55
ATOM     55  C23 non d ame     -34.187   5.937  25.354  0.00  0.00     0.259 C 
ATOM     56  O7  non d ame     -33.564   5.172  24.693  0.00  0.00    -0.265 OA
BRANCH  55  57
ATOM     57  O8  non d ame     -34.800   5.503  26.563  0.00  0.00    -0.317 OA
BRANCH  57  58
ATOM     58  C29 non d ame     -34.205   6.046  27.745  0.00  0.00     0.052 C 
ATOM     59  H47 non d ame     -33.368   5.388  27.982  0.00  0.00     0.082 H 
ATOM     60  H48 non d ame     -34.025   7.098  27.528  0.00  0.00     0.082 H 
BRANCH  58  61
ATOM     61  C35 non d ame     -35.245   5.951  28.892  0.00  0.00    -0.034 A 
ATOM     62  C30 non d ame     -34.819   5.829  30.211  0.00  0.00    -0.075 A 
ATOM     63  C31 non d ame     -35.754   5.744  31.241  0.00  0.00    -0.082 A 
ATOM     64  H49 non d ame     -33.753   5.800  30.437  0.00  0.00     0.084 H 
ATOM     65  C32 non d ame     -37.120   5.778  30.949  0.00  0.00    -0.083 A 
ATOM     66  H50 non d ame     -35.417   5.650  32.274  0.00  0.00     0.083 H 
ATOM     67  C33 non d ame     -37.541   5.896  29.631  0.00  0.00    -0.082 A 
ATOM     68  H51 non d ame     -37.858   5.712  31.749  0.00  0.00     0.083 H 
ATOM     69  C34 non d ame     -36.610   5.984  28.598  0.00  0.00    -0.075 A 
ATOM     70  H52 non d ame     -38.607   5.920  29.406  0.00  0.00     0.083 H 
ATOM     71  H53 non d ame     -36.948   6.078  27.566  0.00  0.00     0.084 H 
ENDBRANCH  58  61
ENDBRANCH  57  58
ENDBRANCH  55  57
ENDBRANCH  52  55
ENDBRANCH  49  52
ENDBRANCH  47  49
BRANCH  47  72
ATOM     72  C24 non d ame     -35.993  10.257  24.343  0.00  0.00    -0.039 C 
ATOM     73  H35 non d ame     -35.026  10.627  24.685  0.00  0.00     0.036 H 
ATOM     74  H36 non d ame     -36.114   9.918  23.315  0.00  0.00     0.036 H 
BRANCH  72  75
ATOM     75  C25 non d ame     -37.058  11.430  24.582  0.00  0.00    -0.001 C 
ATOM     76  C26 non d ame     -37.731  11.875  23.149  0.00  0.00    -0.035 C 
ATOM     77  C27 non d ame     -37.636  13.220  23.022  0.00  0.00     0.085 C 
ATOM     78  H38 non d ame     -37.132  11.497  22.321  0.00  0.00     0.036 H 
ATOM     79  H39 non d ame     -38.807  11.696  23.170  0.00  0.00     0.036 H 
ATOM     80  N5  non d ame     -36.671  13.697  24.080  0.00  0.00    -0.049 N 
ATOM     81  H40 non d ame     -37.197  13.388  22.038  0.00  0.00     0.075 H 
ATOM     82  H41 non d ame     -38.630  13.605  23.248  0.00  0.00     0.075 H 
ATOM     83  C28 non d ame     -36.501  12.467  25.112  0.00  0.00     0.193 C 
ATOM     84  H42 non d ame     -35.788  13.850  23.614  0.00  0.00     0.280 HD
ATOM     85  H43 non d ame     -37.128  14.459  24.560  0.00  0.00     0.280 HD
ATOM     86  H44 non d ame     -36.998  12.485  26.082  0.00  0.00     0.129 H 
ATOM     87  H37 non d ame     -37.741  11.207  25.403  0.00  0.00     0.046 H 
BRANCH  83  88
ATOM     88  O6  non d ame     -35.118  12.250  25.396  0.00  0.00    -0.369 OA
ATOM     89  H45 non d ame     -34.638  12.122  24.574  0.00  0.00     0.212 HD
ENDBRANCH  83  88
ENDBRANCH  72  75
ENDBRANCH  47  72
ENDBRANCH  45  47
ENDBRANCH   1  43
BRANCH   1  90
ATOM     90  C16 non d ame     -36.687  10.179  30.143  0.00  0.00    -0.035 C 
ATOM     91  H21 non d ame     -36.284  11.094  30.577  0.00  0.00     0.037 H 
ATOM     92  H22 non d ame     -37.647  10.197  29.627  0.00  0.00     0.037 H 
BRANCH  90  93
ATOM     93  C17 non d ame     -36.837   9.163  31.320  0.00  0.00    -0.059 C 
ATOM     94  H23 non d ame     -36.535   8.183  30.951  0.00  0.00     0.038 H 
BRANCH  93  95
ATOM     95  C18 non d ame     -35.916   9.522  32.530  0.00  0.00    -0.073 C 
ATOM     96  H24 non d ame     -34.889   9.633  32.184  0.00  0.00     0.028 H 
ATOM     97  H25 non d ame     -36.252  10.457  32.977  0.00  0.00     0.028 H 
ATOM     98  H26 non d ame     -35.965   8.726  33.272  0.00  0.00     0.028 H 
ENDBRANCH  93  95
BRANCH  93  99
ATOM     99  C19 non d ame     -38.298   9.051  31.762  0.00  0.00    -0.073 C 
ATOM    100  H27 non d ame     -38.948   9.100  30.888  0.00  0.00     0.028 H 
ATOM    101  H28 non d ame     -38.452   8.101  32.275  0.00  0.00     0.028 H 
ATOM    102  H29 non d ame     -38.537   9.871  32.439  0.00  0.00     0.028 H 
ENDBRANCH  93  99
ENDBRANCH  90  93
ENDBRANCH   1  90
TORSDOF 26
ENDMDL
MODEL 20
REMARK VINA RESULT:      -5.7      3.498      8.346
REMARK  26 active torsions:
REMARK  status: ('A' for Active; 'I' for Inactive)
REMARK    1  A    between atoms: C2_2  and  C3_3 
REMARK    2  A    between atoms: C4_6  and  C5_7 
REMARK       I    between atoms: C5_7  and  N2_9 
REMARK    3  A    between atoms: N2_9  and  C6_10 
REMARK    4  A    between atoms: C6_10  and  C7_11 
REMARK    5  A    between atoms: C6_10  and  C8_13 
REMARK       I    between atoms: C7_11  and  N3_14 
REMARK    6  A    between atoms: N3_14  and  C9_15 
REMARK    7  A    between atoms: C9_15  and  C10_16 
REMARK    8  A    between atoms: C9_15  and  C11_18 
REMARK       I    between atoms: C10_16  and  N4_21 
REMARK    9  A    between atoms: C11_18  and  C12_19 
REMARK   10  A    between atoms: C11_18  and  C13_20 
REMARK   11  A    between atoms: N4_21  and  C14_22 
REMARK   12  A    between atoms: C14_22  and  C15_23 
REMARK   13  A    between atoms: C14_22  and  C16_25 
REMARK       I    between atoms: C15_23  and  N6_40 
REMARK   14  A    between atoms: C16_25  and  C17_26 
REMARK   15  A    between atoms: C17_26  and  C18_27 
REMARK   16  A    between atoms: C17_26  and  C19_28 
REMARK   17  A    between atoms: C20_29  and  C21_30 
REMARK   18  A    between atoms: C20_29  and  C24_33 
REMARK   19  A    between atoms: C20_29  and  N6_40 
REMARK   20  A    between atoms: C21_30  and  C22_31 
REMARK   21  A    between atoms: C22_31  and  C23_32 
REMARK   22  A    between atoms: C23_32  and  O8_43 
REMARK   23  A    between atoms: C24_33  and  C25_34 
REMARK   24  A    between atoms: C28_38  and  O6_39 
REMARK   25  A    between atoms: C29_42  and  O8_43 
REMARK   26  A    between atoms: C29_42  and  C35_49 
ROOT
ATOM      1  C14 non d ame     -32.807   8.713  25.198  0.00  0.00     0.089 C 
ATOM      2  H20 non d ame     -31.764   8.413  25.304  0.00  0.00     0.087 H 
ENDROOT
BRANCH   1   3
ATOM      3  N4  non d ame     -33.613   7.775  25.964  0.00  0.00    -0.346 N 
ATOM      4  C10 non d ame     -32.979   6.920  27.032  0.00  0.00     0.241 C 
ATOM      5  O4  non d ame     -31.816   7.003  27.256  0.00  0.00    -0.271 OA
ATOM      6  H19 non d ame     -34.600   7.717  25.757  0.00  0.00     0.163 HD
BRANCH   4   7
ATOM      7  C9  non d ame     -33.830   5.958  27.819  0.00  0.00     0.092 C 
ATOM      8  H11 non d ame     -33.243   5.551  28.642  0.00  0.00     0.088 H 
BRANCH   7   9
ATOM      9  N3  non d ame     -34.964   6.676  28.408  0.00  0.00    -0.346 N 
ATOM     10  C7  non d ame     -35.438   6.319  29.722  0.00  0.00     0.240 C 
ATOM     11  O3  non d ame     -34.921   5.455  30.319  0.00  0.00    -0.271 OA
ATOM     12  H10 non d ame     -35.421   7.422  27.904  0.00  0.00     0.163 HD
BRANCH  10  13
ATOM     13  C6  non d ame     -36.648   7.086  30.343  0.00  0.00     0.086 C 
ATOM     14  H6  non d ame     -36.397   7.578  31.282  0.00  0.00     0.086 H 
BRANCH  13  15
ATOM     15  N2  non d ame     -37.065   8.131  29.423  0.00  0.00    -0.343 N 
ATOM     16  C5  non d ame     -37.553   9.406  29.953  0.00  0.00     0.273 C 
ATOM     17  O2  non d ame     -37.608   9.579  31.121  0.00  0.00    -0.266 OA
ATOM     18  H5  non d ame     -37.017   7.972  28.426  0.00  0.00     0.163 HD
BRANCH  16  19
ATOM     19  C4  non d ame     -37.996  10.520  28.993  0.00  0.00     0.154 A 
ATOM     20  C1  non d ame     -37.444  10.825  27.708  0.00  0.00    -0.017 A 
ATOM     21  C2  non d ame     -38.198  11.924  27.240  0.00  0.00     0.077 A 
ATOM     22  H1  non d ame     -36.623  10.325  27.195  0.00  0.00     0.091 H 
ATOM     23  O1  non d ame     -39.078  12.208  28.155  0.00  0.00    -0.218 OA
ATOM     24  N1  non d ame     -38.980  11.403  29.188  0.00  0.00    -0.123 NA
BRANCH  21  25
ATOM     25  C3  non d ame     -38.015  12.642  25.909  0.00  0.00    -0.029 C 
ATOM     26  H2  non d ame     -38.708  13.480  25.850  0.00  0.00     0.036 H 
ATOM     27  H3  non d ame     -36.992  13.010  25.834  0.00  0.00     0.036 H 
ATOM     28  H4  non d ame     -38.212  11.948  25.092  0.00  0.00     0.036 H 
ENDBRANCH  21  25
ENDBRANCH  16  19
ENDBRANCH  13  15
BRANCH  13  29
ATOM     29  C8  non d ame     -37.784   6.125  30.584  0.00  0.00    -0.049 C 
ATOM     30  H7  non d ame     -37.482   5.122  30.285  0.00  0.00     0.030 H 
ATOM     31  H8  non d ame     -38.042   6.126  31.643  0.00  0.00     0.030 H 
ATOM     32  H9  non d ame     -38.651   6.433  29.998  0.00  0.00     0.030 H 
ENDBRANCH  13  29
ENDBRANCH  10  13
ENDBRANCH   7   9
BRANCH   7  33
ATOM     33  C11 non d ame     -34.362   4.842  26.872  0.00  0.00    -0.033 C 
ATOM     34  H12 non d ame     -34.558   3.960  27.481  0.00  0.00     0.042 H 
BRANCH  33  35
ATOM     35  C12 non d ame     -35.708   5.259  26.203  0.00  0.00    -0.071 C 
ATOM     36  H13 non d ame     -35.676   6.319  25.950  0.00  0.00     0.028 H 
ATOM     37  H14 non d ame     -35.860   4.674  25.296  0.00  0.00     0.028 H 
ATOM     38  H15 non d ame     -36.530   5.076  26.895  0.00  0.00     0.028 H 
ENDBRANCH  33  35
BRANCH  33  39
ATOM     39  C13 non d ame     -33.291   4.461  25.799  0.00  0.00    -0.071 C 
ATOM     40  H16 non d ame     -32.427   4.013  26.291  0.00  0.00     0.028 H 
ATOM     41  H17 non d ame     -33.719   3.747  25.095  0.00  0.00     0.028 H 
ATOM     42  H18 non d ame     -32.980   5.357  25.262  0.00  0.00     0.028 H 
ENDBRANCH  33  39
ENDBRANCH   7  33
ENDBRANCH   4   7
ENDBRANCH   1   3
BRANCH   1  43
ATOM     43  C15 non d ame     -33.063  10.147  25.745  0.00  0.00     0.240 C 
ATOM     44  O5  non d ame     -34.029  10.747  25.400  0.00  0.00    -0.271 OA
ATOM     45  N6  non d ame     -32.108  10.769  26.706  0.00  0.00    -0.355 N 
ATOM     46  H46 non d ame     -31.286  10.268  27.010  0.00  0.00     0.162 HD
BRANCH  45  47
ATOM     47  C20 non d ame     -32.367  12.133  27.217  0.00  0.00     0.013 C 
ATOM     48  H30 non d ame     -32.789  12.722  26.403  0.00  0.00     0.072 H 
BRANCH  47  49
ATOM     49  C21 non d ame     -31.066  12.748  27.679  0.00  0.00    -0.038 C 
ATOM     50  H31 non d ame     -30.942  12.434  28.716  0.00  0.00     0.036 H 
ATOM     51  H32 non d ame     -30.324  12.465  26.931  0.00  0.00     0.036 H 
BRANCH  49  52
ATOM     52  C22 non d ame     -31.105  14.292  27.693  0.00  0.00     0.018 C 
ATOM     53  H33 non d ame     -30.108  14.615  27.394  0.00  0.00     0.048 H 
ATOM     54  H34 non d ame     -31.971  14.571  27.093  0.00  0.00     0.048 H 
BRANCH  52  55
ATOM     55  C23 non d ame     -31.346  14.899  29.103  0.00  0.00     0.259 C 
ATOM     56  O7  non d ame     -30.677  14.565  30.026  0.00  0.00    -0.265 OA
BRANCH  55  57
ATOM     57  O8  non d ame     -32.386  15.854  29.282  0.00  0.00    -0.317 OA
BRANCH  57  58
ATOM     58  C29 non d ame     -33.297  15.935  28.182  0.00  0.00     0.052 C 
ATOM     59  H47 non d ame     -32.938  15.213  27.448  0.00  0.00     0.082 H 
ATOM     60  H48 non d ame     -34.291  15.826  28.613  0.00  0.00     0.082 H 
BRANCH  58  61
ATOM     61  C35 non d ame     -33.181  17.356  27.569  0.00  0.00    -0.034 A 
ATOM     62  C30 non d ame     -32.564  18.376  28.286  0.00  0.00    -0.075 A 
ATOM     63  C31 non d ame     -32.461  19.653  27.736  0.00  0.00    -0.082 A 
ATOM     64  H49 non d ame     -32.162  18.176  29.279  0.00  0.00     0.084 H 
ATOM     65  C32 non d ame     -32.980  19.909  26.463  0.00  0.00    -0.083 A 
ATOM     66  H50 non d ame     -31.976  20.450  28.300  0.00  0.00     0.083 H 
ATOM     67  C33 non d ame     -33.597  18.888  25.753  0.00  0.00    -0.082 A 
ATOM     68  H51 non d ame     -32.903  20.904  26.025  0.00  0.00     0.083 H 
ATOM     69  C34 non d ame     -33.701  17.610  26.298  0.00  0.00    -0.075 A 
ATOM     70  H52 non d ame     -34.003  19.091  24.761  0.00  0.00     0.083 H 
ATOM     71  H53 non d ame     -34.187  16.814  25.733  0.00  0.00     0.084 H 
ENDBRANCH  58  61
ENDBRANCH  57  58
ENDBRANCH  55  57
ENDBRANCH  52  55
ENDBRANCH  49  52
ENDBRANCH  47  49
BRANCH  47  72
ATOM     72  C24 non d ame     -33.345  12.068  28.389  0.00  0.00    -0.039 C 
ATOM     73  H35 non d ame     -33.414  13.089  28.765  0.00  0.00     0.036 H 
ATOM     74  H36 non d ame     -34.232  11.569  27.998  0.00  0.00     0.036 H 
BRANCH  72  75
ATOM     75  C25 non d ame     -32.780  11.161  29.583  0.00  0.00    -0.001 C 
ATOM     76  C26 non d ame     -33.680   9.793  29.721  0.00  0.00    -0.035 C 
ATOM     77  C27 non d ame     -34.070   9.655  31.011  0.00  0.00     0.085 C 
ATOM     78  H38 non d ame     -34.620   9.908  29.182  0.00  0.00     0.036 H 
ATOM     79  H39 non d ame     -33.057   8.915  29.548  0.00  0.00     0.036 H 
ATOM     80  N5  non d ame     -33.795  10.971  31.698  0.00  0.00    -0.049 N 
ATOM     81  H40 non d ame     -35.147   9.491  30.974  0.00  0.00     0.075 H 
ATOM     82  H41 non d ame     -33.417   8.891  31.432  0.00  0.00     0.075 H 
ATOM     83  C28 non d ame     -32.820  11.793  30.708  0.00  0.00     0.193 C 
ATOM     84  H42 non d ame     -34.679  11.455  31.754  0.00  0.00     0.280 HD
ATOM     85  H43 non d ame     -33.285  10.751  32.542  0.00  0.00     0.280 HD
ATOM     86  H44 non d ame     -31.755  11.879  30.925  0.00  0.00     0.129 H 
ATOM     87  H37 non d ame     -31.698  11.040  29.533  0.00  0.00     0.046 H 
BRANCH  83  88
ATOM     88  O6  non d ame     -33.289  13.134  30.557  0.00  0.00    -0.369 OA
ATOM     89  H45 non d ame     -34.234  13.126  30.391  0.00  0.00     0.212 HD
ENDBRANCH  83  88
ENDBRANCH  72  75
ENDBRANCH  47  72
ENDBRANCH  45  47
ENDBRANCH   1  43
BRANCH   1  90
ATOM     90  C16 non d ame     -33.217   8.643  23.736  0.00  0.00    -0.035 C 
ATOM     91  H21 non d ame     -34.277   8.393  23.746  0.00  0.00     0.037 H 
ATOM     92  H22 non d ame     -32.882   9.582  23.297  0.00  0.00     0.037 H 
BRANCH  90  93
ATOM     93  C17 non d ame     -32.504   7.504  22.940  0.00  0.00    -0.059 C 
ATOM     94  H23 non d ame     -32.184   7.919  21.984  0.00  0.00     0.038 H 
BRANCH  93  95
ATOM     95  C18 non d ame     -31.233   6.974  23.679  0.00  0.00    -0.073 C 
ATOM     96  H24 non d ame     -31.510   6.147  24.331  0.00  0.00     0.028 H 
ATOM     97  H25 non d ame     -30.504   6.630  22.946  0.00  0.00     0.028 H 
ATOM     98  H26 non d ame     -30.799   7.777  24.274  0.00  0.00     0.028 H 
ENDBRANCH  93  95
BRANCH  93  99
ATOM     99  C19 non d ame     -33.474   6.359  22.636  0.00  0.00    -0.073 C 
ATOM    100  H27 non d ame     -33.158   5.463  23.171  0.00  0.00     0.028 H 
ATOM    101  H28 non d ame     -34.478   6.638  22.958  0.00  0.00     0.028 H 
ATOM    102  H29 non d ame     -33.478   6.161  21.565  0.00  0.00     0.028 H 
ENDBRANCH  93  99
ENDBRANCH  90  93
ENDBRANCH   1  90
TORSDOF 26
ENDMDL
