MODEL 1
REMARK VINA RESULT:      -6.4      0.000      0.000
REMARK  26 active torsions:
REMARK  status: ('A' for Active; 'I' for Inactive)
REMARK    1  A    between atoms: C2_2  and  C3_3 
REMARK    2  A    between atoms: C4_6  and  C5_7 
REMARK       I    between atoms: C5_7  and  N2_9 
REMARK    3  A    between atoms: N2_9  and  C6_10 
REMARK    4  A    between atoms: C6_10  and  C7_11 
REMARK    5  A    between atoms: C6_10  and  C8_13 
REMARK       I    between atoms: C7_11  and  N3_14 
REMARK    6  A    between atoms: N3_14  and  C9_15 
REMARK    7  A    between atoms: C9_15  and  C10_16 
REMARK    8  A    between atoms: C9_15  and  C11_18 
REMARK       I    between atoms: C10_16  and  N4_21 
REMARK    9  A    between atoms: C11_18  and  C12_19 
REMARK   10  A    between atoms: C11_18  and  C13_20 
REMARK   11  A    between atoms: N4_21  and  C14_22 
REMARK   12  A    between atoms: C14_22  and  C15_23 
REMARK   13  A    between atoms: C14_22  and  C16_25 
REMARK       I    between atoms: C15_23  and  N6_40 
REMARK   14  A    between atoms: C16_25  and  C17_26 
REMARK   15  A    between atoms: C17_26  and  C18_27 
REMARK   16  A    between atoms: C17_26  and  C19_28 
REMARK   17  A    between atoms: C20_29  and  C21_30 
REMARK   18  A    between atoms: C20_29  and  C24_33 
REMARK   19  A    between atoms: C20_29  and  N6_40 
REMARK   20  A    between atoms: C21_30  and  C22_31 
REMARK   21  A    between atoms: C22_31  and  C23_32 
REMARK   22  A    between atoms: C23_32  and  O8_43 
REMARK   23  A    between atoms: C24_33  and  C25_34 
REMARK   24  A    between atoms: C28_38  and  O6_39 
REMARK   25  A    between atoms: C29_42  and  O8_43 
REMARK   26  A    between atoms: C29_42  and  C35_49 
ROOT
ATOM      1  C14 non d ame     -32.976   9.212  27.363  0.00  0.00     0.089 C 
ATOM      2  H20 non d ame     -31.964   8.807  27.335  0.00  0.00     0.087 H 
ENDROOT
BRANCH   1   3
ATOM      3  N4  non d ame     -32.875  10.616  27.732  0.00  0.00    -0.346 N 
ATOM      4  C10 non d ame     -31.758  11.469  27.184  0.00  0.00     0.241 C 
ATOM      5  O4  non d ame     -30.951  11.002  26.451  0.00  0.00    -0.271 OA
ATOM      6  H19 non d ame     -33.571  10.994  28.359  0.00  0.00     0.163 HD
BRANCH   4   7
ATOM      7  C9  non d ame     -31.673  12.922  27.572  0.00  0.00     0.092 C 
ATOM      8  H11 non d ame     -30.636  13.250  27.505  0.00  0.00     0.088 H 
BRANCH   7   9
ATOM      9  N3  non d ame     -32.445  13.728  26.621  0.00  0.00    -0.346 N 
ATOM     10  C7  non d ame     -31.773  14.407  25.540  0.00  0.00     0.240 C 
ATOM     11  O3  non d ame     -30.612  14.316  25.421  0.00  0.00    -0.271 OA
ATOM     12  H10 non d ame     -33.447  13.817  26.712  0.00  0.00     0.163 HD
BRANCH  10  13
ATOM     13  C6  non d ame     -32.600  15.266  24.533  0.00  0.00     0.086 C 
ATOM     14  H6  non d ame     -33.523  14.777  24.221  0.00  0.00     0.086 H 
BRANCH  13  15
ATOM     15  N2  non d ame     -32.985  16.509  25.180  0.00  0.00    -0.343 N 
ATOM     16  C5  non d ame     -34.254  16.580  25.909  0.00  0.00     0.273 C 
ATOM     17  O2  non d ame     -34.958  15.633  25.967  0.00  0.00    -0.266 OA
ATOM     18  H5  non d ame     -32.378  17.315  25.123  0.00  0.00     0.163 HD
BRANCH  16  19
ATOM     19  C4  non d ame     -34.673  17.888  26.599  0.00  0.00     0.154 A 
ATOM     20  C1  non d ame     -35.470  18.026  27.779  0.00  0.00    -0.017 A 
ATOM     21  C2  non d ame     -35.563  19.419  27.994  0.00  0.00     0.077 A 
ATOM     22  H1  non d ame     -35.912  17.236  28.387  0.00  0.00     0.091 H 
ATOM     23  O1  non d ame     -34.893  20.003  27.044  0.00  0.00    -0.218 OA
ATOM     24  N1  non d ame     -34.365  19.131  26.217  0.00  0.00    -0.123 NA
BRANCH  21  25
ATOM     25  C3  non d ame     -36.308  20.108  29.130  0.00  0.00    -0.029 C 
ATOM     26  H2  non d ame     -36.412  21.169  28.905  0.00  0.00     0.036 H 
ATOM     27  H3  non d ame     -37.296  19.662  29.239  0.00  0.00     0.036 H 
ATOM     28  H4  non d ame     -35.750  19.986  30.058  0.00  0.00     0.036 H 
ENDBRANCH  21  25
ENDBRANCH  16  19
ENDBRANCH  13  15
BRANCH  13  29
ATOM     29  C8  non d ame     -31.765  15.556  23.312  0.00  0.00    -0.049 C 
ATOM     30  H7  non d ame     -32.318  16.214  22.642  0.00  0.00     0.030 H 
ATOM     31  H8  non d ame     -30.837  16.040  23.614  0.00  0.00     0.030 H 
ATOM     32  H9  non d ame     -31.538  14.622  22.797  0.00  0.00     0.030 H 
ENDBRANCH  13  29
ENDBRANCH  10  13
ENDBRANCH   7   9
BRANCH   7  33
ATOM     33  C11 non d ame     -32.256  13.113  29.003  0.00  0.00    -0.033 C 
ATOM     34  H12 non d ame     -33.093  12.423  29.111  0.00  0.00     0.042 H 
BRANCH  33  35
ATOM     35  C12 non d ame     -31.205  12.751  30.098  0.00  0.00    -0.071 C 
ATOM     36  H13 non d ame     -31.570  11.911  30.689  0.00  0.00     0.028 H 
ATOM     37  H14 non d ame     -30.263  12.478  29.621  0.00  0.00     0.028 H 
ATOM     38  H15 non d ame     -31.047  13.611  30.749  0.00  0.00     0.028 H 
ENDBRANCH  33  35
BRANCH  33  39
ATOM     39  C13 non d ame     -32.799  14.565  29.197  0.00  0.00    -0.071 C 
ATOM     40  H16 non d ame     -33.069  14.715  30.242  0.00  0.00     0.028 H 
ATOM     41  H17 non d ame     -32.027  15.282  28.913  0.00  0.00     0.028 H 
ATOM     42  H18 non d ame     -33.678  14.711  28.569  0.00  0.00     0.028 H 
ENDBRANCH  33  39
ENDBRANCH   7  33
ENDBRANCH   4   7
ENDBRANCH   1   3
BRANCH   1  43
ATOM     43  C15 non d ame     -33.687   9.112  25.983  0.00  0.00     0.240 C 
ATOM     44  O5  non d ame     -34.678   9.737  25.782  0.00  0.00    -0.271 OA
ATOM     45  N6  non d ame     -33.128   8.242  24.909  0.00  0.00    -0.355 N 
ATOM     46  H46 non d ame     -32.285   7.710  25.067  0.00  0.00     0.162 HD
BRANCH  45  47
ATOM     47  C20 non d ame     -33.815   8.159  23.602  0.00  0.00     0.013 C 
ATOM     48  H30 non d ame     -34.741   8.729  23.673  0.00  0.00     0.072 H 
BRANCH  47  49
ATOM     49  C21 non d ame     -34.122   6.712  23.290  0.00  0.00    -0.038 C 
ATOM     50  H31 non d ame     -35.046   6.724  22.713  0.00  0.00     0.036 H 
ATOM     51  H32 non d ame     -33.210   6.306  22.852  0.00  0.00     0.036 H 
BRANCH  49  52
ATOM     52  C22 non d ame     -34.408   5.874  24.555  0.00  0.00     0.018 C 
ATOM     53  H33 non d ame     -34.359   4.833  24.237  0.00  0.00     0.048 H 
ATOM     54  H34 non d ame     -33.721   6.244  25.316  0.00  0.00     0.048 H 
BRANCH  52  55
ATOM     55  C23 non d ame     -35.836   6.078  25.132  0.00  0.00     0.259 C 
ATOM     56  O7  non d ame     -36.788   6.012  24.424  0.00  0.00    -0.265 OA
BRANCH  55  57
ATOM     57  O8  non d ame     -35.994   6.359  26.518  0.00  0.00    -0.317 OA
BRANCH  57  58
ATOM     58  C29 non d ame     -36.630   5.312  27.255  0.00  0.00     0.052 C 
ATOM     59  H47 non d ame     -37.700   5.503  27.177  0.00  0.00     0.082 H 
ATOM     60  H48 non d ame     -36.213   4.383  26.868  0.00  0.00     0.082 H 
BRANCH  58  61
ATOM     61  C35 non d ame     -36.214   5.453  28.744  0.00  0.00    -0.034 A 
ATOM     62  C30 non d ame     -37.146   5.862  29.692  0.00  0.00    -0.075 A 
ATOM     63  C31 non d ame     -36.773   5.990  31.029  0.00  0.00    -0.082 A 
ATOM     64  H49 non d ame     -38.170   6.083  29.388  0.00  0.00     0.084 H 
ATOM     65  C32 non d ame     -35.460   5.709  31.416  0.00  0.00    -0.083 A 
ATOM     66  H50 non d ame     -37.506   6.309  31.770  0.00  0.00     0.083 H 
ATOM     67  C33 non d ame     -34.532   5.305  30.466  0.00  0.00    -0.082 A 
ATOM     68  H51 non d ame     -35.159   5.806  32.459  0.00  0.00     0.083 H 
ATOM     69  C34 non d ame     -34.901   5.174  29.129  0.00  0.00    -0.075 A 
ATOM     70  H52 non d ame     -33.507   5.089  30.771  0.00  0.00     0.083 H 
ATOM     71  H53 non d ame     -34.167   4.855  28.389  0.00  0.00     0.084 H 
ENDBRANCH  58  61
ENDBRANCH  57  58
ENDBRANCH  55  57
ENDBRANCH  52  55
ENDBRANCH  49  52
ENDBRANCH  47  49
BRANCH  47  72
ATOM     72  C24 non d ame     -32.918   8.737  22.509  0.00  0.00    -0.039 C 
ATOM     73  H35 non d ame     -33.045   8.078  21.651  0.00  0.00     0.036 H 
ATOM     74  H36 non d ame     -33.195   9.789  22.434  0.00  0.00     0.036 H 
BRANCH  72  75
ATOM     75  C25 non d ame     -31.371   8.683  22.922  0.00  0.00    -0.001 C 
ATOM     76  C26 non d ame     -30.779  10.210  23.075  0.00  0.00    -0.035 C 
ATOM     77  C27 non d ame     -29.645  10.314  22.341  0.00  0.00     0.085 C 
ATOM     78  H38 non d ame     -31.455  10.922  22.603  0.00  0.00     0.036 H 
ATOM     79  H39 non d ame     -30.438  10.377  24.097  0.00  0.00     0.036 H 
ATOM     80  N5  non d ame     -29.588   9.102  21.443  0.00  0.00    -0.049 N 
ATOM     81  H40 non d ame     -29.777  11.205  21.728  0.00  0.00     0.075 H 
ATOM     82  H41 non d ame     -28.828  10.262  23.060  0.00  0.00     0.075 H 
ATOM     83  C28 non d ame     -30.672   8.060  22.033  0.00  0.00     0.193 C 
ATOM     84  H42 non d ame     -29.898   9.406  20.531  0.00  0.00     0.280 HD
ATOM     85  H43 non d ame     -28.666   8.705  21.557  0.00  0.00     0.280 HD
ATOM     86  H44 non d ame     -30.350   7.192  22.608  0.00  0.00     0.129 H 
ATOM     87  H37 non d ame     -31.188   7.995  23.747  0.00  0.00     0.046 H 
BRANCH  83  88
ATOM     88  O6  non d ame     -31.482   7.541  20.977  0.00  0.00    -0.369 OA
ATOM     89  H45 non d ame     -31.177   6.661  20.743  0.00  0.00     0.212 HD
ENDBRANCH  83  88
ENDBRANCH  72  75
ENDBRANCH  47  72
ENDBRANCH  45  47
ENDBRANCH   1  43
BRANCH   1  90
ATOM     90  C16 non d ame     -33.795   8.481  28.415  0.00  0.00    -0.035 C 
ATOM     91  H21 non d ame     -34.514   7.882  27.856  0.00  0.00     0.037 H 
ATOM     92  H22 non d ame     -33.066   7.994  29.062  0.00  0.00     0.037 H 
BRANCH  90  93
ATOM     93  C17 non d ame     -34.632   9.431  29.330  0.00  0.00    -0.059 C 
ATOM     94  H23 non d ame     -34.328  10.454  29.109  0.00  0.00     0.038 H 
BRANCH  93  95
ATOM     95  C18 non d ame     -36.165   9.319  29.052  0.00  0.00    -0.073 C 
ATOM     96  H24 non d ame     -36.534  10.267  28.663  0.00  0.00     0.028 H 
ATOM     97  H25 non d ame     -36.345   8.532  28.319  0.00  0.00     0.028 H 
ATOM     98  H26 non d ame     -36.685   9.078  29.978  0.00  0.00     0.028 H 
ENDBRANCH  93  95
BRANCH  93  99
ATOM     99  C19 non d ame     -34.326   9.175  30.808  0.00  0.00    -0.073 C 
ATOM    100  H27 non d ame     -33.725   9.995  31.202  0.00  0.00     0.028 H 
ATOM    101  H28 non d ame     -35.260   9.109  31.366  0.00  0.00     0.028 H 
ATOM    102  H29 non d ame     -33.776   8.240  30.909  0.00  0.00     0.028 H 
ENDBRANCH  93  99
ENDBRANCH  90  93
ENDBRANCH   1  90
TORSDOF 26
ENDMDL
MODEL 2
REMARK VINA RESULT:      -6.3      2.796      9.859
REMARK  26 active torsions:
REMARK  status: ('A' for Active; 'I' for Inactive)
REMARK    1  A    between atoms: C2_2  and  C3_3 
REMARK    2  A    between atoms: C4_6  and  C5_7 
REMARK       I    between atoms: C5_7  and  N2_9 
REMARK    3  A    between atoms: N2_9  and  C6_10 
REMARK    4  A    between atoms: C6_10  and  C7_11 
REMARK    5  A    between atoms: C6_10  and  C8_13 
REMARK       I    between atoms: C7_11  and  N3_14 
REMARK    6  A    between atoms: N3_14  and  C9_15 
REMARK    7  A    between atoms: C9_15  and  C10_16 
REMARK    8  A    between atoms: C9_15  and  C11_18 
REMARK       I    between atoms: C10_16  and  N4_21 
REMARK    9  A    between atoms: C11_18  and  C12_19 
REMARK   10  A    between atoms: C11_18  and  C13_20 
REMARK   11  A    between atoms: N4_21  and  C14_22 
REMARK   12  A    between atoms: C14_22  and  C15_23 
REMARK   13  A    between atoms: C14_22  and  C16_25 
REMARK       I    between atoms: C15_23  and  N6_40 
REMARK   14  A    between atoms: C16_25  and  C17_26 
REMARK   15  A    between atoms: C17_26  and  C18_27 
REMARK   16  A    between atoms: C17_26  and  C19_28 
REMARK   17  A    between atoms: C20_29  and  C21_30 
REMARK   18  A    between atoms: C20_29  and  C24_33 
REMARK   19  A    between atoms: C20_29  and  N6_40 
REMARK   20  A    between atoms: C21_30  and  C22_31 
REMARK   21  A    between atoms: C22_31  and  C23_32 
REMARK   22  A    between atoms: C23_32  and  O8_43 
REMARK   23  A    between atoms: C24_33  and  C25_34 
REMARK   24  A    between atoms: C28_38  and  O6_39 
REMARK   25  A    between atoms: C29_42  and  O8_43 
REMARK   26  A    between atoms: C29_42  and  C35_49 
ROOT
ATOM      1  C14 non d ame     -32.968  10.282  25.420  0.00  0.00     0.089 C 
ATOM      2  H20 non d ame     -33.634  10.367  24.561  0.00  0.00     0.087 H 
ENDROOT
BRANCH   1   3
ATOM      3  N4  non d ame     -32.392   8.946  25.398  0.00  0.00    -0.346 N 
ATOM      4  C10 non d ame     -33.154   7.798  24.786  0.00  0.00     0.241 C 
ATOM      5  O4  non d ame     -34.231   7.973  24.319  0.00  0.00    -0.271 OA
ATOM      6  H19 non d ame     -31.475   8.817  25.802  0.00  0.00     0.163 HD
BRANCH   4   7
ATOM      7  C9  non d ame     -32.540   6.423  24.766  0.00  0.00     0.092 C 
ATOM      8  H11 non d ame     -31.474   6.503  24.978  0.00  0.00     0.088 H 
BRANCH   7   9
ATOM      9  N3  non d ame     -33.133   5.608  25.831  0.00  0.00    -0.346 N 
ATOM     10  C7  non d ame     -32.718   5.798  27.199  0.00  0.00     0.240 C 
ATOM     11  O3  non d ame     -31.907   6.601  27.461  0.00  0.00    -0.271 OA
ATOM     12  H10 non d ame     -33.832   4.910  25.621  0.00  0.00     0.163 HD
BRANCH  10  13
ATOM     13  C6  non d ame     -33.350   4.925  28.328  0.00  0.00     0.086 C 
ATOM     14  H6  non d ame     -32.710   4.843  29.206  0.00  0.00     0.086 H 
BRANCH  13  15
ATOM     15  N2  non d ame     -34.585   5.550  28.771  0.00  0.00    -0.343 N 
ATOM     16  C5  non d ame     -34.925   5.546  30.195  0.00  0.00     0.273 C 
ATOM     17  O2  non d ame     -34.200   5.036  30.976  0.00  0.00    -0.266 OA
ATOM     18  H5  non d ame     -35.201   5.981  28.096  0.00  0.00     0.163 HD
BRANCH  16  19
ATOM     19  C4  non d ame     -36.228   6.204  30.677  0.00  0.00     0.154 A 
ATOM     20  C1  non d ame     -36.534   7.602  30.699  0.00  0.00    -0.017 A 
ATOM     21  C2  non d ame     -37.842   7.679  31.226  0.00  0.00     0.077 A 
ATOM     22  H1  non d ame     -35.903   8.432  30.381  0.00  0.00     0.091 H 
ATOM     23  O1  non d ame     -38.233   6.463  31.474  0.00  0.00    -0.218 OA
ATOM     24  N1  non d ame     -37.308   5.585  31.162  0.00  0.00    -0.123 NA
BRANCH  21  25
ATOM     25  C3  non d ame     -38.646   8.951  31.460  0.00  0.00    -0.029 C 
ATOM     26  H2  non d ame     -38.483   9.302  32.479  0.00  0.00     0.036 H 
ATOM     27  H3  non d ame     -38.324   9.719  30.756  0.00  0.00     0.036 H 
ATOM     28  H4  non d ame     -39.706   8.744  31.312  0.00  0.00     0.036 H 
ENDBRANCH  21  25
ENDBRANCH  16  19
ENDBRANCH  13  15
BRANCH  13  29
ATOM     29  C8  non d ame     -33.631   3.541  27.799  0.00  0.00    -0.049 C 
ATOM     30  H7  non d ame     -34.655   3.495  27.429  0.00  0.00     0.030 H 
ATOM     31  H8  non d ame     -32.941   3.316  26.987  0.00  0.00     0.030 H 
ATOM     32  H9  non d ame     -33.501   2.813  28.600  0.00  0.00     0.030 H 
ENDBRANCH  13  29
ENDBRANCH  10  13
ENDBRANCH   7   9
BRANCH   7  33
ATOM     33  C11 non d ame     -32.815   5.751  23.389  0.00  0.00    -0.033 C 
ATOM     34  H12 non d ame     -33.688   6.239  22.954  0.00  0.00     0.042 H 
BRANCH  33  35
ATOM     35  C12 non d ame     -31.622   5.961  22.406  0.00  0.00    -0.071 C 
ATOM     36  H13 non d ame     -31.034   5.045  22.347  0.00  0.00     0.028 H 
ATOM     37  H14 non d ame     -32.005   6.211  21.417  0.00  0.00     0.028 H 
ATOM     38  H15 non d ame     -30.991   6.773  22.768  0.00  0.00     0.028 H 
ENDBRANCH  33  35
BRANCH  33  39
ATOM     39  C13 non d ame     -33.146   4.234  23.562  0.00  0.00    -0.071 C 
ATOM     40  H16 non d ame     -32.822   3.688  22.676  0.00  0.00     0.028 H 
ATOM     41  H17 non d ame     -32.626   3.846  24.439  0.00  0.00     0.028 H 
ATOM     42  H18 non d ame     -34.221   4.109  23.694  0.00  0.00     0.028 H 
ENDBRANCH  33  39
ENDBRANCH   7  33
ENDBRANCH   4   7
ENDBRANCH   1   3
BRANCH   1  43
ATOM     43  C15 non d ame     -31.811  11.321  25.371  0.00  0.00     0.240 C 
ATOM     44  O5  non d ame     -30.751  11.048  25.834  0.00  0.00    -0.271 OA
ATOM     45  N6  non d ame     -32.022  12.655  24.739  0.00  0.00    -0.355 N 
ATOM     46  H46 non d ame     -32.917  12.897  24.338  0.00  0.00     0.162 HD
BRANCH  45  47
ATOM     47  C20 non d ame     -30.912  13.631  24.699  0.00  0.00     0.013 C 
ATOM     48  H30 non d ame     -30.126  13.272  25.364  0.00  0.00     0.072 H 
BRANCH  47  49
ATOM     49  C21 non d ame     -31.413  14.977  25.170  0.00  0.00    -0.038 C 
ATOM     50  H31 non d ame     -30.602  15.679  24.975  0.00  0.00     0.036 H 
ATOM     51  H32 non d ame     -32.382  15.115  24.689  0.00  0.00     0.036 H 
BRANCH  49  52
ATOM     52  C22 non d ame     -31.672  15.021  26.692  0.00  0.00     0.018 C 
ATOM     53  H33 non d ame     -32.088  14.048  26.949  0.00  0.00     0.048 H 
ATOM     54  H34 non d ame     -30.734  15.349  27.142  0.00  0.00     0.048 H 
BRANCH  52  55
ATOM     55  C23 non d ame     -32.739  16.068  27.116  0.00  0.00     0.259 C 
ATOM     56  O7  non d ame     -33.268  15.994  28.177  0.00  0.00    -0.265 OA
BRANCH  55  57
ATOM     57  O8  non d ame     -33.087  17.112  26.215  0.00  0.00    -0.317 OA
BRANCH  57  58
ATOM     58  C29 non d ame     -34.393  16.978  25.645  0.00  0.00     0.052 C 
ATOM     59  H47 non d ame     -34.236  16.865  24.573  0.00  0.00     0.082 H 
ATOM     60  H48 non d ame     -34.882  16.185  26.211  0.00  0.00     0.082 H 
BRANCH  58  61
ATOM     61  C35 non d ame     -35.162  18.303  25.893  0.00  0.00    -0.034 A 
ATOM     62  C30 non d ame     -34.651  19.250  26.775  0.00  0.00    -0.075 A 
ATOM     63  C31 non d ame     -35.342  20.441  26.998  0.00  0.00    -0.082 A 
ATOM     64  H49 non d ame     -33.711  19.060  27.292  0.00  0.00     0.084 H 
ATOM     65  C32 non d ame     -36.549  20.682  26.336  0.00  0.00    -0.083 A 
ATOM     66  H50 non d ame     -34.938  21.182  27.689  0.00  0.00     0.083 H 
ATOM     67  C33 non d ame     -37.056  19.732  25.460  0.00  0.00    -0.082 A 
ATOM     68  H51 non d ame     -37.095  21.610  26.504  0.00  0.00     0.083 H 
ATOM     69  C34 non d ame     -36.368  18.542  25.232  0.00  0.00    -0.075 A 
ATOM     70  H52 non d ame     -37.999  19.922  24.947  0.00  0.00     0.083 H 
ATOM     71  H53 non d ame     -36.772  17.802  24.541  0.00  0.00     0.084 H 
ENDBRANCH  58  61
ENDBRANCH  57  58
ENDBRANCH  55  57
ENDBRANCH  52  55
ENDBRANCH  49  52
ENDBRANCH  47  49
BRANCH  47  72
ATOM     72  C24 non d ame     -30.384  13.755  23.271  0.00  0.00    -0.039 C 
ATOM     73  H35 non d ame     -29.391  13.305  23.290  0.00  0.00     0.036 H 
ATOM     74  H36 non d ame     -31.162  13.330  22.637  0.00  0.00     0.036 H 
BRANCH  72  75
ATOM     75  C25 non d ame     -30.202  15.286  22.837  0.00  0.00    -0.001 C 
ATOM     76  C26 non d ame     -31.294  15.670  21.668  0.00  0.00    -0.035 C 
ATOM     77  C27 non d ame     -30.638  16.241  20.630  0.00  0.00     0.085 C 
ATOM     78  H38 non d ame     -31.713  14.762  21.236  0.00  0.00     0.036 H 
ATOM     79  H39 non d ame     -31.955  16.462  22.020  0.00  0.00     0.036 H 
ATOM     80  N5  non d ame     -29.165  15.986  20.843  0.00  0.00    -0.049 N 
ATOM     81  H40 non d ame     -30.968  15.700  19.744  0.00  0.00     0.075 H 
ATOM     82  H41 non d ame     -30.829  17.310  20.718  0.00  0.00     0.075 H 
ATOM     83  C28 non d ame     -29.016  15.504  22.377  0.00  0.00     0.193 C 
ATOM     84  H42 non d ame     -28.918  15.216  20.238  0.00  0.00     0.280 HD
ATOM     85  H43 non d ame     -28.703  16.878  20.740  0.00  0.00     0.280 HD
ATOM     86  H44 non d ame     -28.630  16.184  23.136  0.00  0.00     0.129 H 
ATOM     87  H37 non d ame     -30.140  15.954  23.696  0.00  0.00     0.046 H 
BRANCH  83  88
ATOM     88  O6  non d ame     -28.188  14.342  22.449  0.00  0.00    -0.369 OA
ATOM     89  H45 non d ame     -27.290  14.602  22.668  0.00  0.00     0.212 HD
ENDBRANCH  83  88
ENDBRANCH  72  75
ENDBRANCH  47  72
ENDBRANCH  45  47
ENDBRANCH   1  43
BRANCH   1  90
ATOM     90  C16 non d ame     -33.760  10.460  26.705  0.00  0.00    -0.035 C 
ATOM     91  H21 non d ame     -34.097   9.460  26.977  0.00  0.00     0.037 H 
ATOM     92  H22 non d ame     -33.103  11.015  27.375  0.00  0.00     0.037 H 
BRANCH  90  93
ATOM     93  C17 non d ame     -35.048  11.326  26.532  0.00  0.00    -0.059 C 
ATOM     94  H23 non d ame     -35.253  11.405  25.465  0.00  0.00     0.038 H 
BRANCH  93  95
ATOM     95  C18 non d ame     -36.295  10.670  27.209  0.00  0.00    -0.073 C 
ATOM     96  H24 non d ame     -37.069  10.503  26.460  0.00  0.00     0.028 H 
ATOM     97  H25 non d ame     -36.008   9.717  27.652  0.00  0.00     0.028 H 
ATOM     98  H26 non d ame     -36.677  11.332  27.985  0.00  0.00     0.028 H 
ENDBRANCH  93  95
BRANCH  93  99
ATOM     99  C19 non d ame     -34.827  12.746  27.060  0.00  0.00    -0.073 C 
ATOM    100  H27 non d ame     -34.732  12.720  28.146  0.00  0.00     0.028 H 
ATOM    101  H28 non d ame     -33.916  13.158  26.625  0.00  0.00     0.028 H 
ATOM    102  H29 non d ame     -35.675  13.372  26.784  0.00  0.00     0.028 H 
ENDBRANCH  93  99
ENDBRANCH  90  93
ENDBRANCH   1  90
TORSDOF 26
ENDMDL
MODEL 3
REMARK VINA RESULT:      -6.2      2.964      7.641
REMARK  26 active torsions:
REMARK  status: ('A' for Active; 'I' for Inactive)
REMARK    1  A    between atoms: C2_2  and  C3_3 
REMARK    2  A    between atoms: C4_6  and  C5_7 
REMARK       I    between atoms: C5_7  and  N2_9 
REMARK    3  A    between atoms: N2_9  and  C6_10 
REMARK    4  A    between atoms: C6_10  and  C7_11 
REMARK    5  A    between atoms: C6_10  and  C8_13 
REMARK       I    between atoms: C7_11  and  N3_14 
REMARK    6  A    between atoms: N3_14  and  C9_15 
REMARK    7  A    between atoms: C9_15  and  C10_16 
REMARK    8  A    between atoms: C9_15  and  C11_18 
REMARK       I    between atoms: C10_16  and  N4_21 
REMARK    9  A    between atoms: C11_18  and  C12_19 
REMARK   10  A    between atoms: C11_18  and  C13_20 
REMARK   11  A    between atoms: N4_21  and  C14_22 
REMARK   12  A    between atoms: C14_22  and  C15_23 
REMARK   13  A    between atoms: C14_22  and  C16_25 
REMARK       I    between atoms: C15_23  and  N6_40 
REMARK   14  A    between atoms: C16_25  and  C17_26 
REMARK   15  A    between atoms: C17_26  and  C18_27 
REMARK   16  A    between atoms: C17_26  and  C19_28 
REMARK   17  A    between atoms: C20_29  and  C21_30 
REMARK   18  A    between atoms: C20_29  and  C24_33 
REMARK   19  A    between atoms: C20_29  and  N6_40 
REMARK   20  A    between atoms: C21_30  and  C22_31 
REMARK   21  A    between atoms: C22_31  and  C23_32 
REMARK   22  A    between atoms: C23_32  and  O8_43 
REMARK   23  A    between atoms: C24_33  and  C25_34 
REMARK   24  A    between atoms: C28_38  and  O6_39 
REMARK   25  A    between atoms: C29_42  and  O8_43 
REMARK   26  A    between atoms: C29_42  and  C35_49 
ROOT
ATOM      1  C14 non d ame     -35.095   9.938  26.048  0.00  0.00     0.089 C 
ATOM      2  H20 non d ame     -35.910   9.437  25.525  0.00  0.00     0.087 H 
ENDROOT
BRANCH   1   3
ATOM      3  N4  non d ame     -35.257   9.672  27.469  0.00  0.00    -0.346 N 
ATOM      4  C10 non d ame     -35.770   8.334  27.940  0.00  0.00     0.241 C 
ATOM      5  O4  non d ame     -36.049   7.488  27.155  0.00  0.00    -0.271 OA
ATOM      6  H19 non d ame     -35.016  10.405  28.120  0.00  0.00     0.163 HD
BRANCH   4   7
ATOM      7  C9  non d ame     -35.926   8.074  29.415  0.00  0.00     0.092 C 
ATOM      8  H11 non d ame     -35.208   7.313  29.722  0.00  0.00     0.088 H 
BRANCH   7   9
ATOM      9  N3  non d ame     -35.610   9.294  30.163  0.00  0.00    -0.346 N 
ATOM     10  C7  non d ame     -34.680   9.244  31.265  0.00  0.00     0.240 C 
ATOM     11  O3  non d ame     -34.179   8.229  31.564  0.00  0.00    -0.271 OA
ATOM     12  H10 non d ame     -36.036  10.176  29.918  0.00  0.00     0.163 HD
BRANCH  10  13
ATOM     13  C6  non d ame     -34.351  10.545  32.060  0.00  0.00     0.086 C 
ATOM     14  H6  non d ame     -33.459  10.448  32.678  0.00  0.00     0.086 H 
BRANCH  13  15
ATOM     15  N2  non d ame     -34.088  11.619  31.116  0.00  0.00    -0.343 N 
ATOM     16  C5  non d ame     -32.715  11.869  30.672  0.00  0.00     0.273 C 
ATOM     17  O2  non d ame     -31.829  11.202  31.081  0.00  0.00    -0.266 OA
ATOM     18  H5  non d ame     -34.851  12.186  30.774  0.00  0.00     0.163 HD
BRANCH  16  19
ATOM     19  C4  non d ame     -32.422  13.000  29.674  0.00  0.00     0.154 A 
ATOM     20  C1  non d ame     -33.132  13.293  28.466  0.00  0.00    -0.017 A 
ATOM     21  C2  non d ame     -32.473  14.417  27.920  0.00  0.00     0.077 A 
ATOM     22  H1  non d ame     -33.994  12.770  28.050  0.00  0.00     0.091 H 
ATOM     23  O1  non d ame     -31.502  14.726  28.728  0.00  0.00    -0.218 OA
ATOM     24  N1  non d ame     -31.452  13.914  29.758  0.00  0.00    -0.123 NA
BRANCH  21  25
ATOM     25  C3  non d ame     -32.835  15.134  26.626  0.00  0.00    -0.029 C 
ATOM     26  H2  non d ame     -33.882  14.947  26.387  0.00  0.00     0.036 H 
ATOM     27  H3  non d ame     -32.677  16.205  26.749  0.00  0.00     0.036 H 
ATOM     28  H4  non d ame     -32.206  14.764  25.818  0.00  0.00     0.036 H 
ENDBRANCH  21  25
ENDBRANCH  16  19
ENDBRANCH  13  15
BRANCH  13  29
ATOM     29  C8  non d ame     -35.518  10.908  32.943  0.00  0.00    -0.049 C 
ATOM     30  H7  non d ame     -35.946  11.853  32.609  0.00  0.00     0.030 H 
ATOM     31  H8  non d ame     -36.274  10.125  32.884  0.00  0.00     0.030 H 
ATOM     32  H9  non d ame     -35.177  11.007  33.973  0.00  0.00     0.030 H 
ENDBRANCH  13  29
ENDBRANCH  10  13
ENDBRANCH   7   9
BRANCH   7  33
ATOM     33  C11 non d ame     -37.393   7.650  29.715  0.00  0.00    -0.033 C 
ATOM     34  H12 non d ame     -37.840   7.324  28.775  0.00  0.00     0.042 H 
BRANCH  33  35
ATOM     35  C12 non d ame     -37.446   6.443  30.703  0.00  0.00    -0.071 C 
ATOM     36  H13 non d ame     -37.767   5.549  30.168  0.00  0.00     0.028 H 
ATOM     37  H14 non d ame     -36.456   6.277  31.127  0.00  0.00     0.028 H 
ATOM     38  H15 non d ame     -38.153   6.660  31.504  0.00  0.00     0.028 H 
ENDBRANCH  33  35
BRANCH  33  39
ATOM     39  C13 non d ame     -38.226   8.858  30.252  0.00  0.00    -0.071 C 
ATOM     40  H16 non d ame     -38.593   9.448  29.412  0.00  0.00     0.028 H 
ATOM     41  H17 non d ame     -39.071   8.488  30.833  0.00  0.00     0.028 H 
ATOM     42  H18 non d ame     -37.595   9.481  30.886  0.00  0.00     0.028 H 
ENDBRANCH  33  39
ENDBRANCH   7  33
ENDBRANCH   4   7
ENDBRANCH   1   3
BRANCH   1  43
ATOM     43  C15 non d ame     -33.701   9.414  25.601  0.00  0.00     0.240 C 
ATOM     44  O5  non d ame     -32.732  10.078  25.786  0.00  0.00    -0.271 OA
ATOM     45  N6  non d ame     -33.571   8.079  24.949  0.00  0.00    -0.355 N 
ATOM     46  H46 non d ame     -34.386   7.504  24.790  0.00  0.00     0.162 HD
BRANCH  45  47
ATOM     47  C20 non d ame     -32.238   7.594  24.531  0.00  0.00     0.013 C 
ATOM     48  H30 non d ame     -31.490   8.265  24.953  0.00  0.00     0.072 H 
BRANCH  47  49
ATOM     49  C21 non d ame     -32.152   7.608  23.022  0.00  0.00    -0.038 C 
ATOM     50  H31 non d ame     -31.324   6.946  22.768  0.00  0.00     0.036 H 
ATOM     51  H32 non d ame     -33.158   7.382  22.668  0.00  0.00     0.036 H 
BRANCH  49  52
ATOM     52  C22 non d ame     -31.790   8.997  22.454  0.00  0.00     0.018 C 
ATOM     53  H33 non d ame     -32.145   8.997  21.424  0.00  0.00     0.048 H 
ATOM     54  H34 non d ame     -32.187   9.720  23.167  0.00  0.00     0.048 H 
BRANCH  52  55
ATOM     55  C23 non d ame     -30.261   9.265  22.380  0.00  0.00     0.259 C 
ATOM     56  O7  non d ame     -29.510   8.395  22.078  0.00  0.00    -0.265 OA
BRANCH  55  57
ATOM     57  O8  non d ame     -29.765  10.562  22.689  0.00  0.00    -0.317 OA
BRANCH  57  58
ATOM     58  C29 non d ame     -30.697  11.389  23.391  0.00  0.00     0.052 C 
ATOM     59  H47 non d ame     -31.669  11.185  22.943  0.00  0.00     0.082 H 
ATOM     60  H48 non d ame     -30.532  11.188  24.450  0.00  0.00     0.082 H 
BRANCH  58  61
ATOM     61  C35 non d ame     -30.328  12.870  23.111  0.00  0.00    -0.034 A 
ATOM     62  C30 non d ame     -29.484  13.189  22.052  0.00  0.00    -0.075 A 
ATOM     63  C31 non d ame     -29.152  14.520  21.800  0.00  0.00    -0.082 A 
ATOM     64  H49 non d ame     -29.081  12.397  21.420  0.00  0.00     0.084 H 
ATOM     65  C32 non d ame     -29.666  15.533  22.613  0.00  0.00    -0.083 A 
ATOM     66  H50 non d ame     -28.491  14.767  20.968  0.00  0.00     0.083 H 
ATOM     67  C33 non d ame     -30.506  15.210  23.670  0.00  0.00    -0.082 A 
ATOM     68  H51 non d ame     -29.413  16.576  22.422  0.00  0.00     0.083 H 
ATOM     69  C34 non d ame     -30.842  13.882  23.924  0.00  0.00    -0.075 A 
ATOM     70  H52 non d ame     -30.904  16.003  24.304  0.00  0.00     0.083 H 
ATOM     71  H53 non d ame     -31.503  13.636  24.756  0.00  0.00     0.084 H 
ENDBRANCH  58  61
ENDBRANCH  57  58
ENDBRANCH  55  57
ENDBRANCH  52  55
ENDBRANCH  49  52
ENDBRANCH  47  49
BRANCH  47  72
ATOM     72  C24 non d ame     -32.023   6.171  25.042  0.00  0.00    -0.039 C 
ATOM     73  H35 non d ame     -32.178   5.526  24.177  0.00  0.00     0.036 H 
ATOM     74  H36 non d ame     -31.055   6.186  25.543  0.00  0.00     0.036 H 
BRANCH  72  75
ATOM     75  C25 non d ame     -33.117   5.763  26.138  0.00  0.00    -0.001 C 
ATOM     76  C26 non d ame     -32.425   5.714  27.629  0.00  0.00    -0.035 C 
ATOM     77  C27 non d ame     -32.721   4.527  28.209  0.00  0.00     0.085 C 
ATOM     78  H38 non d ame     -31.339   5.688  27.536  0.00  0.00     0.036 H 
ATOM     79  H39 non d ame     -32.899   6.444  28.286  0.00  0.00     0.036 H 
ATOM     80  N5  non d ame     -33.275   3.632  27.126  0.00  0.00    -0.049 N 
ATOM     81  H40 non d ame     -31.768   4.123  28.551  0.00  0.00     0.075 H 
ATOM     82  H41 non d ame     -33.510   4.743  28.928  0.00  0.00     0.075 H 
ATOM     83  C28 non d ame     -33.623   4.603  25.884  0.00  0.00     0.193 C 
ATOM     84  H42 non d ame     -32.523   3.016  26.852  0.00  0.00     0.280 HD
ATOM     85  H43 non d ame     -34.137   3.248  27.486  0.00  0.00     0.280 HD
ATOM     86  H44 non d ame     -34.656   4.880  25.670  0.00  0.00     0.129 H 
ATOM     87  H37 non d ame     -34.037   6.339  26.037  0.00  0.00     0.046 H 
BRANCH  83  88
ATOM     88  O6  non d ame     -33.117   4.048  24.668  0.00  0.00    -0.369 OA
ATOM     89  H45 non d ame     -33.476   4.533  23.921  0.00  0.00     0.212 HD
ENDBRANCH  83  88
ENDBRANCH  72  75
ENDBRANCH  47  72
ENDBRANCH  45  47
ENDBRANCH   1  43
BRANCH   1  90
ATOM     90  C16 non d ame     -35.177  11.438  25.812  0.00  0.00    -0.035 C 
ATOM     91  H21 non d ame     -35.099  11.890  26.800  0.00  0.00     0.037 H 
ATOM     92  H22 non d ame     -34.424  11.652  25.053  0.00  0.00     0.037 H 
BRANCH  90  93
ATOM     93  C17 non d ame     -36.545  11.905  25.220  0.00  0.00    -0.059 C 
ATOM     94  H23 non d ame     -37.305  11.757  25.987  0.00  0.00     0.038 H 
BRANCH  93  95
ATOM     95  C18 non d ame     -36.537  13.422  24.843  0.00  0.00    -0.073 C 
ATOM     96  H24 non d ame     -36.060  13.553  23.873  0.00  0.00     0.028 H 
ATOM     97  H25 non d ame     -37.561  13.790  24.797  0.00  0.00     0.028 H 
ATOM     98  H26 non d ame     -35.984  13.980  25.598  0.00  0.00     0.028 H 
ENDBRANCH  93  95
BRANCH  93  99
ATOM     99  C19 non d ame     -36.941  11.047  24.015  0.00  0.00    -0.073 C 
ATOM    100  H27 non d ame     -36.142  11.070  23.274  0.00  0.00     0.028 H 
ATOM    101  H28 non d ame     -37.107  10.020  24.339  0.00  0.00     0.028 H 
ATOM    102  H29 non d ame     -37.857  11.441  23.574  0.00  0.00     0.028 H 
ENDBRANCH  93  99
ENDBRANCH  90  93
ENDBRANCH   1  90
TORSDOF 26
ENDMDL
MODEL 4
REMARK VINA RESULT:      -6.2      2.846      6.162
REMARK  26 active torsions:
REMARK  status: ('A' for Active; 'I' for Inactive)
REMARK    1  A    between atoms: C2_2  and  C3_3 
REMARK    2  A    between atoms: C4_6  and  C5_7 
REMARK       I    between atoms: C5_7  and  N2_9 
REMARK    3  A    between atoms: N2_9  and  C6_10 
REMARK    4  A    between atoms: C6_10  and  C7_11 
REMARK    5  A    between atoms: C6_10  and  C8_13 
REMARK       I    between atoms: C7_11  and  N3_14 
REMARK    6  A    between atoms: N3_14  and  C9_15 
REMARK    7  A    between atoms: C9_15  and  C10_16 
REMARK    8  A    between atoms: C9_15  and  C11_18 
REMARK       I    between atoms: C10_16  and  N4_21 
REMARK    9  A    between atoms: C11_18  and  C12_19 
REMARK   10  A    between atoms: C11_18  and  C13_20 
REMARK   11  A    between atoms: N4_21  and  C14_22 
REMARK   12  A    between atoms: C14_22  and  C15_23 
REMARK   13  A    between atoms: C14_22  and  C16_25 
REMARK       I    between atoms: C15_23  and  N6_40 
REMARK   14  A    between atoms: C16_25  and  C17_26 
REMARK   15  A    between atoms: C17_26  and  C18_27 
REMARK   16  A    between atoms: C17_26  and  C19_28 
REMARK   17  A    between atoms: C20_29  and  C21_30 
REMARK   18  A    between atoms: C20_29  and  C24_33 
REMARK   19  A    between atoms: C20_29  and  N6_40 
REMARK   20  A    between atoms: C21_30  and  C22_31 
REMARK   21  A    between atoms: C22_31  and  C23_32 
REMARK   22  A    between atoms: C23_32  and  O8_43 
REMARK   23  A    between atoms: C24_33  and  C25_34 
REMARK   24  A    between atoms: C28_38  and  O6_39 
REMARK   25  A    between atoms: C29_42  and  O8_43 
REMARK   26  A    between atoms: C29_42  and  C35_49 
ROOT
ATOM      1  C14 non d ame     -35.956  13.218  26.040  0.00  0.00     0.089 C 
ATOM      2  H20 non d ame     -36.677  13.026  26.835  0.00  0.00     0.087 H 
ENDROOT
BRANCH   1   3
ATOM      3  N4  non d ame     -35.792  14.661  25.936  0.00  0.00    -0.346 N 
ATOM      4  C10 non d ame     -36.863  15.588  26.452  0.00  0.00     0.241 C 
ATOM      5  O4  non d ame     -37.851  15.150  26.943  0.00  0.00    -0.271 OA
ATOM      6  H19 non d ame     -34.945  15.014  25.512  0.00  0.00     0.163 HD
BRANCH   4   7
ATOM      7  C9  non d ame     -36.675  17.078  26.341  0.00  0.00     0.092 C 
ATOM      8  H11 non d ame     -36.979  17.548  27.277  0.00  0.00     0.088 H 
BRANCH   7   9
ATOM      9  N3  non d ame     -35.253  17.378  26.149  0.00  0.00    -0.346 N 
ATOM     10  C7  non d ame     -34.426  17.709  27.283  0.00  0.00     0.240 C 
ATOM     11  O3  non d ame     -34.888  17.740  28.358  0.00  0.00    -0.271 OA
ATOM     12  H10 non d ame     -34.840  17.357  25.227  0.00  0.00     0.163 HD
BRANCH  10  13
ATOM     13  C6  non d ame     -32.914  18.030  27.071  0.00  0.00     0.086 C 
ATOM     14  H6  non d ame     -32.276  17.582  27.833  0.00  0.00     0.086 H 
BRANCH  13  15
ATOM     15  N2  non d ame     -32.489  17.477  25.796  0.00  0.00    -0.343 N 
ATOM     16  C5  non d ame     -31.800  16.185  25.763  0.00  0.00     0.273 C 
ATOM     17  O2  non d ame     -31.591  15.600  26.768  0.00  0.00    -0.266 OA
ATOM     18  H5  non d ame     -32.669  17.986  24.942  0.00  0.00     0.163 HD
BRANCH  16  19
ATOM     19  C4  non d ame     -31.347  15.588  24.422  0.00  0.00     0.154 A 
ATOM     20  C1  non d ame     -30.613  14.377  24.219  0.00  0.00    -0.017 A 
ATOM     21  C2  non d ame     -30.452  14.279  22.818  0.00  0.00     0.077 A 
ATOM     22  H1  non d ame     -30.252  13.675  24.972  0.00  0.00     0.091 H 
ATOM     23  O1  non d ame     -31.031  15.317  22.289  0.00  0.00    -0.218 OA
ATOM     24  N1  non d ame     -31.560  16.096  23.205  0.00  0.00    -0.123 NA
BRANCH  21  25
ATOM     25  C3  non d ame     -29.735  13.165  22.068  0.00  0.00    -0.029 C 
ATOM     26  H2  non d ame     -28.829  13.559  21.609  0.00  0.00     0.036 H 
ATOM     27  H3  non d ame     -29.472  12.369  22.765  0.00  0.00     0.036 H 
ATOM     28  H4  non d ame     -30.391  12.767  21.295  0.00  0.00     0.036 H 
ENDBRANCH  21  25
ENDBRANCH  16  19
ENDBRANCH  13  15
BRANCH  13  29
ATOM     29  C8  non d ame     -32.708  19.524  27.081  0.00  0.00    -0.049 C 
ATOM     30  H7  non d ame     -32.798  19.896  28.102  0.00  0.00     0.030 H 
ATOM     31  H8  non d ame     -31.716  19.756  26.696  0.00  0.00     0.030 H 
ATOM     32  H9  non d ame     -33.462  19.999  26.453  0.00  0.00     0.030 H 
ENDBRANCH  13  29
ENDBRANCH  10  13
ENDBRANCH   7   9
BRANCH   7  33
ATOM     33  C11 non d ame     -37.485  17.615  25.125  0.00  0.00    -0.033 C 
ATOM     34  H12 non d ame     -36.950  18.478  24.729  0.00  0.00     0.042 H 
BRANCH  33  35
ATOM     35  C12 non d ame     -37.570  16.553  23.986  0.00  0.00    -0.071 C 
ATOM     36  H13 non d ame     -38.285  15.778  24.263  0.00  0.00     0.028 H 
ATOM     37  H14 non d ame     -37.896  17.034  23.064  0.00  0.00     0.028 H 
ATOM     38  H15 non d ame     -36.589  16.103  23.834  0.00  0.00     0.028 H 
ENDBRANCH  33  35
BRANCH  33  39
ATOM     39  C13 non d ame     -38.907  18.089  25.566  0.00  0.00    -0.071 C 
ATOM     40  H16 non d ame     -39.238  17.499  26.421  0.00  0.00     0.028 H 
ATOM     41  H17 non d ame     -38.869  19.143  25.844  0.00  0.00     0.028 H 
ATOM     42  H18 non d ame     -39.606  17.958  24.740  0.00  0.00     0.028 H 
ENDBRANCH  33  39
ENDBRANCH   7  33
ENDBRANCH   4   7
ENDBRANCH   1   3
BRANCH   1  43
ATOM     43  C15 non d ame     -34.568  12.582  26.339  0.00  0.00     0.240 C 
ATOM     44  O5  non d ame     -33.584  13.070  25.884  0.00  0.00    -0.271 OA
ATOM     45  N6  non d ame     -34.465  11.370  27.200  0.00  0.00    -0.355 N 
ATOM     46  H46 non d ame     -35.293  10.950  27.596  0.00  0.00     0.162 HD
BRANCH  45  47
ATOM     47  C20 non d ame     -33.138  10.778  27.476  0.00  0.00     0.013 C 
ATOM     48  H30 non d ame     -32.381  11.442  27.058  0.00  0.00     0.072 H 
BRANCH  47  49
ATOM     49  C21 non d ame     -33.051   9.418  26.821  0.00  0.00    -0.038 C 
ATOM     50  H31 non d ame     -33.786   9.432  26.015  0.00  0.00     0.036 H 
ATOM     51  H32 non d ame     -31.996   9.268  26.593  0.00  0.00     0.036 H 
BRANCH  49  52
ATOM     52  C22 non d ame     -33.462   8.269  27.767  0.00  0.00     0.018 C 
ATOM     53  H33 non d ame     -32.640   7.555  27.738  0.00  0.00     0.048 H 
ATOM     54  H34 non d ame     -33.737   8.746  28.708  0.00  0.00     0.048 H 
BRANCH  52  55
ATOM     55  C23 non d ame     -34.722   7.491  27.297  0.00  0.00     0.259 C 
ATOM     56  O7  non d ame     -34.942   7.342  26.139  0.00  0.00    -0.265 OA
BRANCH  55  57
ATOM     57  O8  non d ame     -35.620   6.967  28.269  0.00  0.00    -0.317 OA
BRANCH  57  58
ATOM     58  C29 non d ame     -36.647   7.880  28.665  0.00  0.00     0.052 C 
ATOM     59  H47 non d ame     -36.651   8.666  27.909  0.00  0.00     0.082 H 
ATOM     60  H48 non d ame     -37.537   7.272  28.822  0.00  0.00     0.082 H 
BRANCH  58  61
ATOM     61  C35 non d ame     -36.234   8.507  30.023  0.00  0.00    -0.034 A 
ATOM     62  C30 non d ame     -36.568   9.826  30.312  0.00  0.00    -0.075 A 
ATOM     63  C31 non d ame     -36.197  10.389  31.532  0.00  0.00    -0.082 A 
ATOM     64  H49 non d ame     -37.121  10.418  29.583  0.00  0.00     0.084 H 
ATOM     65  C32 non d ame     -35.485   9.628  32.464  0.00  0.00    -0.083 A 
ATOM     66  H50 non d ame     -36.462  11.422  31.757  0.00  0.00     0.083 H 
ATOM     67  C33 non d ame     -35.151   8.313  32.169  0.00  0.00    -0.082 A 
ATOM     68  H51 non d ame     -35.191  10.060  33.420  0.00  0.00     0.083 H 
ATOM     69  C34 non d ame     -35.522   7.746  30.952  0.00  0.00    -0.075 A 
ATOM     70  H52 non d ame     -34.593   7.723  32.898  0.00  0.00     0.083 H 
ATOM     71  H53 non d ame     -35.256   6.712  30.729  0.00  0.00     0.084 H 
ENDBRANCH  58  61
ENDBRANCH  57  58
ENDBRANCH  55  57
ENDBRANCH  52  55
ENDBRANCH  49  52
ENDBRANCH  47  49
BRANCH  47  72
ATOM     72  C24 non d ame     -32.941  10.631  28.983  0.00  0.00    -0.039 C 
ATOM     73  H35 non d ame     -33.821  10.095  29.340  0.00  0.00     0.036 H 
ATOM     74  H36 non d ame     -31.951  10.194  29.106  0.00  0.00     0.036 H 
BRANCH  72  75
ATOM     75  C25 non d ame     -32.924  12.053  29.720  0.00  0.00    -0.001 C 
ATOM     76  C26 non d ame     -31.856  13.057  28.975  0.00  0.00    -0.035 C 
ATOM     77  C27 non d ame     -31.025  13.580  29.908  0.00  0.00     0.085 C 
ATOM     78  H38 non d ame     -31.189  12.483  28.333  0.00  0.00     0.036 H 
ATOM     79  H39 non d ame     -32.376  13.930  28.580  0.00  0.00     0.036 H 
ATOM     80  N5  non d ame     -31.217  12.776  31.171  0.00  0.00    -0.049 N 
ATOM     81  H40 non d ame     -30.017  13.410  29.528  0.00  0.00     0.075 H 
ATOM     82  H41 non d ame     -31.379  14.596  30.077  0.00  0.00     0.075 H 
ATOM     83  C28 non d ame     -32.578  11.934  30.959  0.00  0.00     0.193 C 
ATOM     84  H42 non d ame     -30.443  12.129  31.219  0.00  0.00     0.280 HD
ATOM     85  H43 non d ame     -31.364  13.443  31.915  0.00  0.00     0.280 HD
ATOM     86  H44 non d ame     -33.501  12.240  31.452  0.00  0.00     0.129 H 
ATOM     87  H37 non d ame     -33.928  12.440  29.896  0.00  0.00     0.046 H 
BRANCH  83  88
ATOM     88  O6  non d ame     -32.378  10.570  31.333  0.00  0.00    -0.369 OA
ATOM     89  H45 non d ame     -33.014  10.016  30.876  0.00  0.00     0.212 HD
ENDBRANCH  83  88
ENDBRANCH  72  75
ENDBRANCH  47  72
ENDBRANCH  45  47
ENDBRANCH   1  43
BRANCH   1  90
ATOM     90  C16 non d ame     -36.489  12.684  24.720  0.00  0.00    -0.035 C 
ATOM     91  H21 non d ame     -37.288  13.367  24.434  0.00  0.00     0.037 H 
ATOM     92  H22 non d ame     -35.614  12.570  24.080  0.00  0.00     0.037 H 
BRANCH  90  93
ATOM     93  C17 non d ame     -37.140  11.269  24.835  0.00  0.00    -0.059 C 
ATOM     94  H23 non d ame     -37.187  11.011  25.893  0.00  0.00     0.038 H 
BRANCH  93  95
ATOM     95  C18 non d ame     -38.598  11.244  24.274  0.00  0.00    -0.073 C 
ATOM     96  H24 non d ame     -39.139  12.121  24.627  0.00  0.00     0.028 H 
ATOM     97  H25 non d ame     -38.569  11.250  23.185  0.00  0.00     0.028 H 
ATOM     98  H26 non d ame     -39.104  10.342  24.618  0.00  0.00     0.028 H 
ENDBRANCH  93  95
BRANCH  93  99
ATOM     99  C19 non d ame     -36.274  10.211  24.146  0.00  0.00    -0.073 C 
ATOM    100  H27 non d ame     -36.677   9.219  24.354  0.00  0.00     0.028 H 
ATOM    101  H28 non d ame     -36.274  10.385  23.070  0.00  0.00     0.028 H 
ATOM    102  H29 non d ame     -35.254  10.275  24.524  0.00  0.00     0.028 H 
ENDBRANCH  93  99
ENDBRANCH  90  93
ENDBRANCH   1  90
TORSDOF 26
ENDMDL
MODEL 5
REMARK VINA RESULT:      -6.1      2.250      7.377
REMARK  26 active torsions:
REMARK  status: ('A' for Active; 'I' for Inactive)
REMARK    1  A    between atoms: C2_2  and  C3_3 
REMARK    2  A    between atoms: C4_6  and  C5_7 
REMARK       I    between atoms: C5_7  and  N2_9 
REMARK    3  A    between atoms: N2_9  and  C6_10 
REMARK    4  A    between atoms: C6_10  and  C7_11 
REMARK    5  A    between atoms: C6_10  and  C8_13 
REMARK       I    between atoms: C7_11  and  N3_14 
REMARK    6  A    between atoms: N3_14  and  C9_15 
REMARK    7  A    between atoms: C9_15  and  C10_16 
REMARK    8  A    between atoms: C9_15  and  C11_18 
REMARK       I    between atoms: C10_16  and  N4_21 
REMARK    9  A    between atoms: C11_18  and  C12_19 
REMARK   10  A    between atoms: C11_18  and  C13_20 
REMARK   11  A    between atoms: N4_21  and  C14_22 
REMARK   12  A    between atoms: C14_22  and  C15_23 
REMARK   13  A    between atoms: C14_22  and  C16_25 
REMARK       I    between atoms: C15_23  and  N6_40 
REMARK   14  A    between atoms: C16_25  and  C17_26 
REMARK   15  A    between atoms: C17_26  and  C18_27 
REMARK   16  A    between atoms: C17_26  and  C19_28 
REMARK   17  A    between atoms: C20_29  and  C21_30 
REMARK   18  A    between atoms: C20_29  and  C24_33 
REMARK   19  A    between atoms: C20_29  and  N6_40 
REMARK   20  A    between atoms: C21_30  and  C22_31 
REMARK   21  A    between atoms: C22_31  and  C23_32 
REMARK   22  A    between atoms: C23_32  and  O8_43 
REMARK   23  A    between atoms: C24_33  and  C25_34 
REMARK   24  A    between atoms: C28_38  and  O6_39 
REMARK   25  A    between atoms: C29_42  and  O8_43 
REMARK   26  A    between atoms: C29_42  and  C35_49 
ROOT
ATOM      1  C14 non d ame     -33.933  11.551  25.962  0.00  0.00     0.089 C 
ATOM      2  H20 non d ame     -34.365  11.819  24.997  0.00  0.00     0.087 H 
ENDROOT
BRANCH   1   3
ATOM      3  N4  non d ame     -33.179  10.320  25.777  0.00  0.00    -0.346 N 
ATOM      4  C10 non d ame     -33.614   9.308  24.748  0.00  0.00     0.241 C 
ATOM      5  O4  non d ame     -34.577   9.505  24.082  0.00  0.00    -0.271 OA
ATOM      6  H19 non d ame     -32.365  10.171  26.356  0.00  0.00     0.163 HD
BRANCH   4   7
ATOM      7  C9  non d ame     -32.819   8.042  24.567  0.00  0.00     0.092 C 
ATOM      8  H11 non d ame     -33.295   7.425  23.804  0.00  0.00     0.088 H 
BRANCH   7   9
ATOM      9  N3  non d ame     -31.476   8.373  24.081  0.00  0.00    -0.346 N 
ATOM     10  C7  non d ame     -31.221   8.448  22.663  0.00  0.00     0.240 C 
ATOM     11  O3  non d ame     -32.085   8.243  21.900  0.00  0.00    -0.271 OA
ATOM     12  H10 non d ame     -30.721   8.550  24.727  0.00  0.00     0.163 HD
BRANCH  10  13
ATOM     13  C6  non d ame     -29.789   8.798  22.152  0.00  0.00     0.086 C 
ATOM     14  H6  non d ame     -29.517   8.248  21.251  0.00  0.00     0.086 H 
BRANCH  13  15
ATOM     15  N2  non d ame     -29.744  10.209  21.807  0.00  0.00    -0.343 N 
ATOM     16  C5  non d ame     -30.032  11.212  22.835  0.00  0.00     0.273 C 
ATOM     17  O2  non d ame     -30.302  10.873  23.935  0.00  0.00    -0.266 OA
ATOM     18  H5  non d ame     -29.514  10.489  20.864  0.00  0.00     0.163 HD
BRANCH  16  19
ATOM     19  C4  non d ame     -29.986  12.708  22.485  0.00  0.00     0.154 A 
ATOM     20  C1  non d ame     -30.861  13.735  22.961  0.00  0.00    -0.017 A 
ATOM     21  C2  non d ame     -30.398  14.920  22.348  0.00  0.00     0.077 A 
ATOM     22  H1  non d ame     -31.703  13.635  23.647  0.00  0.00     0.091 H 
ATOM     23  O1  non d ame     -29.376  14.601  21.609  0.00  0.00    -0.218 OA
ATOM     24  N1  non d ame     -29.116  13.315  21.673  0.00  0.00    -0.123 NA
BRANCH  21  25
ATOM     25  C3  non d ame     -30.987  16.314  22.521  0.00  0.00    -0.029 C 
ATOM     26  H2  non d ame     -31.988  16.342  22.092  0.00  0.00     0.036 H 
ATOM     27  H3  non d ame     -31.040  16.556  23.582  0.00  0.00     0.036 H 
ATOM     28  H4  non d ame     -30.354  17.042  22.014  0.00  0.00     0.036 H 
ENDBRANCH  21  25
ENDBRANCH  16  19
ENDBRANCH  13  15
BRANCH  13  29
ATOM     29  C8  non d ame     -28.780   8.497  23.231  0.00  0.00    -0.049 C 
ATOM     30  H7  non d ame     -28.457   7.459  23.146  0.00  0.00     0.030 H 
ATOM     31  H8  non d ame     -27.920   9.155  23.117  0.00  0.00     0.030 H 
ATOM     32  H9  non d ame     -29.234   8.657  24.209  0.00  0.00     0.030 H 
ENDBRANCH  13  29
ENDBRANCH  10  13
ENDBRANCH   7   9
BRANCH   7  33
ATOM     33  C11 non d ame     -32.706   7.301  25.931  0.00  0.00    -0.033 C 
ATOM     34  H12 non d ame     -32.097   7.918  26.591  0.00  0.00     0.042 H 
BRANCH  33  35
ATOM     35  C12 non d ame     -34.103   7.132  26.604  0.00  0.00    -0.071 C 
ATOM     36  H13 non d ame     -34.109   7.646  27.565  0.00  0.00     0.028 H 
ATOM     37  H14 non d ame     -34.871   7.559  25.960  0.00  0.00     0.028 H 
ATOM     38  H15 non d ame     -34.306   6.072  26.759  0.00  0.00     0.028 H 
ENDBRANCH  33  35
BRANCH  33  39
ATOM     39  C13 non d ame     -31.988   5.923  25.762  0.00  0.00    -0.071 C 
ATOM     40  H16 non d ame     -31.099   5.896  26.391  0.00  0.00     0.028 H 
ATOM     41  H17 non d ame     -32.667   5.121  26.056  0.00  0.00     0.028 H 
ATOM     42  H18 non d ame     -31.701   5.789  24.719  0.00  0.00     0.028 H 
ENDBRANCH  33  39
ENDBRANCH   7  33
ENDBRANCH   4   7
ENDBRANCH   1   3
BRANCH   1  43
ATOM     43  C15 non d ame     -32.968  12.648  26.498  0.00  0.00     0.240 C 
ATOM     44  O5  non d ame     -31.871  12.739  26.050  0.00  0.00    -0.271 OA
ATOM     45  N6  non d ame     -33.415  13.589  27.564  0.00  0.00    -0.355 N 
ATOM     46  H46 non d ame     -34.347  13.524  27.948  0.00  0.00     0.162 HD
BRANCH  45  47
ATOM     47  C20 non d ame     -32.487  14.626  28.062  0.00  0.00     0.013 C 
ATOM     48  H30 non d ame     -31.598  14.612  27.431  0.00  0.00     0.072 H 
BRANCH  47  49
ATOM     49  C21 non d ame     -32.110  14.315  29.493  0.00  0.00    -0.038 C 
ATOM     50  H31 non d ame     -31.795  15.263  29.928  0.00  0.00     0.036 H 
ATOM     51  H32 non d ame     -32.961  13.778  29.911  0.00  0.00     0.036 H 
BRANCH  49  52
ATOM     52  C22 non d ame     -30.899  13.363  29.599  0.00  0.00     0.018 C 
ATOM     53  H33 non d ame     -30.780  12.923  28.610  0.00  0.00     0.048 H 
ATOM     54  H34 non d ame     -30.093  13.957  30.032  0.00  0.00     0.048 H 
BRANCH  52  55
ATOM     55  C23 non d ame     -31.122  12.172  30.572  0.00  0.00     0.259 C 
ATOM     56  O7  non d ame     -30.199  11.649  31.108  0.00  0.00    -0.265 OA
BRANCH  55  57
ATOM     57  O8  non d ame     -32.444  11.702  30.807  0.00  0.00    -0.317 OA
BRANCH  57  58
ATOM     58  C29 non d ame     -32.868  10.680  29.901  0.00  0.00     0.052 C 
ATOM     59  H47 non d ame     -33.171  11.199  28.992  0.00  0.00     0.082 H 
ATOM     60  H48 non d ame     -32.054   9.956  29.871  0.00  0.00     0.082 H 
BRANCH  58  61
ATOM     61  C35 non d ame     -34.117   9.989  30.510  0.00  0.00    -0.034 A 
ATOM     62  C30 non d ame     -34.698  10.495  31.669  0.00  0.00    -0.075 A 
ATOM     63  C31 non d ame     -35.820   9.874  32.216  0.00  0.00    -0.082 A 
ATOM     64  H49 non d ame     -34.275  11.378  32.148  0.00  0.00     0.084 H 
ATOM     65  C32 non d ame     -36.359   8.740  31.602  0.00  0.00    -0.083 A 
ATOM     66  H50 non d ame     -36.274  10.274  33.123  0.00  0.00     0.083 H 
ATOM     67  C33 non d ame     -35.774   8.237  30.448  0.00  0.00    -0.082 A 
ATOM     68  H51 non d ame     -37.236   8.249  32.023  0.00  0.00     0.083 H 
ATOM     69  C34 non d ame     -34.654   8.856  29.896  0.00  0.00    -0.075 A 
ATOM     70  H52 non d ame     -36.196   7.351  29.973  0.00  0.00     0.083 H 
ATOM     71  H53 non d ame     -34.201   8.455  28.989  0.00  0.00     0.084 H 
ENDBRANCH  58  61
ENDBRANCH  57  58
ENDBRANCH  55  57
ENDBRANCH  52  55
ENDBRANCH  49  52
ENDBRANCH  47  49
BRANCH  47  72
ATOM     72  C24 non d ame     -33.160  15.996  27.999  0.00  0.00    -0.039 C 
ATOM     73  H35 non d ame     -34.208  15.815  28.241  0.00  0.00     0.036 H 
ATOM     74  H36 non d ame     -32.558  16.645  28.635  0.00  0.00     0.036 H 
BRANCH  72  75
ATOM     75  C25 non d ame     -33.115  16.611  26.520  0.00  0.00    -0.001 C 
ATOM     76  C26 non d ame     -32.488  18.130  26.564  0.00  0.00    -0.035 C 
ATOM     77  C27 non d ame     -33.327  18.968  25.910  0.00  0.00     0.085 C 
ATOM     78  H38 non d ame     -32.496  18.508  27.586  0.00  0.00     0.036 H 
ATOM     79  H39 non d ame     -31.573  18.174  25.973  0.00  0.00     0.036 H 
ATOM     80  N5  non d ame     -34.625  18.224  25.708  0.00  0.00    -0.049 N 
ATOM     81  H40 non d ame     -33.497  19.801  26.592  0.00  0.00     0.075 H 
ATOM     82  H41 non d ame     -32.864  19.144  24.939  0.00  0.00     0.075 H 
ATOM     83  C28 non d ame     -34.297  16.671  26.003  0.00  0.00     0.193 C 
ATOM     84  H42 non d ame     -35.261  18.559  26.417  0.00  0.00     0.280 HD
ATOM     85  H43 non d ame     -34.862  18.322  24.731  0.00  0.00     0.280 HD
ATOM     86  H44 non d ame     -34.191  15.961  25.182  0.00  0.00     0.129 H 
ATOM     87  H37 non d ame     -32.685  15.917  25.797  0.00  0.00     0.046 H 
BRANCH  83  88
ATOM     88  O6  non d ame     -35.291  16.112  26.864  0.00  0.00    -0.369 OA
ATOM     89  H45 non d ame     -34.878  15.812  27.677  0.00  0.00     0.212 HD
ENDBRANCH  83  88
ENDBRANCH  72  75
ENDBRANCH  47  72
ENDBRANCH  45  47
ENDBRANCH   1  43
BRANCH   1  90
ATOM     90  C16 non d ame     -35.042  11.308  26.973  0.00  0.00    -0.035 C 
ATOM     91  H21 non d ame     -35.287  10.250  26.883  0.00  0.00     0.037 H 
ATOM     92  H22 non d ame     -34.664  11.701  27.917  0.00  0.00     0.037 H 
BRANCH  90  93
ATOM     93  C17 non d ame     -36.356  12.092  26.663  0.00  0.00    -0.059 C 
ATOM     94  H23 non d ame     -36.198  13.131  26.954  0.00  0.00     0.038 H 
BRANCH  93  95
ATOM     95  C18 non d ame     -36.710  12.072  25.141  0.00  0.00    -0.073 C 
ATOM     96  H24 non d ame     -35.798  12.180  24.555  0.00  0.00     0.028 H 
ATOM     97  H25 non d ame     -37.191  11.127  24.892  0.00  0.00     0.028 H 
ATOM     98  H26 non d ame     -37.387  12.896  24.915  0.00  0.00     0.028 H 
ENDBRANCH  93  95
BRANCH  93  99
ATOM     99  C19 non d ame     -37.522  11.559  27.500  0.00  0.00    -0.073 C 
ATOM    100  H27 non d ame     -38.216  11.019  26.855  0.00  0.00     0.028 H 
ATOM    101  H28 non d ame     -37.140  10.885  28.267  0.00  0.00     0.028 H 
ATOM    102  H29 non d ame     -38.040  12.392  27.974  0.00  0.00     0.028 H 
ENDBRANCH  93  99
ENDBRANCH  90  93
ENDBRANCH   1  90
TORSDOF 26
ENDMDL
MODEL 6
REMARK VINA RESULT:      -6.0      2.138      3.298
REMARK  26 active torsions:
REMARK  status: ('A' for Active; 'I' for Inactive)
REMARK    1  A    between atoms: C2_2  and  C3_3 
REMARK    2  A    between atoms: C4_6  and  C5_7 
REMARK       I    between atoms: C5_7  and  N2_9 
REMARK    3  A    between atoms: N2_9  and  C6_10 
REMARK    4  A    between atoms: C6_10  and  C7_11 
REMARK    5  A    between atoms: C6_10  and  C8_13 
REMARK       I    between atoms: C7_11  and  N3_14 
REMARK    6  A    between atoms: N3_14  and  C9_15 
REMARK    7  A    between atoms: C9_15  and  C10_16 
REMARK    8  A    between atoms: C9_15  and  C11_18 
REMARK       I    between atoms: C10_16  and  N4_21 
REMARK    9  A    between atoms: C11_18  and  C12_19 
REMARK   10  A    between atoms: C11_18  and  C13_20 
REMARK   11  A    between atoms: N4_21  and  C14_22 
REMARK   12  A    between atoms: C14_22  and  C15_23 
REMARK   13  A    between atoms: C14_22  and  C16_25 
REMARK       I    between atoms: C15_23  and  N6_40 
REMARK   14  A    between atoms: C16_25  and  C17_26 
REMARK   15  A    between atoms: C17_26  and  C18_27 
REMARK   16  A    between atoms: C17_26  and  C19_28 
REMARK   17  A    between atoms: C20_29  and  C21_30 
REMARK   18  A    between atoms: C20_29  and  C24_33 
REMARK   19  A    between atoms: C20_29  and  N6_40 
REMARK   20  A    between atoms: C21_30  and  C22_31 
REMARK   21  A    between atoms: C22_31  and  C23_32 
REMARK   22  A    between atoms: C23_32  and  O8_43 
REMARK   23  A    between atoms: C24_33  and  C25_34 
REMARK   24  A    between atoms: C28_38  and  O6_39 
REMARK   25  A    between atoms: C29_42  and  O8_43 
REMARK   26  A    between atoms: C29_42  and  C35_49 
ROOT
ATOM      1  C14 non d ame     -33.208   9.190  27.694  0.00  0.00     0.089 C 
ATOM      2  H20 non d ame     -32.178   8.834  27.723  0.00  0.00     0.087 H 
ENDROOT
BRANCH   1   3
ATOM      3  N4  non d ame     -33.181  10.626  27.931  0.00  0.00    -0.346 N 
ATOM      4  C10 non d ame     -32.109  11.482  27.305  0.00  0.00     0.241 C 
ATOM      5  O4  non d ame     -31.276  10.991  26.616  0.00  0.00    -0.271 OA
ATOM      6  H19 non d ame     -33.898  11.024  28.522  0.00  0.00     0.163 HD
BRANCH   4   7
ATOM      7  C9  non d ame     -32.100  12.967  27.556  0.00  0.00     0.092 C 
ATOM      8  H11 non d ame     -31.300  13.424  26.974  0.00  0.00     0.088 H 
BRANCH   7   9
ATOM      9  N3  non d ame     -33.362  13.549  27.089  0.00  0.00    -0.346 N 
ATOM     10  C7  non d ame     -33.419  14.215  25.811  0.00  0.00     0.240 C 
ATOM     11  O3  non d ame     -32.459  14.293  25.146  0.00  0.00    -0.271 OA
ATOM     12  H10 non d ame     -34.198  13.492  27.652  0.00  0.00     0.163 HD
BRANCH  10  13
ATOM     13  C6  non d ame     -34.764  14.836  25.321  0.00  0.00     0.086 C 
ATOM     14  H6  non d ame     -35.012  14.551  24.298  0.00  0.00     0.086 H 
BRANCH  13  15
ATOM     15  N2  non d ame     -35.843  14.346  26.162  0.00  0.00    -0.343 N 
ATOM     16  C5  non d ame     -36.743  13.310  25.651  0.00  0.00     0.273 C 
ATOM     17  O2  non d ame     -36.591  12.878  24.561  0.00  0.00    -0.266 OA
ATOM     18  H5  non d ame     -35.967  14.722  27.091  0.00  0.00     0.163 HD
BRANCH  16  19
ATOM     19  C4  non d ame     -37.887  12.782  26.530  0.00  0.00     0.154 A 
ATOM     20  C1  non d ame     -38.132  11.423  26.906  0.00  0.00    -0.017 A 
ATOM     21  C2  non d ame     -39.293  11.472  27.710  0.00  0.00     0.077 A 
ATOM     22  H1  non d ame     -37.557  10.537  26.636  0.00  0.00     0.091 H 
ATOM     23  O1  non d ame     -39.662  12.717  27.783  0.00  0.00    -0.218 OA
ATOM     24  N1  non d ame     -38.857  13.501  27.102  0.00  0.00    -0.123 NA
BRANCH  21  25
ATOM     25  C3  non d ame     -39.983  10.286  28.371  0.00  0.00    -0.029 C 
ATOM     26  H2  non d ame     -39.710  10.247  29.425  0.00  0.00     0.036 H 
ATOM     27  H3  non d ame     -41.063  10.397  28.279  0.00  0.00     0.036 H 
ATOM     28  H4  non d ame     -39.671   9.364  27.880  0.00  0.00     0.036 H 
ENDBRANCH  21  25
ENDBRANCH  16  19
ENDBRANCH  13  15
BRANCH  13  29
ATOM     29  C8  non d ame     -34.686  16.339  25.403  0.00  0.00    -0.049 C 
ATOM     30  H7  non d ame     -34.886  16.658  26.426  0.00  0.00     0.030 H 
ATOM     31  H8  non d ame     -33.690  16.668  25.108  0.00  0.00     0.030 H 
ATOM     32  H9  non d ame     -35.427  16.779  24.734  0.00  0.00     0.030 H 
ENDBRANCH  13  29
ENDBRANCH  10  13
ENDBRANCH   7   9
BRANCH   7  33
ATOM     33  C11 non d ame     -31.942  13.234  29.081  0.00  0.00    -0.033 C 
ATOM     34  H12 non d ame     -32.814  12.812  29.581  0.00  0.00     0.042 H 
BRANCH  33  35
ATOM     35  C12 non d ame     -30.681  12.517  29.656  0.00  0.00    -0.071 C 
ATOM     36  H13 non d ame     -29.836  13.207  29.650  0.00  0.00     0.028 H 
ATOM     37  H14 non d ame     -30.880  12.195  30.678  0.00  0.00     0.028 H 
ATOM     38  H15 non d ame     -30.444  11.649  29.041  0.00  0.00     0.028 H 
ENDBRANCH  33  35
BRANCH  33  39
ATOM     39  C13 non d ame     -31.908  14.767  29.380  0.00  0.00    -0.071 C 
ATOM     40  H16 non d ame     -31.108  14.981  30.089  0.00  0.00     0.028 H 
ATOM     41  H17 non d ame     -31.729  15.314  28.454  0.00  0.00     0.028 H 
ATOM     42  H18 non d ame     -32.863  15.076  29.805  0.00  0.00     0.028 H 
ENDBRANCH  33  39
ENDBRANCH   7  33
ENDBRANCH   4   7
ENDBRANCH   1   3
BRANCH   1  43
ATOM     43  C15 non d ame     -33.882   8.928  26.317  0.00  0.00     0.240 C 
ATOM     44  O5  non d ame     -35.058   9.057  26.200  0.00  0.00    -0.271 OA
ATOM     45  N6  non d ame     -33.060   8.523  25.141  0.00  0.00    -0.355 N 
ATOM     46  H46 non d ame     -32.060   8.415  25.227  0.00  0.00     0.162 HD
BRANCH  45  47
ATOM     47  C20 non d ame     -33.715   8.279  23.838  0.00  0.00     0.013 C 
ATOM     48  H30 non d ame     -34.673   8.799  23.842  0.00  0.00     0.072 H 
BRANCH  47  49
ATOM     49  C21 non d ame     -33.935   6.793  23.661  0.00  0.00    -0.038 C 
ATOM     50  H31 non d ame     -34.941   6.598  24.033  0.00  0.00     0.036 H 
ATOM     51  H32 non d ame     -33.688   6.582  22.620  0.00  0.00     0.036 H 
BRANCH  49  52
ATOM     52  C22 non d ame     -32.978   5.939  24.519  0.00  0.00     0.018 C 
ATOM     53  H33 non d ame     -32.491   5.254  23.826  0.00  0.00     0.048 H 
ATOM     54  H34 non d ame     -32.382   6.649  25.093  0.00  0.00     0.048 H 
BRANCH  52  55
ATOM     55  C23 non d ame     -33.702   5.046  25.564  0.00  0.00     0.259 C 
ATOM     56  O7  non d ame     -33.422   3.896  25.673  0.00  0.00    -0.265 OA
BRANCH  55  57
ATOM     57  O8  non d ame     -34.715   5.615  26.385  0.00  0.00    -0.317 OA
BRANCH  57  58
ATOM     58  C29 non d ame     -35.505   4.651  27.087  0.00  0.00     0.052 C 
ATOM     59  H47 non d ame     -36.513   4.744  26.681  0.00  0.00     0.082 H 
ATOM     60  H48 non d ame     -34.967   3.708  26.999  0.00  0.00     0.082 H 
BRANCH  58  61
ATOM     61  C35 non d ame     -35.540   5.059  28.584  0.00  0.00    -0.034 A 
ATOM     62  C30 non d ame     -34.394   4.940  29.364  0.00  0.00    -0.075 A 
ATOM     63  C31 non d ame     -34.425   5.306  30.709  0.00  0.00    -0.082 A 
ATOM     64  H49 non d ame     -33.473   4.560  28.923  0.00  0.00     0.084 H 
ATOM     65  C32 non d ame     -35.608   5.790  31.274  0.00  0.00    -0.083 A 
ATOM     66  H50 non d ame     -33.525   5.213  31.318  0.00  0.00     0.083 H 
ATOM     67  C33 non d ame     -36.749   5.904  30.492  0.00  0.00    -0.082 A 
ATOM     68  H51 non d ame     -35.640   6.079  32.324  0.00  0.00     0.083 H 
ATOM     69  C34 non d ame     -36.723   5.542  29.147  0.00  0.00    -0.075 A 
ATOM     70  H52 non d ame     -37.671   6.281  30.936  0.00  0.00     0.083 H 
ATOM     71  H53 non d ame     -37.623   5.635  28.538  0.00  0.00     0.084 H 
ENDBRANCH  58  61
ENDBRANCH  57  58
ENDBRANCH  55  57
ENDBRANCH  52  55
ENDBRANCH  49  52
ENDBRANCH  47  49
BRANCH  47  72
ATOM     72  C24 non d ame     -32.831   8.802  22.709  0.00  0.00    -0.039 C 
ATOM     73  H35 non d ame     -32.833   8.018  21.951  0.00  0.00     0.036 H 
ATOM     74  H36 non d ame     -33.221   9.791  22.469  0.00  0.00     0.036 H 
BRANCH  72  75
ATOM     75  C25 non d ame     -31.313   8.995  23.185  0.00  0.00    -0.001 C 
ATOM     76  C26 non d ame     -30.933  10.595  23.207  0.00  0.00    -0.035 C 
ATOM     77  C27 non d ame     -29.785  10.780  22.511  0.00  0.00     0.085 C 
ATOM     78  H38 non d ame     -31.669  11.162  22.639  0.00  0.00     0.036 H 
ATOM     79  H39 non d ame     -30.669  10.903  24.219  0.00  0.00     0.036 H 
ATOM     80  N5  non d ame     -29.525   9.507  21.743  0.00  0.00    -0.049 N 
ATOM     81  H40 non d ame     -29.999  11.583  21.806  0.00  0.00     0.075 H 
ATOM     82  H41 non d ame     -29.007  10.906  23.262  0.00  0.00     0.075 H 
ATOM     83  C28 non d ame     -30.494   8.390  22.391  0.00  0.00     0.193 C 
ATOM     84  H42 non d ame     -29.823   9.679  20.793  0.00  0.00     0.280 HD
ATOM     85  H43 non d ame     -28.566   9.250  21.932  0.00  0.00     0.280 HD
ATOM     86  H44 non d ame     -30.092   7.631  23.063  0.00  0.00     0.129 H 
ATOM     87  H37 non d ame     -31.086   8.419  24.082  0.00  0.00     0.046 H 
BRANCH  83  88
ATOM     88  O6  non d ame     -31.173   7.669  21.362  0.00  0.00    -0.369 OA
ATOM     89  H45 non d ame     -31.507   8.286  20.706  0.00  0.00     0.212 HD
ENDBRANCH  83  88
ENDBRANCH  72  75
ENDBRANCH  47  72
ENDBRANCH  45  47
ENDBRANCH   1  43
BRANCH   1  90
ATOM     90  C16 non d ame     -34.016   8.521  28.795  0.00  0.00    -0.035 C 
ATOM     91  H21 non d ame     -34.769   7.926  28.279  0.00  0.00     0.037 H 
ATOM     92  H22 non d ame     -33.281   8.034  29.436  0.00  0.00     0.037 H 
BRANCH  90  93
ATOM     93  C17 non d ame     -34.794   9.527  29.701  0.00  0.00    -0.059 C 
ATOM     94  H23 non d ame     -34.471  10.533  29.433  0.00  0.00     0.038 H 
BRANCH  93  95
ATOM     95  C18 non d ame     -36.339   9.448  29.477  0.00  0.00    -0.073 C 
ATOM     96  H24 non d ame     -36.543   9.160  28.447  0.00  0.00     0.028 H 
ATOM     97  H25 non d ame     -36.766   8.707  30.152  0.00  0.00     0.028 H 
ATOM     98  H26 non d ame     -36.785  10.422  29.678  0.00  0.00     0.028 H 
ENDBRANCH  93  95
BRANCH  93  99
ATOM     99  C19 non d ame     -34.446   9.316  31.177  0.00  0.00    -0.073 C 
ATOM    100  H27 non d ame     -33.614   9.966  31.450  0.00  0.00     0.028 H 
ATOM    101  H28 non d ame     -35.313   9.557  31.793  0.00  0.00     0.028 H 
ATOM    102  H29 non d ame     -34.164   8.276  31.338  0.00  0.00     0.028 H 
ENDBRANCH  93  99
ENDBRANCH  90  93
ENDBRANCH   1  90
TORSDOF 26
ENDMDL
MODEL 7
REMARK VINA RESULT:      -6.0      2.812      9.661
REMARK  26 active torsions:
REMARK  status: ('A' for Active; 'I' for Inactive)
REMARK    1  A    between atoms: C2_2  and  C3_3 
REMARK    2  A    between atoms: C4_6  and  C5_7 
REMARK       I    between atoms: C5_7  and  N2_9 
REMARK    3  A    between atoms: N2_9  and  C6_10 
REMARK    4  A    between atoms: C6_10  and  C7_11 
REMARK    5  A    between atoms: C6_10  and  C8_13 
REMARK       I    between atoms: C7_11  and  N3_14 
REMARK    6  A    between atoms: N3_14  and  C9_15 
REMARK    7  A    between atoms: C9_15  and  C10_16 
REMARK    8  A    between atoms: C9_15  and  C11_18 
REMARK       I    between atoms: C10_16  and  N4_21 
REMARK    9  A    between atoms: C11_18  and  C12_19 
REMARK   10  A    between atoms: C11_18  and  C13_20 
REMARK   11  A    between atoms: N4_21  and  C14_22 
REMARK   12  A    between atoms: C14_22  and  C15_23 
REMARK   13  A    between atoms: C14_22  and  C16_25 
REMARK       I    between atoms: C15_23  and  N6_40 
REMARK   14  A    between atoms: C16_25  and  C17_26 
REMARK   15  A    between atoms: C17_26  and  C18_27 
REMARK   16  A    between atoms: C17_26  and  C19_28 
REMARK   17  A    between atoms: C20_29  and  C21_30 
REMARK   18  A    between atoms: C20_29  and  C24_33 
REMARK   19  A    between atoms: C20_29  and  N6_40 
REMARK   20  A    between atoms: C21_30  and  C22_31 
REMARK   21  A    between atoms: C22_31  and  C23_32 
REMARK   22  A    between atoms: C23_32  and  O8_43 
REMARK   23  A    between atoms: C24_33  and  C25_34 
REMARK   24  A    between atoms: C28_38  and  O6_39 
REMARK   25  A    between atoms: C29_42  and  O8_43 
REMARK   26  A    between atoms: C29_42  and  C35_49 
ROOT
ATOM      1  C14 non d ame     -33.016   8.857  24.591  0.00  0.00     0.089 C 
ATOM      2  H20 non d ame     -32.022   8.846  25.037  0.00  0.00     0.087 H 
ENDROOT
BRANCH   1   3
ATOM      3  N4  non d ame     -33.567   7.516  24.711  0.00  0.00    -0.346 N 
ATOM      4  C10 non d ame     -32.685   6.365  25.128  0.00  0.00     0.241 C 
ATOM      5  O4  non d ame     -31.534   6.544  25.357  0.00  0.00    -0.271 OA
ATOM      6  H19 non d ame     -34.548   7.384  24.509  0.00  0.00     0.163 HD
BRANCH   4   7
ATOM      7  C9  non d ame     -33.272   4.984  25.253  0.00  0.00     0.092 C 
ATOM      8  H11 non d ame     -32.518   4.309  25.658  0.00  0.00     0.088 H 
BRANCH   7   9
ATOM      9  N3  non d ame     -34.386   5.011  26.205  0.00  0.00    -0.346 N 
ATOM     10  C7  non d ame     -34.135   4.822  27.613  0.00  0.00     0.240 C 
ATOM     11  O3  non d ame     -33.043   4.645  27.996  0.00  0.00    -0.271 OA
ATOM     12  H10 non d ame     -35.334   5.161  25.890  0.00  0.00     0.163 HD
BRANCH  10  13
ATOM     13  C6  non d ame     -35.325   4.848  28.622  0.00  0.00     0.086 C 
ATOM     14  H6  non d ame     -35.176   4.177  29.468  0.00  0.00     0.086 H 
BRANCH  13  15
ATOM     15  N2  non d ame     -35.448   6.188  29.171  0.00  0.00    -0.343 N 
ATOM     16  C5  non d ame     -35.967   6.367  30.529  0.00  0.00     0.273 C 
ATOM     17  O2  non d ame     -36.286   5.427  31.170  0.00  0.00    -0.266 OA
ATOM     18  H5  non d ame     -35.176   6.987  28.615  0.00  0.00     0.163 HD
BRANCH  16  19
ATOM     19  C4  non d ame     -36.101   7.778  31.122  0.00  0.00     0.154 A 
ATOM     20  C1  non d ame     -35.047   8.614  31.610  0.00  0.00    -0.017 A 
ATOM     21  C2  non d ame     -35.691   9.795  32.043  0.00  0.00     0.077 A 
ATOM     22  H1  non d ame     -33.979   8.398  31.645  0.00  0.00     0.091 H 
ATOM     23  O1  non d ame     -36.964   9.645  31.823  0.00  0.00    -0.218 OA
ATOM     24  N1  non d ame     -37.228   8.476  31.287  0.00  0.00    -0.123 NA
BRANCH  21  25
ATOM     25  C3  non d ame     -35.017  11.018  32.652  0.00  0.00    -0.029 C 
ATOM     26  H2  non d ame     -34.726  10.799  33.679  0.00  0.00     0.036 H 
ATOM     27  H3  non d ame     -34.131  11.272  32.070  0.00  0.00     0.036 H 
ATOM     28  H4  non d ame     -35.711  11.858  32.642  0.00  0.00     0.036 H 
ENDBRANCH  21  25
ENDBRANCH  16  19
ENDBRANCH  13  15
BRANCH  13  29
ATOM     29  C8  non d ame     -36.598   4.462  27.912  0.00  0.00    -0.049 C 
ATOM     30  H7  non d ame     -37.455   4.805  28.492  0.00  0.00     0.030 H 
ATOM     31  H8  non d ame     -36.618   4.925  26.926  0.00  0.00     0.030 H 
ATOM     32  H9  non d ame     -36.641   3.378  27.806  0.00  0.00     0.030 H 
ENDBRANCH  13  29
ENDBRANCH  10  13
ENDBRANCH   7   9
BRANCH   7  33
ATOM     33  C11 non d ame     -33.793   4.514  23.863  0.00  0.00    -0.033 C 
ATOM     34  H12 non d ame     -34.681   5.101  23.629  0.00  0.00     0.042 H 
BRANCH  33  35
ATOM     35  C12 non d ame     -32.743   4.786  22.741  0.00  0.00    -0.071 C 
ATOM     36  H13 non d ame     -32.730   3.947  22.045  0.00  0.00     0.028 H 
ATOM     37  H14 non d ame     -33.010   5.697  22.207  0.00  0.00     0.028 H 
ATOM     38  H15 non d ame     -31.756   4.901  23.188  0.00  0.00     0.028 H 
ENDBRANCH  33  35
BRANCH  33  39
ATOM     39  C13 non d ame     -34.205   3.007  23.901  0.00  0.00    -0.071 C 
ATOM     40  H16 non d ame     -35.144   2.901  24.444  0.00  0.00     0.028 H 
ATOM     41  H17 non d ame     -34.331   2.640  22.882  0.00  0.00     0.028 H 
ATOM     42  H18 non d ame     -33.428   2.430  24.401  0.00  0.00     0.028 H 
ENDBRANCH  33  39
ENDBRANCH   7  33
ENDBRANCH   4   7
ENDBRANCH   1   3
BRANCH   1  43
ATOM     43  C15 non d ame     -33.972   9.851  25.312  0.00  0.00     0.240 C 
ATOM     44  O5  non d ame     -35.147   9.686  25.257  0.00  0.00    -0.271 OA
ATOM     45  N6  non d ame     -33.420  11.005  26.078  0.00  0.00    -0.355 N 
ATOM     46  H46 non d ame     -32.423  11.153  26.135  0.00  0.00     0.162 HD
BRANCH  45  47
ATOM     47  C20 non d ame     -34.341  11.940  26.759  0.00  0.00     0.013 C 
ATOM     48  H30 non d ame     -35.198  11.368  27.114  0.00  0.00     0.072 H 
BRANCH  47  49
ATOM     49  C21 non d ame     -34.797  12.996  25.777  0.00  0.00    -0.038 C 
ATOM     50  H31 non d ame     -34.012  13.055  25.022  0.00  0.00     0.036 H 
ATOM     51  H32 non d ame     -35.810  12.714  25.491  0.00  0.00     0.036 H 
BRANCH  49  52
ATOM     52  C22 non d ame     -34.897  14.400  26.412  0.00  0.00     0.018 C 
ATOM     53  H33 non d ame     -35.922  14.729  26.240  0.00  0.00     0.048 H 
ATOM     54  H34 non d ame     -34.523  14.292  27.430  0.00  0.00     0.048 H 
BRANCH  52  55
ATOM     55  C23 non d ame     -33.988  15.462  25.733  0.00  0.00     0.259 C 
ATOM     56  O7  non d ame     -34.399  16.554  25.509  0.00  0.00    -0.265 OA
BRANCH  55  57
ATOM     57  O8  non d ame     -32.659  15.109  25.369  0.00  0.00    -0.317 OA
BRANCH  57  58
ATOM     58  C29 non d ame     -31.950  16.143  24.679  0.00  0.00     0.052 C 
ATOM     59  H47 non d ame     -32.716  16.811  24.283  0.00  0.00     0.082 H 
ATOM     60  H48 non d ame     -31.213  16.519  25.387  0.00  0.00     0.082 H 
BRANCH  58  61
ATOM     61  C35 non d ame     -31.199  15.495  23.486  0.00  0.00    -0.034 A 
ATOM     62  C30 non d ame     -31.124  16.159  22.266  0.00  0.00    -0.075 A 
ATOM     63  C31 non d ame     -30.449  15.577  21.194  0.00  0.00    -0.082 A 
ATOM     64  H49 non d ame     -31.594  17.136  22.149  0.00  0.00     0.084 H 
ATOM     65  C32 non d ame     -29.850  14.323  21.344  0.00  0.00    -0.083 A 
ATOM     66  H50 non d ame     -30.391  16.101  20.239  0.00  0.00     0.083 H 
ATOM     67  C33 non d ame     -29.931  13.663  22.563  0.00  0.00    -0.082 A 
ATOM     68  H51 non d ame     -29.320  13.861  20.512  0.00  0.00     0.083 H 
ATOM     69  C34 non d ame     -30.602  14.242  23.637  0.00  0.00    -0.075 A 
ATOM     70  H52 non d ame     -29.464  12.684  22.676  0.00  0.00     0.083 H 
ATOM     71  H53 non d ame     -30.660  13.717  24.591  0.00  0.00     0.084 H 
ENDBRANCH  58  61
ENDBRANCH  57  58
ENDBRANCH  55  57
ENDBRANCH  52  55
ENDBRANCH  49  52
ENDBRANCH  47  49
BRANCH  47  72
ATOM     72  C24 non d ame     -33.626  12.608  27.931  0.00  0.00    -0.039 C 
ATOM     73  H35 non d ame     -33.286  13.572  27.553  0.00  0.00     0.036 H 
ATOM     74  H36 non d ame     -34.330  12.567  28.762  0.00  0.00     0.036 H 
BRANCH  72  75
ATOM     75  C25 non d ame     -32.323  11.788  28.375  0.00  0.00    -0.001 C 
ATOM     76  C26 non d ame     -32.478  11.292  29.935  0.00  0.00    -0.035 C 
ATOM     77  C27 non d ame     -31.370  11.662  30.622  0.00  0.00     0.085 C 
ATOM     78  H38 non d ame     -33.278  11.846  30.426  0.00  0.00     0.036 H 
ATOM     79  H39 non d ame     -32.458  10.204  29.985  0.00  0.00     0.036 H 
ATOM     80  N5  non d ame     -30.622  12.647  29.757  0.00  0.00    -0.049 N 
ATOM     81  H40 non d ame     -31.737  12.175  31.511  0.00  0.00     0.075 H 
ATOM     82  H41 non d ame     -30.775  10.755  30.724  0.00  0.00     0.075 H 
ATOM     83  C28 non d ame     -31.259  12.514  28.280  0.00  0.00     0.193 C 
ATOM     84  H42 non d ame     -30.837  13.565  30.119  0.00  0.00     0.280 HD
ATOM     85  H43 non d ame     -29.664  12.328  29.725  0.00  0.00     0.280 HD
ATOM     86  H44 non d ame     -30.726  11.982  27.493  0.00  0.00     0.129 H 
ATOM     87  H37 non d ame     -32.040  11.034  27.641  0.00  0.00     0.046 H 
BRANCH  83  88
ATOM     88  O6  non d ame     -31.537  13.809  27.745  0.00  0.00    -0.369 OA
ATOM     89  H45 non d ame     -31.615  14.442  28.463  0.00  0.00     0.212 HD
ENDBRANCH  83  88
ENDBRANCH  72  75
ENDBRANCH  47  72
ENDBRANCH  45  47
ENDBRANCH   1  43
BRANCH   1  90
ATOM     90  C16 non d ame     -32.916   9.222  23.118  0.00  0.00    -0.035 C 
ATOM     91  H21 non d ame     -33.294   8.353  22.579  0.00  0.00     0.037 H 
ATOM     92  H22 non d ame     -33.421  10.184  23.024  0.00  0.00     0.037 H 
BRANCH  90  93
ATOM     93  C17 non d ame     -31.450   9.442  22.626  0.00  0.00    -0.059 C 
ATOM     94  H23 non d ame     -31.492  10.067  21.733  0.00  0.00     0.038 H 
BRANCH  93  95
ATOM     95  C18 non d ame     -30.577  10.185  23.687  0.00  0.00    -0.073 C 
ATOM     96  H24 non d ame     -29.622   9.672  23.795  0.00  0.00     0.028 H 
ATOM     97  H25 non d ame     -30.403  11.210  23.362  0.00  0.00     0.028 H 
ATOM     98  H26 non d ame     -31.097  10.191  24.645  0.00  0.00     0.028 H 
ENDBRANCH  93  95
BRANCH  93  99
ATOM     99  C19 non d ame     -30.804   8.115  22.222  0.00  0.00    -0.073 C 
ATOM    100  H27 non d ame     -30.265   8.243  21.283  0.00  0.00     0.028 H 
ATOM    101  H28 non d ame     -30.108   7.797  22.999  0.00  0.00     0.028 H 
ATOM    102  H29 non d ame     -31.577   7.357  22.096  0.00  0.00     0.028 H 
ENDBRANCH  93  99
ENDBRANCH  90  93
ENDBRANCH   1  90
TORSDOF 26
ENDMDL
MODEL 8
REMARK VINA RESULT:      -6.0      2.489      6.461
REMARK  26 active torsions:
REMARK  status: ('A' for Active; 'I' for Inactive)
REMARK    1  A    between atoms: C2_2  and  C3_3 
REMARK    2  A    between atoms: C4_6  and  C5_7 
REMARK       I    between atoms: C5_7  and  N2_9 
REMARK    3  A    between atoms: N2_9  and  C6_10 
REMARK    4  A    between atoms: C6_10  and  C7_11 
REMARK    5  A    between atoms: C6_10  and  C8_13 
REMARK       I    between atoms: C7_11  and  N3_14 
REMARK    6  A    between atoms: N3_14  and  C9_15 
REMARK    7  A    between atoms: C9_15  and  C10_16 
REMARK    8  A    between atoms: C9_15  and  C11_18 
REMARK       I    between atoms: C10_16  and  N4_21 
REMARK    9  A    between atoms: C11_18  and  C12_19 
REMARK   10  A    between atoms: C11_18  and  C13_20 
REMARK   11  A    between atoms: N4_21  and  C14_22 
REMARK   12  A    between atoms: C14_22  and  C15_23 
REMARK   13  A    between atoms: C14_22  and  C16_25 
REMARK       I    between atoms: C15_23  and  N6_40 
REMARK   14  A    between atoms: C16_25  and  C17_26 
REMARK   15  A    between atoms: C17_26  and  C18_27 
REMARK   16  A    between atoms: C17_26  and  C19_28 
REMARK   17  A    between atoms: C20_29  and  C21_30 
REMARK   18  A    between atoms: C20_29  and  C24_33 
REMARK   19  A    between atoms: C20_29  and  N6_40 
REMARK   20  A    between atoms: C21_30  and  C22_31 
REMARK   21  A    between atoms: C22_31  and  C23_32 
REMARK   22  A    between atoms: C23_32  and  O8_43 
REMARK   23  A    between atoms: C24_33  and  C25_34 
REMARK   24  A    between atoms: C28_38  and  O6_39 
REMARK   25  A    between atoms: C29_42  and  O8_43 
REMARK   26  A    between atoms: C29_42  and  C35_49 
ROOT
ATOM      1  C14 non d ame     -35.779   9.651  26.235  0.00  0.00     0.089 C 
ATOM      2  H20 non d ame     -36.793   9.298  26.427  0.00  0.00     0.087 H 
ENDROOT
BRANCH   1   3
ATOM      3  N4  non d ame     -35.069   9.657  27.506  0.00  0.00    -0.346 N 
ATOM      4  C10 non d ame     -35.816   9.898  28.794  0.00  0.00     0.241 C 
ATOM      5  O4  non d ame     -36.987  10.087  28.782  0.00  0.00    -0.271 OA
ATOM      6  H19 non d ame     -34.072   9.497  27.494  0.00  0.00     0.163 HD
BRANCH   4   7
ATOM      7  C9  non d ame     -35.066   9.895  30.100  0.00  0.00     0.092 C 
ATOM      8  H11 non d ame     -34.428   9.013  30.146  0.00  0.00     0.088 H 
BRANCH   7   9
ATOM      9  N3  non d ame     -34.189  11.068  30.163  0.00  0.00    -0.346 N 
ATOM     10  C7  non d ame     -32.882  11.024  29.555  0.00  0.00     0.240 C 
ATOM     11  O3  non d ame     -32.519  10.052  29.013  0.00  0.00    -0.271 OA
ATOM     12  H10 non d ame     -34.487  11.913  30.629  0.00  0.00     0.163 HD
BRANCH  10  13
ATOM     13  C6  non d ame     -31.951  12.274  29.628  0.00  0.00     0.086 C 
ATOM     14  H6  non d ame     -31.197  12.284  28.842  0.00  0.00     0.086 H 
BRANCH  13  15
ATOM     15  N2  non d ame     -32.756  13.471  29.448  0.00  0.00    -0.343 N 
ATOM     16  C5  non d ame     -32.223  14.586  28.662  0.00  0.00     0.273 C 
ATOM     17  O2  non d ame     -31.146  14.512  28.182  0.00  0.00    -0.266 OA
ATOM     18  H5  non d ame     -33.675  13.527  29.864  0.00  0.00     0.163 HD
BRANCH  16  19
ATOM     19  C4  non d ame     -33.063  15.857  28.462  0.00  0.00     0.154 A 
ATOM     20  C1  non d ame     -34.423  15.935  28.022  0.00  0.00    -0.017 A 
ATOM     21  C2  non d ame     -34.721  17.316  28.006  0.00  0.00     0.077 A 
ATOM     22  H1  non d ame     -35.090  15.115  27.755  0.00  0.00     0.091 H 
ATOM     23  O1  non d ame     -33.653  17.948  28.394  0.00  0.00    -0.218 OA
ATOM     24  N1  non d ame     -32.672  17.118  28.666  0.00  0.00    -0.123 NA
BRANCH  21  25
ATOM     25  C3  non d ame     -36.049  17.946  27.608  0.00  0.00    -0.029 C 
ATOM     26  H2  non d ame     -36.380  18.624  28.395  0.00  0.00     0.036 H 
ATOM     27  H3  non d ame     -35.924  18.502  26.679  0.00  0.00     0.036 H 
ATOM     28  H4  non d ame     -36.795  17.164  27.465  0.00  0.00     0.036 H 
ENDBRANCH  21  25
ENDBRANCH  16  19
ENDBRANCH  13  15
BRANCH  13  29
ATOM     29  C8  non d ame     -31.261  12.313  30.968  0.00  0.00    -0.049 C 
ATOM     30  H7  non d ame     -30.528  13.119  30.975  0.00  0.00     0.030 H 
ATOM     31  H8  non d ame     -31.998  12.485  31.752  0.00  0.00     0.030 H 
ATOM     32  H9  non d ame     -30.757  11.362  31.145  0.00  0.00     0.030 H 
ENDBRANCH  13  29
ENDBRANCH  10  13
ENDBRANCH   7   9
BRANCH   7  33
ATOM     33  C11 non d ame     -36.081   9.946  31.280  0.00  0.00    -0.033 C 
ATOM     34  H12 non d ame     -36.973  10.460  30.924  0.00  0.00     0.042 H 
BRANCH  33  35
ATOM     35  C12 non d ame     -36.511   8.512  31.722  0.00  0.00    -0.071 C 
ATOM     36  H13 non d ame     -36.277   8.372  32.778  0.00  0.00     0.028 H 
ATOM     37  H14 non d ame     -37.582   8.391  31.568  0.00  0.00     0.028 H 
ATOM     38  H15 non d ame     -35.972   7.773  31.130  0.00  0.00     0.028 H 
ENDBRANCH  33  35
BRANCH  33  39
ATOM     39  C13 non d ame     -35.501  10.759  32.482  0.00  0.00    -0.071 C 
ATOM     40  H16 non d ame     -36.321  11.153  33.083  0.00  0.00     0.028 H 
ATOM     41  H17 non d ame     -34.880  10.106  33.097  0.00  0.00     0.028 H 
ATOM     42  H18 non d ame     -34.897  11.584  32.105  0.00  0.00     0.028 H 
ENDBRANCH  33  39
ENDBRANCH   7  33
ENDBRANCH   4   7
ENDBRANCH   1   3
BRANCH   1  43
ATOM     43  C15 non d ame     -35.014   8.727  25.245  0.00  0.00     0.240 C 
ATOM     44  O5  non d ame     -34.967   7.557  25.445  0.00  0.00    -0.271 OA
ATOM     45  N6  non d ame     -34.346   9.301  24.042  0.00  0.00    -0.355 N 
ATOM     46  H46 non d ame     -34.383  10.294  23.859  0.00  0.00     0.162 HD
BRANCH  45  47
ATOM     47  C20 non d ame     -33.623   8.410  23.109  0.00  0.00     0.013 C 
ATOM     48  H30 non d ame     -33.290   7.537  23.670  0.00  0.00     0.072 H 
BRANCH  47  49
ATOM     49  C21 non d ame     -32.431   9.144  22.539  0.00  0.00    -0.038 C 
ATOM     50  H31 non d ame     -32.636   9.258  21.475  0.00  0.00     0.036 H 
ATOM     51  H32 non d ame     -32.301  10.026  23.167  0.00  0.00     0.036 H 
BRANCH  49  52
ATOM     52  C22 non d ame     -31.121   8.334  22.647  0.00  0.00     0.018 C 
ATOM     53  H33 non d ame     -31.198   7.770  23.576  0.00  0.00     0.048 H 
ATOM     54  H34 non d ame     -31.020   7.808  21.697  0.00  0.00     0.048 H 
BRANCH  52  55
ATOM     55  C23 non d ame     -29.849   9.215  22.786  0.00  0.00     0.259 C 
ATOM     56  O7  non d ame     -28.770   8.751  22.607  0.00  0.00    -0.265 OA
BRANCH  55  57
ATOM     57  O8  non d ame     -29.986  10.585  23.143  0.00  0.00    -0.317 OA
BRANCH  57  58
ATOM     58  C29 non d ame     -29.589  11.498  22.116  0.00  0.00     0.052 C 
ATOM     59  H47 non d ame     -28.513  11.362  22.001  0.00  0.00     0.082 H 
ATOM     60  H48 non d ame     -30.255  11.305  21.276  0.00  0.00     0.082 H 
BRANCH  58  61
ATOM     61  C35 non d ame     -29.849  12.939  22.629  0.00  0.00    -0.034 A 
ATOM     62  C30 non d ame     -30.718  13.154  23.694  0.00  0.00    -0.075 A 
ATOM     63  C31 non d ame     -30.953  14.448  24.155  0.00  0.00    -0.082 A 
ATOM     64  H49 non d ame     -31.216  12.307  24.167  0.00  0.00     0.084 H 
ATOM     65  C32 non d ame     -30.315  15.532  23.544  0.00  0.00    -0.083 A 
ATOM     66  H50 non d ame     -31.633  14.613  24.990  0.00  0.00     0.083 H 
ATOM     67  C33 non d ame     -29.451  15.314  22.480  0.00  0.00    -0.082 A 
ATOM     68  H51 non d ame     -30.492  16.548  23.898  0.00  0.00     0.083 H 
ATOM     69  C34 non d ame     -29.213  14.021  22.017  0.00  0.00    -0.075 A 
ATOM     70  H52 non d ame     -28.957  16.162  22.004  0.00  0.00     0.083 H 
ATOM     71  H53 non d ame     -28.532  13.858  21.182  0.00  0.00     0.084 H 
ENDBRANCH  58  61
ENDBRANCH  57  58
ENDBRANCH  55  57
ENDBRANCH  52  55
ENDBRANCH  49  52
ENDBRANCH  47  49
BRANCH  47  72
ATOM     72  C24 non d ame     -34.553   7.987  21.974  0.00  0.00    -0.039 C 
ATOM     73  H35 non d ame     -35.563   8.173  22.341  0.00  0.00     0.036 H 
ATOM     74  H36 non d ame     -34.190   8.513  21.091  0.00  0.00     0.036 H 
BRANCH  72  75
ATOM     75  C25 non d ame     -34.443   6.419  21.670  0.00  0.00    -0.001 C 
ATOM     76  C26 non d ame     -33.508   5.691  22.811  0.00  0.00    -0.035 C 
ATOM     77  C27 non d ame     -32.553   4.958  22.190  0.00  0.00     0.085 C 
ATOM     78  H38 non d ame     -32.937   6.440  23.359  0.00  0.00     0.036 H 
ATOM     79  H39 non d ame     -34.090   4.946  23.352  0.00  0.00     0.036 H 
ATOM     80  N5  non d ame     -32.547   5.378  20.740  0.00  0.00    -0.049 N 
ATOM     81  H40 non d ame     -31.611   5.256  22.651  0.00  0.00     0.075 H 
ATOM     82  H41 non d ame     -32.890   3.924  22.259  0.00  0.00     0.075 H 
ATOM     83  C28 non d ame     -33.915   6.203  20.511  0.00  0.00     0.193 C 
ATOM     84  H42 non d ame     -31.767   6.010  20.628  0.00  0.00     0.280 HD
ATOM     85  H43 non d ame     -32.589   4.527  20.196  0.00  0.00     0.280 HD
ATOM     86  H44 non d ame     -34.758   5.746  19.992  0.00  0.00     0.129 H 
ATOM     87  H37 non d ame     -35.414   5.968  21.464  0.00  0.00     0.046 H 
BRANCH  83  88
ATOM     88  O6  non d ame     -33.647   7.417  19.807  0.00  0.00    -0.369 OA
ATOM     89  H45 non d ame     -34.018   7.363  18.923  0.00  0.00     0.212 HD
ENDBRANCH  83  88
ENDBRANCH  72  75
ENDBRANCH  47  72
ENDBRANCH  45  47
ENDBRANCH   1  43
BRANCH   1  90
ATOM     90  C16 non d ame     -35.822  11.067  25.684  0.00  0.00    -0.035 C 
ATOM     91  H21 non d ame     -35.248  11.034  24.759  0.00  0.00     0.037 H 
ATOM     92  H22 non d ame     -36.878  11.336  25.661  0.00  0.00     0.037 H 
BRANCH  90  93
ATOM     93  C17 non d ame     -35.119  12.118  26.601  0.00  0.00    -0.059 C 
ATOM     94  H23 non d ame     -34.906  11.635  27.555  0.00  0.00     0.038 H 
BRANCH  93  95
ATOM     95  C18 non d ame     -33.763  12.610  26.002  0.00  0.00    -0.073 C 
ATOM     96  H24 non d ame     -33.902  13.585  25.538  0.00  0.00     0.028 H 
ATOM     97  H25 non d ame     -33.022  12.689  26.797  0.00  0.00     0.028 H 
ATOM     98  H26 non d ame     -33.417  11.897  25.254  0.00  0.00     0.028 H 
ENDBRANCH  93  95
BRANCH  93  99
ATOM     99  C19 non d ame     -36.048  13.301  26.889  0.00  0.00    -0.073 C 
ATOM    100  H27 non d ame     -35.452  14.193  27.081  0.00  0.00     0.028 H 
ATOM    101  H28 non d ame     -36.693  13.475  26.027  0.00  0.00     0.028 H 
ATOM    102  H29 non d ame     -36.661  13.078  27.761  0.00  0.00     0.028 H 
ENDBRANCH  93  99
ENDBRANCH  90  93
ENDBRANCH   1  90
TORSDOF 26
ENDMDL
MODEL 9
REMARK VINA RESULT:      -5.9      2.879      5.998
REMARK  26 active torsions:
REMARK  status: ('A' for Active; 'I' for Inactive)
REMARK    1  A    between atoms: C2_2  and  C3_3 
REMARK    2  A    between atoms: C4_6  and  C5_7 
REMARK       I    between atoms: C5_7  and  N2_9 
REMARK    3  A    between atoms: N2_9  and  C6_10 
REMARK    4  A    between atoms: C6_10  and  C7_11 
REMARK    5  A    between atoms: C6_10  and  C8_13 
REMARK       I    between atoms: C7_11  and  N3_14 
REMARK    6  A    between atoms: N3_14  and  C9_15 
REMARK    7  A    between atoms: C9_15  and  C10_16 
REMARK    8  A    between atoms: C9_15  and  C11_18 
REMARK       I    between atoms: C10_16  and  N4_21 
REMARK    9  A    between atoms: C11_18  and  C12_19 
REMARK   10  A    between atoms: C11_18  and  C13_20 
REMARK   11  A    between atoms: N4_21  and  C14_22 
REMARK   12  A    between atoms: C14_22  and  C15_23 
REMARK   13  A    between atoms: C14_22  and  C16_25 
REMARK       I    between atoms: C15_23  and  N6_40 
REMARK   14  A    between atoms: C16_25  and  C17_26 
REMARK   15  A    between atoms: C17_26  and  C18_27 
REMARK   16  A    between atoms: C17_26  and  C19_28 
REMARK   17  A    between atoms: C20_29  and  C21_30 
REMARK   18  A    between atoms: C20_29  and  C24_33 
REMARK   19  A    between atoms: C20_29  and  N6_40 
REMARK   20  A    between atoms: C21_30  and  C22_31 
REMARK   21  A    between atoms: C22_31  and  C23_32 
REMARK   22  A    between atoms: C23_32  and  O8_43 
REMARK   23  A    between atoms: C24_33  and  C25_34 
REMARK   24  A    between atoms: C28_38  and  O6_39 
REMARK   25  A    between atoms: C29_42  and  O8_43 
REMARK   26  A    between atoms: C29_42  and  C35_49 
ROOT
ATOM      1  C14 non d ame     -36.141  12.336  25.967  0.00  0.00     0.089 C 
ATOM      2  H20 non d ame     -36.976  12.116  26.633  0.00  0.00     0.087 H 
ENDROOT
BRANCH   1   3
ATOM      3  N4  non d ame     -35.892  13.768  26.034  0.00  0.00    -0.346 N 
ATOM      4  C10 non d ame     -36.963  14.705  26.535  0.00  0.00     0.241 C 
ATOM      5  O4  non d ame     -38.018  14.282  26.877  0.00  0.00    -0.271 OA
ATOM      6  H19 non d ame     -34.989  14.108  25.736  0.00  0.00     0.163 HD
BRANCH   4   7
ATOM      7  C9  non d ame     -36.686  16.184  26.603  0.00  0.00     0.092 C 
ATOM      8  H11 non d ame     -37.048  16.573  27.554  0.00  0.00     0.088 H 
BRANCH   7   9
ATOM      9  N3  non d ame     -35.238  16.413  26.563  0.00  0.00    -0.346 N 
ATOM     10  C7  non d ame     -34.607  17.212  27.584  0.00  0.00     0.240 C 
ATOM     11  O3  non d ame     -35.249  17.680  28.444  0.00  0.00    -0.271 OA
ATOM     12  H10 non d ame     -34.672  16.017  25.827  0.00  0.00     0.163 HD
BRANCH  10  13
ATOM     13  C6  non d ame     -33.067  17.455  27.535  0.00  0.00     0.086 C 
ATOM     14  H6  non d ame     -32.518  16.821  28.231  0.00  0.00     0.086 H 
BRANCH  13  15
ATOM     15  N2  non d ame     -32.581  17.130  26.204  0.00  0.00    -0.343 N 
ATOM     16  C5  non d ame     -31.812  15.900  25.998  0.00  0.00     0.273 C 
ATOM     17  O2  non d ame     -31.588  15.181  26.909  0.00  0.00    -0.266 OA
ATOM     18  H5  non d ame     -32.774  17.751  25.432  0.00  0.00     0.163 HD
BRANCH  16  19
ATOM     19  C4  non d ame     -31.294  15.543  24.596  0.00  0.00     0.154 A 
ATOM     20  C1  non d ame     -30.567  14.370  24.216  0.00  0.00    -0.017 A 
ATOM     21  C2  non d ame     -30.330  14.522  22.832  0.00  0.00     0.077 A 
ATOM     22  H1  non d ame     -30.259  13.537  24.848  0.00  0.00     0.091 H 
ATOM     23  O1  non d ame     -30.863  15.652  22.469  0.00  0.00    -0.218 OA
ATOM     24  N1  non d ame     -31.431  16.266  23.481  0.00  0.00    -0.123 NA
BRANCH  21  25
ATOM     25  C3  non d ame     -29.589  13.543  21.931  0.00  0.00    -0.029 C 
ATOM     26  H2  non d ame     -29.243  14.061  21.037  0.00  0.00     0.036 H 
ATOM     27  H3  non d ame     -28.733  13.134  22.467  0.00  0.00     0.036 H 
ATOM     28  H4  non d ame     -30.259  12.733  21.645  0.00  0.00     0.036 H 
ENDBRANCH  21  25
ENDBRANCH  16  19
ENDBRANCH  13  15
BRANCH  13  29
ATOM     29  C8  non d ame     -32.772  18.899  27.854  0.00  0.00    -0.049 C 
ATOM     30  H7  non d ame     -33.616  19.518  27.549  0.00  0.00     0.030 H 
ATOM     31  H8  non d ame     -32.611  19.008  28.926  0.00  0.00     0.030 H 
ATOM     32  H9  non d ame     -31.877  19.214  27.317  0.00  0.00     0.030 H 
ENDBRANCH  13  29
ENDBRANCH  10  13
ENDBRANCH   7   9
BRANCH   7  33
ATOM     33  C11 non d ame     -37.354  16.892  25.388  0.00  0.00    -0.033 C 
ATOM     34  H12 non d ame     -38.431  16.881  25.553  0.00  0.00     0.042 H 
BRANCH  33  35
ATOM     35  C12 non d ame     -36.910  18.385  25.287  0.00  0.00    -0.071 C 
ATOM     36  H13 non d ame     -37.792  19.022  25.212  0.00  0.00     0.028 H 
ATOM     37  H14 non d ame     -36.340  18.656  26.175  0.00  0.00     0.028 H 
ATOM     38  H15 non d ame     -36.290  18.520  24.401  0.00  0.00     0.028 H 
ENDBRANCH  33  35
BRANCH  33  39
ATOM     39  C13 non d ame     -37.060  16.122  24.060  0.00  0.00    -0.071 C 
ATOM     40  H16 non d ame     -36.004  16.222  23.809  0.00  0.00     0.028 H 
ATOM     41  H17 non d ame     -37.305  15.068  24.190  0.00  0.00     0.028 H 
ATOM     42  H18 non d ame     -37.667  16.539  23.257  0.00  0.00     0.028 H 
ENDBRANCH  33  39
ENDBRANCH   7  33
ENDBRANCH   4   7
ENDBRANCH   1   3
BRANCH   1  43
ATOM     43  C15 non d ame     -34.843  11.588  26.386  0.00  0.00     0.240 C 
ATOM     44  O5  non d ame     -33.847  11.734  25.754  0.00  0.00    -0.271 OA
ATOM     45  N6  non d ame     -34.840  10.695  27.580  0.00  0.00    -0.355 N 
ATOM     46  H46 non d ame     -35.679  10.567  28.127  0.00  0.00     0.162 HD
BRANCH  45  47
ATOM     47  C20 non d ame     -33.598   9.992  27.966  0.00  0.00     0.013 C 
ATOM     48  H30 non d ame     -32.782  10.400  27.369  0.00  0.00     0.072 H 
BRANCH  47  49
ATOM     49  C21 non d ame     -33.753   8.514  27.687  0.00  0.00    -0.038 C 
ATOM     50  H31 non d ame     -33.726   8.026  28.661  0.00  0.00     0.036 H 
ATOM     51  H32 non d ame     -34.637   8.425  27.056  0.00  0.00     0.036 H 
BRANCH  49  52
ATOM     52  C22 non d ame     -32.576   7.931  26.874  0.00  0.00     0.018 C 
ATOM     53  H33 non d ame     -32.751   8.234  25.842  0.00  0.00     0.048 H 
ATOM     54  H34 non d ame     -31.672   8.252  27.391  0.00  0.00     0.048 H 
BRANCH  52  55
ATOM     55  C23 non d ame     -32.533   6.377  26.862  0.00  0.00     0.259 C 
ATOM     56  O7  non d ame     -32.181   5.791  25.890  0.00  0.00    -0.265 OA
BRANCH  55  57
ATOM     57  O8  non d ame     -32.931   5.660  28.024  0.00  0.00    -0.317 OA
BRANCH  57  58
ATOM     58  C29 non d ame     -34.062   4.808  27.823  0.00  0.00     0.052 C 
ATOM     59  H47 non d ame     -34.435   5.042  26.826  0.00  0.00     0.082 H 
ATOM     60  H48 non d ame     -33.717   3.800  28.053  0.00  0.00     0.082 H 
BRANCH  58  61
ATOM     61  C35 non d ame     -35.149   5.203  28.858  0.00  0.00    -0.034 A 
ATOM     62  C30 non d ame     -34.777   5.696  30.105  0.00  0.00    -0.075 A 
ATOM     63  C31 non d ame     -35.753   6.050  31.035  0.00  0.00    -0.082 A 
ATOM     64  H49 non d ame     -33.721   5.804  30.354  0.00  0.00     0.084 H 
ATOM     65  C32 non d ame     -37.106   5.907  30.716  0.00  0.00    -0.083 A 
ATOM     66  H50 non d ame     -35.458   6.437  32.011  0.00  0.00     0.083 H 
ATOM     67  C33 non d ame     -37.472   5.411  29.472  0.00  0.00    -0.082 A 
ATOM     68  H51 non d ame     -37.876   6.182  31.437  0.00  0.00     0.083 H 
ATOM     69  C34 non d ame     -36.500   5.058  28.538  0.00  0.00    -0.075 A 
ATOM     70  H52 non d ame     -38.529   5.299  29.227  0.00  0.00     0.083 H 
ATOM     71  H53 non d ame     -36.796   4.671  27.563  0.00  0.00     0.084 H 
ENDBRANCH  58  61
ENDBRANCH  57  58
ENDBRANCH  55  57
ENDBRANCH  52  55
ENDBRANCH  49  52
ENDBRANCH  47  49
BRANCH  47  72
ATOM     72  C24 non d ame     -33.324  10.204  29.453  0.00  0.00    -0.039 C 
ATOM     73  H35 non d ame     -34.287  10.070  29.947  0.00  0.00     0.036 H 
ATOM     74  H36 non d ame     -32.492   9.542  29.693  0.00  0.00     0.036 H 
BRANCH  72  75
ATOM     75  C25 non d ame     -32.842  11.701  29.759  0.00  0.00    -0.001 C 
ATOM     76  C26 non d ame     -31.577  12.092  28.783  0.00  0.00    -0.035 C 
ATOM     77  C27 non d ame     -30.569  12.576  29.547  0.00  0.00     0.085 C 
ATOM     78  H38 non d ame     -31.153  11.190  28.342  0.00  0.00     0.036 H 
ATOM     79  H39 non d ame     -31.843  12.937  28.147  0.00  0.00     0.036 H 
ATOM     80  N5  non d ame     -30.906  12.247  30.982  0.00  0.00    -0.049 N 
ATOM     81  H40 non d ame     -29.684  12.014  29.251  0.00  0.00     0.075 H 
ATOM     82  H41 non d ame     -30.598  13.657  29.416  0.00  0.00     0.075 H 
ATOM     83  C28 non d ame     -32.465  11.828  30.988  0.00  0.00     0.193 C 
ATOM     84  H42 non d ame     -30.354  11.436  31.226  0.00  0.00     0.280 HD
ATOM     85  H43 non d ame     -30.800  13.105  31.504  0.00  0.00     0.280 HD
ATOM     86  H44 non d ame     -33.222  12.520  31.356  0.00  0.00     0.129 H 
ATOM     87  H37 non d ame     -33.674  12.404  29.798  0.00  0.00     0.046 H 
BRANCH  83  88
ATOM     88  O6  non d ame     -32.650  10.625  31.736  0.00  0.00    -0.369 OA
ATOM     89  H45 non d ame     -33.431  10.709  32.288  0.00  0.00     0.212 HD
ENDBRANCH  83  88
ENDBRANCH  72  75
ENDBRANCH  47  72
ENDBRANCH  45  47
ENDBRANCH   1  43
BRANCH   1  90
ATOM     90  C16 non d ame     -36.509  11.962  24.540  0.00  0.00    -0.035 C 
ATOM     91  H21 non d ame     -36.157  12.790  23.925  0.00  0.00     0.037 H 
ATOM     92  H22 non d ame     -36.104  10.961  24.390  0.00  0.00     0.037 H 
BRANCH  90  93
ATOM     93  C17 non d ame     -38.048  11.856  24.297  0.00  0.00    -0.059 C 
ATOM     94  H23 non d ame     -38.529  12.649  24.870  0.00  0.00     0.038 H 
BRANCH  93  95
ATOM     95  C18 non d ame     -38.423  12.061  22.794  0.00  0.00    -0.073 C 
ATOM     96  H24 non d ame     -38.713  11.106  22.358  0.00  0.00     0.028 H 
ATOM     97  H25 non d ame     -39.255  12.761  22.719  0.00  0.00     0.028 H 
ATOM     98  H26 non d ame     -37.563  12.460  22.256  0.00  0.00     0.028 H 
ENDBRANCH  93  95
BRANCH  93  99
ATOM     99  C19 non d ame     -38.593  10.524  24.817  0.00  0.00    -0.073 C 
ATOM    100  H27 non d ame     -39.400  10.713  25.526  0.00  0.00     0.028 H 
ATOM    101  H28 non d ame     -38.974   9.935  23.982  0.00  0.00     0.028 H 
ATOM    102  H29 non d ame     -37.795   9.973  25.314  0.00  0.00     0.028 H 
ENDBRANCH  93  99
ENDBRANCH  90  93
ENDBRANCH   1  90
TORSDOF 26
ENDMDL
MODEL 10
REMARK VINA RESULT:      -5.9      2.956      6.729
REMARK  26 active torsions:
REMARK  status: ('A' for Active; 'I' for Inactive)
REMARK    1  A    between atoms: C2_2  and  C3_3 
REMARK    2  A    between atoms: C4_6  and  C5_7 
REMARK       I    between atoms: C5_7  and  N2_9 
REMARK    3  A    between atoms: N2_9  and  C6_10 
REMARK    4  A    between atoms: C6_10  and  C7_11 
REMARK    5  A    between atoms: C6_10  and  C8_13 
REMARK       I    between atoms: C7_11  and  N3_14 
REMARK    6  A    between atoms: N3_14  and  C9_15 
REMARK    7  A    between atoms: C9_15  and  C10_16 
REMARK    8  A    between atoms: C9_15  and  C11_18 
REMARK       I    between atoms: C10_16  and  N4_21 
REMARK    9  A    between atoms: C11_18  and  C12_19 
REMARK   10  A    between atoms: C11_18  and  C13_20 
REMARK   11  A    between atoms: N4_21  and  C14_22 
REMARK   12  A    between atoms: C14_22  and  C15_23 
REMARK   13  A    between atoms: C14_22  and  C16_25 
REMARK       I    between atoms: C15_23  and  N6_40 
REMARK   14  A    between atoms: C16_25  and  C17_26 
REMARK   15  A    between atoms: C17_26  and  C18_27 
REMARK   16  A    between atoms: C17_26  and  C19_28 
REMARK   17  A    between atoms: C20_29  and  C21_30 
REMARK   18  A    between atoms: C20_29  and  C24_33 
REMARK   19  A    between atoms: C20_29  and  N6_40 
REMARK   20  A    between atoms: C21_30  and  C22_31 
REMARK   21  A    between atoms: C22_31  and  C23_32 
REMARK   22  A    between atoms: C23_32  and  O8_43 
REMARK   23  A    between atoms: C24_33  and  C25_34 
REMARK   24  A    between atoms: C28_38  and  O6_39 
REMARK   25  A    between atoms: C29_42  and  O8_43 
REMARK   26  A    between atoms: C29_42  and  C35_49 
ROOT
ATOM      1  C14 non d ame     -34.925   8.036  25.497  0.00  0.00     0.089 C 
ATOM      2  H20 non d ame     -34.910   7.927  24.412  0.00  0.00     0.087 H 
ENDROOT
BRANCH   1   3
ATOM      3  N4  non d ame     -35.364   9.392  25.795  0.00  0.00    -0.346 N 
ATOM      4  C10 non d ame     -35.887  10.282  24.696  0.00  0.00     0.241 C 
ATOM      5  O4  non d ame     -35.942   9.886  23.578  0.00  0.00    -0.271 OA
ATOM      6  H19 non d ame     -35.306   9.710  26.752  0.00  0.00     0.163 HD
BRANCH   4   7
ATOM      7  C9  non d ame     -36.342  11.680  25.023  0.00  0.00     0.092 C 
ATOM      8  H11 non d ame     -36.791  11.687  26.016  0.00  0.00     0.088 H 
BRANCH   7   9
ATOM      9  N3  non d ame     -35.182  12.575  25.065  0.00  0.00    -0.346 N 
ATOM     10  C7  non d ame     -34.637  12.989  26.335  0.00  0.00     0.240 C 
ATOM     11  O3  non d ame     -35.121  12.613  27.332  0.00  0.00    -0.271 OA
ATOM     12  H10 non d ame     -34.754  12.909  24.213  0.00  0.00     0.163 HD
BRANCH  10  13
ATOM     13  C6  non d ame     -33.404  13.944  26.373  0.00  0.00     0.086 C 
ATOM     14  H6  non d ame     -32.573  13.537  26.948  0.00  0.00     0.086 H 
BRANCH  13  15
ATOM     15  N2  non d ame     -32.916  14.139  25.018  0.00  0.00    -0.343 N 
ATOM     16  C5  non d ame     -31.474  14.156  24.765  0.00  0.00     0.273 C 
ATOM     17  O2  non d ame     -30.714  14.015  25.660  0.00  0.00    -0.266 OA
ATOM     18  H5  non d ame     -33.573  14.262  24.260  0.00  0.00     0.163 HD
BRANCH  16  19
ATOM     19  C4  non d ame     -30.944  14.359  23.337  0.00  0.00     0.154 A 
ATOM     20  C1  non d ame     -31.413  15.301  22.367  0.00  0.00    -0.017 A 
ATOM     21  C2  non d ame     -30.602  15.086  21.230  0.00  0.00     0.077 A 
ATOM     22  H1  non d ame     -32.219  16.028  22.472  0.00  0.00     0.091 H 
ATOM     23  O1  non d ame     -29.768  14.133  21.525  0.00  0.00    -0.218 OA
ATOM     24  N1  non d ame     -29.948  13.692  22.748  0.00  0.00    -0.123 NA
BRANCH  21  25
ATOM     25  C3  non d ame     -30.689  15.834  19.907  0.00  0.00    -0.029 C 
ATOM     26  H2  non d ame     -31.074  15.167  19.136  0.00  0.00     0.036 H 
ATOM     27  H3  non d ame     -31.358  16.687  20.015  0.00  0.00     0.036 H 
ATOM     28  H4  non d ame     -29.697  16.185  19.621  0.00  0.00     0.036 H 
ENDBRANCH  21  25
ENDBRANCH  16  19
ENDBRANCH  13  15
BRANCH  13  29
ATOM     29  C8  non d ame     -33.808  15.267  26.972  0.00  0.00    -0.049 C 
ATOM     30  H7  non d ame     -34.837  15.494  26.691  0.00  0.00     0.030 H 
ATOM     31  H8  non d ame     -33.732  15.213  28.057  0.00  0.00     0.030 H 
ATOM     32  H9  non d ame     -33.149  16.052  26.599  0.00  0.00     0.030 H 
ENDBRANCH  13  29
ENDBRANCH  10  13
ENDBRANCH   7   9
BRANCH   7  33
ATOM     33  C11 non d ame     -37.334  12.172  23.928  0.00  0.00    -0.033 C 
ATOM     34  H12 non d ame     -37.125  11.609  23.019  0.00  0.00     0.042 H 
BRANCH  33  35
ATOM     35  C12 non d ame     -38.813  11.881  24.330  0.00  0.00    -0.071 C 
ATOM     36  H13 non d ame     -38.892  11.832  25.416  0.00  0.00     0.028 H 
ATOM     37  H14 non d ame     -39.455  12.679  23.955  0.00  0.00     0.028 H 
ATOM     38  H15 non d ame     -39.127  10.930  23.900  0.00  0.00     0.028 H 
ENDBRANCH  33  35
BRANCH  33  39
ATOM     39  C13 non d ame     -37.118  13.688  23.619  0.00  0.00    -0.071 C 
ATOM     40  H16 non d ame     -36.872  14.215  24.541  0.00  0.00     0.028 H 
ATOM     41  H17 non d ame     -36.300  13.800  22.906  0.00  0.00     0.028 H 
ATOM     42  H18 non d ame     -38.030  14.105  23.193  0.00  0.00     0.028 H 
ENDBRANCH  33  39
ENDBRANCH   7  33
ENDBRANCH   4   7
ENDBRANCH   1   3
BRANCH   1  43
ATOM     43  C15 non d ame     -35.907   7.038  26.174  0.00  0.00     0.240 C 
ATOM     44  O5  non d ame     -36.362   6.138  25.545  0.00  0.00    -0.271 OA
ATOM     45  N6  non d ame     -36.272   7.198  27.611  0.00  0.00    -0.355 N 
ATOM     46  H46 non d ame     -35.888   7.955  28.157  0.00  0.00     0.162 HD
BRANCH  45  47
ATOM     47  C20 non d ame     -37.206   6.239  28.240  0.00  0.00     0.013 C 
ATOM     48  H30 non d ame     -37.601   5.592  27.457  0.00  0.00     0.072 H 
BRANCH  47  49
ATOM     49  C21 non d ame     -38.334   7.000  28.900  0.00  0.00    -0.038 C 
ATOM     50  H31 non d ame     -38.259   8.021  28.525  0.00  0.00     0.036 H 
ATOM     51  H32 non d ame     -39.233   6.414  28.711  0.00  0.00     0.036 H 
BRANCH  49  52
ATOM     52  C22 non d ame     -38.182   7.086  30.434  0.00  0.00     0.018 C 
ATOM     53  H33 non d ame     -39.195   7.046  30.834  0.00  0.00     0.048 H 
ATOM     54  H34 non d ame     -37.459   6.315  30.703  0.00  0.00     0.048 H 
BRANCH  52  55
ATOM     55  C23 non d ame     -37.580   8.430  30.929  0.00  0.00     0.259 C 
ATOM     56  O7  non d ame     -38.131   9.065  31.770  0.00  0.00    -0.265 OA
BRANCH  55  57
ATOM     57  O8  non d ame     -36.366   8.902  30.358  0.00  0.00    -0.317 OA
BRANCH  57  58
ATOM     58  C29 non d ame     -35.332   9.156  31.313  0.00  0.00     0.052 C 
ATOM     59  H47 non d ame     -35.786   9.787  32.078  0.00  0.00     0.082 H 
ATOM     60  H48 non d ame     -34.931   8.179  31.581  0.00  0.00     0.082 H 
BRANCH  58  61
ATOM     61  C35 non d ame     -34.215   9.968  30.606  0.00  0.00    -0.034 A 
ATOM     62  C30 non d ame     -33.626  11.052  31.250  0.00  0.00    -0.075 A 
ATOM     63  C31 non d ame     -32.623  11.781  30.614  0.00  0.00    -0.082 A 
ATOM     64  H49 non d ame     -33.951  11.329  32.253  0.00  0.00     0.084 H 
ATOM     65  C32 non d ame     -32.210  11.425  29.328  0.00  0.00    -0.083 A 
ATOM     66  H50 non d ame     -32.162  12.629  31.123  0.00  0.00     0.083 H 
ATOM     67  C33 non d ame     -32.802  10.346  28.687  0.00  0.00    -0.082 A 
ATOM     68  H51 non d ame     -31.425  11.990  28.824  0.00  0.00     0.083 H 
ATOM     69  C34 non d ame     -33.804   9.612  29.320  0.00  0.00    -0.075 A 
ATOM     70  H52 non d ame     -32.479  10.072  27.682  0.00  0.00     0.083 H 
ATOM     71  H53 non d ame     -34.264   8.765  28.810  0.00  0.00     0.084 H 
ENDBRANCH  58  61
ENDBRANCH  57  58
ENDBRANCH  55  57
ENDBRANCH  52  55
ENDBRANCH  49  52
ENDBRANCH  47  49
BRANCH  47  72
ATOM     72  C24 non d ame     -36.466   5.412  29.290  0.00  0.00    -0.039 C 
ATOM     73  H35 non d ame     -36.896   5.707  30.247  0.00  0.00     0.036 H 
ATOM     74  H36 non d ame     -36.546   4.378  28.953  0.00  0.00     0.036 H 
BRANCH  72  75
ATOM     75  C25 non d ame     -34.907   5.774  29.339  0.00  0.00    -0.001 C 
ATOM     76  C26 non d ame     -34.053   4.701  28.431  0.00  0.00    -0.035 C 
ATOM     77  C27 non d ame     -33.036   4.210  29.179  0.00  0.00     0.085 C 
ATOM     78  H38 non d ame     -34.662   3.823  28.220  0.00  0.00     0.036 H 
ATOM     79  H39 non d ame     -33.545   5.220  27.619  0.00  0.00     0.036 H 
ATOM     80  N5  non d ame     -33.311   4.600  30.611  0.00  0.00    -0.049 N 
ATOM     81  H40 non d ame     -33.104   3.126  29.086  0.00  0.00     0.075 H 
ATOM     82  H41 non d ame     -32.144   4.731  28.834  0.00  0.00     0.075 H 
ATOM     83  C28 non d ame     -34.456   5.736  30.549  0.00  0.00     0.193 C 
ATOM     84  H42 non d ame     -33.694   3.782  31.062  0.00  0.00     0.280 HD
ATOM     85  H43 non d ame     -32.461   5.018  30.961  0.00  0.00     0.280 HD
ATOM     86  H44 non d ame     -34.203   6.786  30.699  0.00  0.00     0.129 H 
ATOM     87  H37 non d ame     -34.723   6.834  29.158  0.00  0.00     0.046 H 
BRANCH  83  88
ATOM     88  O6  non d ame     -35.485   5.451  31.499  0.00  0.00    -0.369 OA
ATOM     89  H45 non d ame     -35.099   5.037  32.274  0.00  0.00     0.212 HD
ENDBRANCH  83  88
ENDBRANCH  72  75
ENDBRANCH  47  72
ENDBRANCH  45  47
ENDBRANCH   1  43
BRANCH   1  90
ATOM     90  C16 non d ame     -33.525   7.834  26.054  0.00  0.00    -0.035 C 
ATOM     91  H21 non d ame     -33.234   8.802  26.462  0.00  0.00     0.037 H 
ATOM     92  H22 non d ame     -33.598   6.967  26.710  0.00  0.00     0.037 H 
BRANCH  90  93
ATOM     93  C17 non d ame     -32.463   7.478  24.966  0.00  0.00    -0.059 C 
ATOM     94  H23 non d ame     -31.571   8.072  25.167  0.00  0.00     0.038 H 
BRANCH  93  95
ATOM     95  C18 non d ame     -32.052   5.971  25.015  0.00  0.00    -0.073 C 
ATOM     96  H24 non d ame     -31.922   5.663  26.052  0.00  0.00     0.028 H 
ATOM     97  H25 non d ame     -32.832   5.366  24.553  0.00  0.00     0.028 H 
ATOM     98  H26 non d ame     -31.116   5.832  24.475  0.00  0.00     0.028 H 
ENDBRANCH  93  95
BRANCH  93  99
ATOM     99  C19 non d ame     -32.960   7.861  23.570  0.00  0.00    -0.073 C 
ATOM    100  H27 non d ame     -33.868   7.303  23.341  0.00  0.00     0.028 H 
ATOM    101  H28 non d ame     -33.174   8.930  23.541  0.00  0.00     0.028 H 
ATOM    102  H29 non d ame     -32.193   7.625  22.833  0.00  0.00     0.028 H 
ENDBRANCH  93  99
ENDBRANCH  90  93
ENDBRANCH   1  90
TORSDOF 26
ENDMDL
MODEL 11
REMARK VINA RESULT:      -5.9      2.508      9.947
REMARK  26 active torsions:
REMARK  status: ('A' for Active; 'I' for Inactive)
REMARK    1  A    between atoms: C2_2  and  C3_3 
REMARK    2  A    between atoms: C4_6  and  C5_7 
REMARK       I    between atoms: C5_7  and  N2_9 
REMARK    3  A    between atoms: N2_9  and  C6_10 
REMARK    4  A    between atoms: C6_10  and  C7_11 
REMARK    5  A    between atoms: C6_10  and  C8_13 
REMARK       I    between atoms: C7_11  and  N3_14 
REMARK    6  A    between atoms: N3_14  and  C9_15 
REMARK    7  A    between atoms: C9_15  and  C10_16 
REMARK    8  A    between atoms: C9_15  and  C11_18 
REMARK       I    between atoms: C10_16  and  N4_21 
REMARK    9  A    between atoms: C11_18  and  C12_19 
REMARK   10  A    between atoms: C11_18  and  C13_20 
REMARK   11  A    between atoms: N4_21  and  C14_22 
REMARK   12  A    between atoms: C14_22  and  C15_23 
REMARK   13  A    between atoms: C14_22  and  C16_25 
REMARK       I    between atoms: C15_23  and  N6_40 
REMARK   14  A    between atoms: C16_25  and  C17_26 
REMARK   15  A    between atoms: C17_26  and  C18_27 
REMARK   16  A    between atoms: C17_26  and  C19_28 
REMARK   17  A    between atoms: C20_29  and  C21_30 
REMARK   18  A    between atoms: C20_29  and  C24_33 
REMARK   19  A    between atoms: C20_29  and  N6_40 
REMARK   20  A    between atoms: C21_30  and  C22_31 
REMARK   21  A    between atoms: C22_31  and  C23_32 
REMARK   22  A    between atoms: C23_32  and  O8_43 
REMARK   23  A    between atoms: C24_33  and  C25_34 
REMARK   24  A    between atoms: C28_38  and  O6_39 
REMARK   25  A    between atoms: C29_42  and  O8_43 
REMARK   26  A    between atoms: C29_42  and  C35_49 
ROOT
ATOM      1  C14 non d ame     -34.055  11.492  28.189  0.00  0.00     0.089 C 
ATOM      2  H20 non d ame     -34.518  11.963  29.057  0.00  0.00     0.087 H 
ENDROOT
BRANCH   1   3
ATOM      3  N4  non d ame     -34.489  10.104  28.160  0.00  0.00    -0.346 N 
ATOM      4  C10 non d ame     -34.831   9.385  29.441  0.00  0.00     0.241 C 
ATOM      5  O4  non d ame     -34.746   9.945  30.484  0.00  0.00    -0.271 OA
ATOM      6  H19 non d ame     -34.553   9.644  27.262  0.00  0.00     0.163 HD
BRANCH   4   7
ATOM      7  C9  non d ame     -35.284   7.950  29.391  0.00  0.00     0.092 C 
ATOM      8  H11 non d ame     -36.149   7.869  28.733  0.00  0.00     0.088 H 
BRANCH   7   9
ATOM      9  N3  non d ame     -34.222   7.121  28.814  0.00  0.00    -0.346 N 
ATOM     10  C7  non d ame     -34.378   6.567  27.492  0.00  0.00     0.240 C 
ATOM     11  O3  non d ame     -35.353   6.777  26.879  0.00  0.00    -0.271 OA
ATOM     12  H10 non d ame     -33.376   6.930  29.332  0.00  0.00     0.163 HD
BRANCH  10  13
ATOM     13  C6  non d ame     -33.245   5.683  26.884  0.00  0.00     0.086 C 
ATOM     14  H6  non d ame     -33.624   4.917  26.208  0.00  0.00     0.086 H 
BRANCH  13  15
ATOM     15  N2  non d ame     -32.358   6.527  26.101  0.00  0.00    -0.343 N 
ATOM     16  C5  non d ame     -32.349   6.404  24.641  0.00  0.00     0.273 C 
ATOM     17  O2  non d ame     -33.057   5.622  24.108  0.00  0.00    -0.266 OA
ATOM     18  H5  non d ame     -31.754   7.190  26.565  0.00  0.00     0.163 HD
BRANCH  16  19
ATOM     19  C4  non d ame     -31.417   7.291  23.800  0.00  0.00     0.154 A 
ATOM     20  C1  non d ame     -31.415   8.720  23.729  0.00  0.00    -0.017 A 
ATOM     21  C2  non d ame     -30.377   9.038  22.825  0.00  0.00     0.077 A 
ATOM     22  H1  non d ame     -32.067   9.420  24.253  0.00  0.00     0.091 H 
ATOM     23  O1  non d ame     -29.851   7.916  22.430  0.00  0.00    -0.218 OA
ATOM     24  N1  non d ame     -30.441   6.883  22.985  0.00  0.00    -0.123 NA
BRANCH  21  25
ATOM     25  C3  non d ame     -29.953  10.436  22.394  0.00  0.00    -0.029 C 
ATOM     26  H2  non d ame     -29.786  10.449  21.318  0.00  0.00     0.036 H 
ATOM     27  H3  non d ame     -30.739  11.148  22.648  0.00  0.00     0.036 H 
ATOM     28  H4  non d ame     -29.033  10.711  22.909  0.00  0.00     0.036 H 
ENDBRANCH  21  25
ENDBRANCH  16  19
ENDBRANCH  13  15
BRANCH  13  29
ATOM     29  C8  non d ame     -32.475   5.015  27.995  0.00  0.00    -0.049 C 
ATOM     30  H7  non d ame     -33.150   4.787  28.819  0.00  0.00     0.030 H 
ATOM     31  H8  non d ame     -32.031   4.092  27.624  0.00  0.00     0.030 H 
ATOM     32  H9  non d ame     -31.687   5.683  28.344  0.00  0.00     0.030 H 
ENDBRANCH  13  29
ENDBRANCH  10  13
ENDBRANCH   7   9
BRANCH   7  33
ATOM     33  C11 non d ame     -35.599   7.455  30.834  0.00  0.00    -0.033 C 
ATOM     34  H12 non d ame     -35.140   8.158  31.529  0.00  0.00     0.042 H 
BRANCH  33  35
ATOM     35  C12 non d ame     -37.134   7.455  31.112  0.00  0.00    -0.071 C 
ATOM     36  H13 non d ame     -37.309   7.352  32.183  0.00  0.00     0.028 H 
ATOM     37  H14 non d ame     -37.567   8.391  30.762  0.00  0.00     0.028 H 
ATOM     38  H15 non d ame     -37.598   6.620  30.587  0.00  0.00     0.028 H 
ENDBRANCH  33  35
BRANCH  33  39
ATOM     39  C13 non d ame     -34.976   6.045  31.090  0.00  0.00    -0.071 C 
ATOM     40  H16 non d ame     -33.899   6.144  31.231  0.00  0.00     0.028 H 
ATOM     41  H17 non d ame     -35.422   5.608  31.983  0.00  0.00     0.028 H 
ATOM     42  H18 non d ame     -35.173   5.400  30.233  0.00  0.00     0.028 H 
ENDBRANCH  33  39
ENDBRANCH   7  33
ENDBRANCH   4   7
ENDBRANCH   1   3
BRANCH   1  43
ATOM     43  C15 non d ame     -34.480  12.172  26.856  0.00  0.00     0.240 C 
ATOM     44  O5  non d ame     -34.309  11.608  25.824  0.00  0.00    -0.271 OA
ATOM     45  N6  non d ame     -35.107  13.525  26.866  0.00  0.00    -0.355 N 
ATOM     46  H46 non d ame     -35.261  14.012  27.737  0.00  0.00     0.162 HD
BRANCH  45  47
ATOM     47  C20 non d ame     -35.506  14.157  25.590  0.00  0.00     0.013 C 
ATOM     48  H30 non d ame     -35.717  13.363  24.874  0.00  0.00     0.072 H 
BRANCH  47  49
ATOM     49  C21 non d ame     -34.374  15.021  25.085  0.00  0.00    -0.038 C 
ATOM     50  H31 non d ame     -33.743  14.362  24.488  0.00  0.00     0.036 H 
ATOM     51  H32 non d ame     -34.848  15.887  24.623  0.00  0.00     0.036 H 
BRANCH  49  52
ATOM     52  C22 non d ame     -33.482  15.567  26.222  0.00  0.00     0.018 C 
ATOM     53  H33 non d ame     -34.163  15.826  27.032  0.00  0.00     0.048 H 
ATOM     54  H34 non d ame     -32.710  14.813  26.379  0.00  0.00     0.048 H 
BRANCH  52  55
ATOM     55  C23 non d ame     -32.733  16.878  25.857  0.00  0.00     0.259 C 
ATOM     56  O7  non d ame     -33.236  17.936  26.056  0.00  0.00    -0.265 OA
BRANCH  55  57
ATOM     57  O8  non d ame     -31.441  16.801  25.268  0.00  0.00    -0.317 OA
BRANCH  57  58
ATOM     58  C29 non d ame     -30.971  15.465  25.066  0.00  0.00     0.052 C 
ATOM     59  H47 non d ame     -30.044  15.389  25.635  0.00  0.00     0.082 H 
ATOM     60  H48 non d ame     -31.813  14.817  25.308  0.00  0.00     0.082 H 
BRANCH  58  61
ATOM     61  C35 non d ame     -30.639  15.296  23.559  0.00  0.00    -0.034 A 
ATOM     62  C30 non d ame     -29.867  14.221  23.132  0.00  0.00    -0.075 A 
ATOM     63  C31 non d ame     -29.568  14.069  21.779  0.00  0.00    -0.082 A 
ATOM     64  H49 non d ame     -29.495  13.497  23.858  0.00  0.00     0.084 H 
ATOM     65  C32 non d ame     -30.042  15.000  20.851  0.00  0.00    -0.083 A 
ATOM     66  H50 non d ame     -28.964  13.224  21.448  0.00  0.00     0.083 H 
ATOM     67  C33 non d ame     -30.810  16.074  21.283  0.00  0.00    -0.082 A 
ATOM     68  H51 non d ame     -29.814  14.889  19.792  0.00  0.00     0.083 H 
ATOM     69  C34 non d ame     -31.113  16.228  22.634  0.00  0.00    -0.075 A 
ATOM     70  H52 non d ame     -31.177  16.800  20.556  0.00  0.00     0.083 H 
ATOM     71  H53 non d ame     -31.717  17.073  22.965  0.00  0.00     0.084 H 
ENDBRANCH  58  61
ENDBRANCH  57  58
ENDBRANCH  55  57
ENDBRANCH  52  55
ENDBRANCH  49  52
ENDBRANCH  47  49
BRANCH  47  72
ATOM     72  C24 non d ame     -36.748  15.019  25.808  0.00  0.00    -0.039 C 
ATOM     73  H35 non d ame     -37.593  14.333  25.743  0.00  0.00     0.036 H 
ATOM     74  H36 non d ame     -36.562  15.568  26.731  0.00  0.00     0.036 H 
BRANCH  72  75
ATOM     75  C25 non d ame     -36.929  16.102  24.641  0.00  0.00    -0.001 C 
ATOM     76  C26 non d ame     -36.956  17.616  25.282  0.00  0.00    -0.035 C 
ATOM     77  C27 non d ame     -38.050  18.267  24.817  0.00  0.00     0.085 C 
ATOM     78  H38 non d ame     -37.129  17.564  26.357  0.00  0.00     0.036 H 
ATOM     79  H39 non d ame     -36.125  18.203  24.891  0.00  0.00     0.036 H 
ATOM     80  N5  non d ame     -38.943  17.231  24.180  0.00  0.00    -0.049 N 
ATOM     81  H40 non d ame     -38.546  18.670  25.701  0.00  0.00     0.075 H 
ATOM     82  H41 non d ame     -37.680  18.941  24.045  0.00  0.00     0.075 H 
ATOM     83  C28 non d ame     -38.030  15.912  23.994  0.00  0.00     0.193 C 
ATOM     84  H42 non d ame     -39.670  17.027  24.851  0.00  0.00     0.280 HD
ATOM     85  H43 non d ame     -39.185  17.586  23.265  0.00  0.00     0.280 HD
ATOM     86  H44 non d ame     -37.639  15.643  23.012  0.00  0.00     0.129 H 
ATOM     87  H37 non d ame     -36.249  15.929  23.808  0.00  0.00     0.046 H 
BRANCH  83  88
ATOM     88  O6  non d ame     -38.734  14.757  24.454  0.00  0.00    -0.369 OA
ATOM     89  H45 non d ame     -39.327  15.007  25.167  0.00  0.00     0.212 HD
ENDBRANCH  83  88
ENDBRANCH  72  75
ENDBRANCH  47  72
ENDBRANCH  45  47
ENDBRANCH   1  43
BRANCH   1  90
ATOM     90  C16 non d ame     -32.542  11.536  28.326  0.00  0.00    -0.035 C 
ATOM     91  H21 non d ame     -32.262  10.573  28.751  0.00  0.00     0.037 H 
ATOM     92  H22 non d ame     -32.171  11.825  27.342  0.00  0.00     0.037 H 
BRANCH  90  93
ATOM     93  C17 non d ame     -32.034  12.623  29.325  0.00  0.00    -0.059 C 
ATOM     94  H23 non d ame     -32.794  13.402  29.381  0.00  0.00     0.038 H 
BRANCH  93  95
ATOM     95  C18 non d ame     -31.831  12.051  30.765  0.00  0.00    -0.073 C 
ATOM     96  H24 non d ame     -32.744  12.191  31.344  0.00  0.00     0.028 H 
ATOM     97  H25 non d ame     -31.599  10.989  30.705  0.00  0.00     0.028 H 
ATOM     98  H26 non d ame     -31.009  12.576  31.252  0.00  0.00     0.028 H 
ENDBRANCH  93  95
BRANCH  93  99
ATOM     99  C19 non d ame     -30.748  13.279  28.814  0.00  0.00    -0.073 C 
ATOM    100  H27 non d ame     -30.976  13.893  27.942  0.00  0.00     0.028 H 
ATOM    101  H28 non d ame     -30.323  13.906  29.598  0.00  0.00     0.028 H 
ATOM    102  H29 non d ame     -30.031  12.506  28.538  0.00  0.00     0.028 H 
ENDBRANCH  93  99
ENDBRANCH  90  93
ENDBRANCH   1  90
TORSDOF 26
ENDMDL
MODEL 12
REMARK VINA RESULT:      -5.9      2.142      3.910
REMARK  26 active torsions:
REMARK  status: ('A' for Active; 'I' for Inactive)
REMARK    1  A    between atoms: C2_2  and  C3_3 
REMARK    2  A    between atoms: C4_6  and  C5_7 
REMARK       I    between atoms: C5_7  and  N2_9 
REMARK    3  A    between atoms: N2_9  and  C6_10 
REMARK    4  A    between atoms: C6_10  and  C7_11 
REMARK    5  A    between atoms: C6_10  and  C8_13 
REMARK       I    between atoms: C7_11  and  N3_14 
REMARK    6  A    between atoms: N3_14  and  C9_15 
REMARK    7  A    between atoms: C9_15  and  C10_16 
REMARK    8  A    between atoms: C9_15  and  C11_18 
REMARK       I    between atoms: C10_16  and  N4_21 
REMARK    9  A    between atoms: C11_18  and  C12_19 
REMARK   10  A    between atoms: C11_18  and  C13_20 
REMARK   11  A    between atoms: N4_21  and  C14_22 
REMARK   12  A    between atoms: C14_22  and  C15_23 
REMARK   13  A    between atoms: C14_22  and  C16_25 
REMARK       I    between atoms: C15_23  and  N6_40 
REMARK   14  A    between atoms: C16_25  and  C17_26 
REMARK   15  A    between atoms: C17_26  and  C18_27 
REMARK   16  A    between atoms: C17_26  and  C19_28 
REMARK   17  A    between atoms: C20_29  and  C21_30 
REMARK   18  A    between atoms: C20_29  and  C24_33 
REMARK   19  A    between atoms: C20_29  and  N6_40 
REMARK   20  A    between atoms: C21_30  and  C22_31 
REMARK   21  A    between atoms: C22_31  and  C23_32 
REMARK   22  A    between atoms: C23_32  and  O8_43 
REMARK   23  A    between atoms: C24_33  and  C25_34 
REMARK   24  A    between atoms: C28_38  and  O6_39 
REMARK   25  A    between atoms: C29_42  and  O8_43 
REMARK   26  A    between atoms: C29_42  and  C35_49 
ROOT
ATOM      1  C14 non d ame     -35.939  10.255  25.840  0.00  0.00     0.089 C 
ATOM      2  H20 non d ame     -36.982  10.010  26.038  0.00  0.00     0.087 H 
ENDROOT
BRANCH   1   3
ATOM      3  N4  non d ame     -35.207  10.095  27.088  0.00  0.00    -0.346 N 
ATOM      4  C10 non d ame     -35.935   9.720  28.355  0.00  0.00     0.241 C 
ATOM      5  O4  non d ame     -37.110   9.555  28.345  0.00  0.00    -0.271 OA
ATOM      6  H19 non d ame     -34.208  10.242  27.076  0.00  0.00     0.163 HD
BRANCH   4   7
ATOM      7  C9  non d ame     -35.161   9.553  29.636  0.00  0.00     0.092 C 
ATOM      8  H11 non d ame     -34.499   8.692  29.546  0.00  0.00     0.088 H 
BRANCH   7   9
ATOM      9  N3  non d ame     -34.314  10.730  29.853  0.00  0.00    -0.346 N 
ATOM     10  C7  non d ame     -32.978  10.766  29.311  0.00  0.00     0.240 C 
ATOM     11  O3  non d ame     -32.569   9.856  28.698  0.00  0.00    -0.271 OA
ATOM     12  H10 non d ame     -34.653  11.521  30.381  0.00  0.00     0.163 HD
BRANCH  10  13
ATOM     13  C6  non d ame     -32.081  12.020  29.548  0.00  0.00     0.086 C 
ATOM     14  H6  non d ame     -31.145  11.979  28.991  0.00  0.00     0.086 H 
BRANCH  13  15
ATOM     15  N2  non d ame     -32.789  13.201  29.084  0.00  0.00    -0.343 N 
ATOM     16  C5  non d ame     -32.028  14.356  28.602  0.00  0.00     0.273 C 
ATOM     17  O2  non d ame     -30.846  14.326  28.594  0.00  0.00    -0.266 OA
ATOM     18  H5  non d ame     -33.799  13.220  29.097  0.00  0.00     0.163 HD
BRANCH  16  19
ATOM     19  C4  non d ame     -32.764  15.611  28.108  0.00  0.00     0.154 A 
ATOM     20  C1  non d ame     -32.598  16.271  26.849  0.00  0.00    -0.017 A 
ATOM     21  C2  non d ame     -33.497  17.361  26.889  0.00  0.00     0.077 A 
ATOM     22  H1  non d ame     -31.928  16.002  26.033  0.00  0.00     0.091 H 
ATOM     23  O1  non d ame     -34.104  17.320  28.039  0.00  0.00    -0.218 OA
ATOM     24  N1  non d ame     -33.693  16.308  28.768  0.00  0.00    -0.123 NA
BRANCH  21  25
ATOM     25  C3  non d ame     -33.715  18.390  25.788  0.00  0.00    -0.029 C 
ATOM     26  H2  non d ame     -32.787  18.534  25.236  0.00  0.00     0.036 H 
ATOM     27  H3  non d ame     -34.490  18.036  25.109  0.00  0.00     0.036 H 
ATOM     28  H4  non d ame     -34.024  19.336  26.231  0.00  0.00     0.036 H 
ENDBRANCH  21  25
ENDBRANCH  16  19
ENDBRANCH  13  15
BRANCH  13  29
ATOM     29  C8  non d ame     -31.769  12.148  31.017  0.00  0.00    -0.049 C 
ATOM     30  H7  non d ame     -32.591  12.656  31.520  0.00  0.00     0.030 H 
ATOM     31  H8  non d ame     -31.638  11.155  31.448  0.00  0.00     0.030 H 
ATOM     32  H9  non d ame     -30.853  12.724  31.145  0.00  0.00     0.030 H 
ENDBRANCH  13  29
ENDBRANCH  10  13
ENDBRANCH   7   9
BRANCH   7  33
ATOM     33  C11 non d ame     -36.154   9.406  30.826  0.00  0.00    -0.033 C 
ATOM     34  H12 non d ame     -36.779   8.535  30.627  0.00  0.00     0.042 H 
BRANCH  33  35
ATOM     35  C12 non d ame     -35.400   9.145  32.167  0.00  0.00    -0.071 C 
ATOM     36  H13 non d ame     -35.363  10.066  32.748  0.00  0.00     0.028 H 
ATOM     37  H14 non d ame     -35.925   8.377  32.735  0.00  0.00     0.028 H 
ATOM     38  H15 non d ame     -34.385   8.810  31.954  0.00  0.00     0.028 H 
ENDBRANCH  33  35
BRANCH  33  39
ATOM     39  C13 non d ame     -37.087  10.655  30.934  0.00  0.00    -0.071 C 
ATOM     40  H16 non d ame     -37.872  10.460  31.665  0.00  0.00     0.028 H 
ATOM     41  H17 non d ame     -36.502  11.519  31.250  0.00  0.00     0.028 H 
ATOM     42  H18 non d ame     -37.537  10.858  29.962  0.00  0.00     0.028 H 
ENDBRANCH  33  39
ENDBRANCH   7  33
ENDBRANCH   4   7
ENDBRANCH   1   3
BRANCH   1  43
ATOM     43  C15 non d ame     -35.306   9.318  24.772  0.00  0.00     0.240 C 
ATOM     44  O5  non d ame     -35.893   9.091  23.764  0.00  0.00    -0.271 OA
ATOM     45  N6  non d ame     -33.964   8.711  25.002  0.00  0.00    -0.355 N 
ATOM     46  H46 non d ame     -33.454   8.901  25.852  0.00  0.00     0.162 HD
BRANCH  45  47
ATOM     47  C20 non d ame     -33.376   7.823  23.976  0.00  0.00     0.013 C 
ATOM     48  H30 non d ame     -34.183   7.233  23.540  0.00  0.00     0.072 H 
BRANCH  47  49
ATOM     49  C21 non d ame     -32.362   6.910  24.627  0.00  0.00    -0.038 C 
ATOM     50  H31 non d ame     -31.595   6.735  23.871  0.00  0.00     0.036 H 
ATOM     51  H32 non d ame     -32.098   7.389  25.570  0.00  0.00     0.036 H 
BRANCH  49  52
ATOM     52  C22 non d ame     -32.945   5.527  24.987  0.00  0.00     0.018 C 
ATOM     53  H33 non d ame     -33.895   5.460  24.458  0.00  0.00     0.048 H 
ATOM     54  H34 non d ame     -32.152   4.808  24.775  0.00  0.00     0.048 H 
BRANCH  52  55
ATOM     55  C23 non d ame     -33.281   5.362  26.495  0.00  0.00     0.259 C 
ATOM     56  O7  non d ame     -32.946   4.386  27.084  0.00  0.00    -0.265 OA
BRANCH  55  57
ATOM     57  O8  non d ame     -34.006   6.387  27.163  0.00  0.00    -0.317 OA
BRANCH  57  58
ATOM     58  C29 non d ame     -35.418   6.161  27.216  0.00  0.00     0.052 C 
ATOM     59  H47 non d ame     -35.876   7.066  26.817  0.00  0.00     0.082 H 
ATOM     60  H48 non d ame     -35.583   5.204  26.722  0.00  0.00     0.082 H 
BRANCH  58  61
ATOM     61  C35 non d ame     -35.825   6.021  28.707  0.00  0.00    -0.034 A 
ATOM     62  C30 non d ame     -37.167   6.063  29.070  0.00  0.00    -0.075 A 
ATOM     63  C31 non d ame     -37.533   5.938  30.409  0.00  0.00    -0.082 A 
ATOM     64  H49 non d ame     -37.933   6.196  28.305  0.00  0.00     0.084 H 
ATOM     65  C32 non d ame     -36.549   5.771  31.388  0.00  0.00    -0.083 A 
ATOM     66  H50 non d ame     -38.586   5.970  30.690  0.00  0.00     0.083 H 
ATOM     67  C33 non d ame     -35.211   5.732  31.022  0.00  0.00    -0.082 A 
ATOM     68  H51 non d ame     -36.826   5.671  32.438  0.00  0.00     0.083 H 
ATOM     69  C34 non d ame     -34.841   5.856  29.684  0.00  0.00    -0.075 A 
ATOM     70  H52 non d ame     -34.446   5.604  31.788  0.00  0.00     0.083 H 
ATOM     71  H53 non d ame     -33.788   5.823  29.404  0.00  0.00     0.084 H 
ENDBRANCH  58  61
ENDBRANCH  57  58
ENDBRANCH  55  57
ENDBRANCH  52  55
ENDBRANCH  49  52
ENDBRANCH  47  49
BRANCH  47  72
ATOM     72  C24 non d ame     -32.691   8.662  22.899  0.00  0.00    -0.039 C 
ATOM     73  H35 non d ame     -32.672   8.032  22.009  0.00  0.00     0.036 H 
ATOM     74  H36 non d ame     -33.229   9.610  22.883  0.00  0.00     0.036 H 
BRANCH  72  75
ATOM     75  C25 non d ame     -31.169   8.987  23.280  0.00  0.00    -0.001 C 
ATOM     76  C26 non d ame     -30.986  10.604  23.520  0.00  0.00    -0.035 C 
ATOM     77  C27 non d ame     -29.942  11.040  22.774  0.00  0.00     0.085 C 
ATOM     78  H38 non d ame     -31.838  11.142  23.105  0.00  0.00     0.036 H 
ATOM     79  H39 non d ame     -30.665  10.796  24.543  0.00  0.00     0.036 H 
ATOM     80  N5  non d ame     -29.604   9.937  21.800  0.00  0.00    -0.049 N 
ATOM     81  H40 non d ame     -30.319  11.900  22.221  0.00  0.00     0.075 H 
ATOM     82  H41 non d ame     -29.115  11.161  23.473  0.00  0.00     0.075 H 
ATOM     83  C28 non d ame     -30.363   8.619  22.341  0.00  0.00     0.193 C 
ATOM     84  H42 non d ame     -30.012  10.202  20.915  0.00  0.00     0.280 HD
ATOM     85  H43 non d ame     -28.608   9.787  21.872  0.00  0.00     0.280 HD
ATOM     86  H44 non d ame     -29.809   7.832  22.854  0.00  0.00     0.129 H 
ATOM     87  H37 non d ame     -30.787   8.324  24.056  0.00  0.00     0.046 H 
BRANCH  83  88
ATOM     88  O6  non d ame     -31.046   7.968  21.268  0.00  0.00    -0.369 OA
ATOM     89  H45 non d ame     -30.651   8.227  20.433  0.00  0.00     0.212 HD
ENDBRANCH  83  88
ENDBRANCH  72  75
ENDBRANCH  47  72
ENDBRANCH  45  47
ENDBRANCH   1  43
BRANCH   1  90
ATOM     90  C16 non d ame     -35.828  11.701  25.382  0.00  0.00    -0.035 C 
ATOM     91  H21 non d ame     -34.760  11.919  25.372  0.00  0.00     0.037 H 
ATOM     92  H22 non d ame     -36.404  11.756  24.459  0.00  0.00     0.037 H 
BRANCH  90  93
ATOM     93  C17 non d ame     -36.476  12.723  26.370  0.00  0.00    -0.059 C 
ATOM     94  H23 non d ame     -36.521  12.251  27.352  0.00  0.00     0.038 H 
BRANCH  93  95
ATOM     95  C18 non d ame     -35.630  14.029  26.506  0.00  0.00    -0.073 C 
ATOM     96  H24 non d ame     -35.953  14.580  27.389  0.00  0.00     0.028 H 
ATOM     97  H25 non d ame     -34.576  13.771  26.605  0.00  0.00     0.028 H 
ATOM     98  H26 non d ame     -35.771  14.647  25.620  0.00  0.00     0.028 H 
ENDBRANCH  93  95
BRANCH  93  99
ATOM     99  C19 non d ame     -37.914  13.046  25.956  0.00  0.00    -0.073 C 
ATOM    100  H27 non d ame     -38.449  13.476  26.803  0.00  0.00     0.028 H 
ATOM    101  H28 non d ame     -37.904  13.760  25.132  0.00  0.00     0.028 H 
ATOM    102  H29 non d ame     -38.414  12.132  25.636  0.00  0.00     0.028 H 
ENDBRANCH  93  99
ENDBRANCH  90  93
ENDBRANCH   1  90
TORSDOF 26
ENDMDL
MODEL 13
REMARK VINA RESULT:      -5.8      2.791      6.182
REMARK  26 active torsions:
REMARK  status: ('A' for Active; 'I' for Inactive)
REMARK    1  A    between atoms: C2_2  and  C3_3 
REMARK    2  A    between atoms: C4_6  and  C5_7 
REMARK       I    between atoms: C5_7  and  N2_9 
REMARK    3  A    between atoms: N2_9  and  C6_10 
REMARK    4  A    between atoms: C6_10  and  C7_11 
REMARK    5  A    between atoms: C6_10  and  C8_13 
REMARK       I    between atoms: C7_11  and  N3_14 
REMARK    6  A    between atoms: N3_14  and  C9_15 
REMARK    7  A    between atoms: C9_15  and  C10_16 
REMARK    8  A    between atoms: C9_15  and  C11_18 
REMARK       I    between atoms: C10_16  and  N4_21 
REMARK    9  A    between atoms: C11_18  and  C12_19 
REMARK   10  A    between atoms: C11_18  and  C13_20 
REMARK   11  A    between atoms: N4_21  and  C14_22 
REMARK   12  A    between atoms: C14_22  and  C15_23 
REMARK   13  A    between atoms: C14_22  and  C16_25 
REMARK       I    between atoms: C15_23  and  N6_40 
REMARK   14  A    between atoms: C16_25  and  C17_26 
REMARK   15  A    between atoms: C17_26  and  C18_27 
REMARK   16  A    between atoms: C17_26  and  C19_28 
REMARK   17  A    between atoms: C20_29  and  C21_30 
REMARK   18  A    between atoms: C20_29  and  C24_33 
REMARK   19  A    between atoms: C20_29  and  N6_40 
REMARK   20  A    between atoms: C21_30  and  C22_31 
REMARK   21  A    between atoms: C22_31  and  C23_32 
REMARK   22  A    between atoms: C23_32  and  O8_43 
REMARK   23  A    between atoms: C24_33  and  C25_34 
REMARK   24  A    between atoms: C28_38  and  O6_39 
REMARK   25  A    between atoms: C29_42  and  O8_43 
REMARK   26  A    between atoms: C29_42  and  C35_49 
ROOT
ATOM      1  C14 non d ame     -35.317   9.753  29.925  0.00  0.00     0.089 C 
ATOM      2  H20 non d ame     -35.392  10.102  30.955  0.00  0.00     0.087 H 
ENDROOT
BRANCH   1   3
ATOM      3  N4  non d ame     -34.272  10.529  29.274  0.00  0.00    -0.346 N 
ATOM      4  C10 non d ame     -33.374  11.429  30.086  0.00  0.00     0.241 C 
ATOM      5  O4  non d ame     -33.513  11.513  31.261  0.00  0.00    -0.271 OA
ATOM      6  H19 non d ame     -34.172  10.445  28.272  0.00  0.00     0.163 HD
BRANCH   4   7
ATOM      7  C9  non d ame     -32.294  12.221  29.396  0.00  0.00     0.092 C 
ATOM      8  H11 non d ame     -31.732  11.561  28.736  0.00  0.00     0.088 H 
BRANCH   7   9
ATOM      9  N3  non d ame     -32.907  13.255  28.556  0.00  0.00    -0.346 N 
ATOM     10  C7  non d ame     -32.804  13.171  27.120  0.00  0.00     0.240 C 
ATOM     11  O3  non d ame     -32.231  12.279  26.624  0.00  0.00    -0.271 OA
ATOM     12  H10 non d ame     -33.403  14.031  28.970  0.00  0.00     0.163 HD
BRANCH  10  13
ATOM     13  C6  non d ame     -33.456  14.276  26.232  0.00  0.00     0.086 C 
ATOM     14  H6  non d ame     -33.410  15.264  26.687  0.00  0.00     0.086 H 
BRANCH  13  15
ATOM     15  N2  non d ame     -32.727  14.362  24.977  0.00  0.00    -0.343 N 
ATOM     16  C5  non d ame     -31.680  15.373  24.819  0.00  0.00     0.273 C 
ATOM     17  O2  non d ame     -31.433  16.115  25.706  0.00  0.00    -0.266 OA
ATOM     18  H5  non d ame     -32.947  13.726  24.223  0.00  0.00     0.163 HD
BRANCH  16  19
ATOM     19  C4  non d ame     -30.901  15.475  23.498  0.00  0.00     0.154 A 
ATOM     20  C1  non d ame     -31.441  15.674  22.188  0.00  0.00    -0.017 A 
ATOM     21  C2  non d ame     -30.319  15.694  21.331  0.00  0.00     0.077 A 
ATOM     22  H1  non d ame     -32.488  15.787  21.904  0.00  0.00     0.091 H 
ATOM     23  O1  non d ame     -29.263  15.527  22.072  0.00  0.00    -0.218 OA
ATOM     24  N1  non d ame     -29.577  15.396  23.340  0.00  0.00    -0.123 NA
BRANCH  21  25
ATOM     25  C3  non d ame     -30.342  15.879  19.819  0.00  0.00    -0.029 C 
ATOM     26  H2  non d ame     -29.323  16.001  19.452  0.00  0.00     0.036 H 
ATOM     27  H3  non d ame     -30.793  15.004  19.353  0.00  0.00     0.036 H 
ATOM     28  H4  non d ame     -30.927  16.765  19.571  0.00  0.00     0.036 H 
ENDBRANCH  21  25
ENDBRANCH  16  19
ENDBRANCH  13  15
BRANCH  13  29
ATOM     29  C8  non d ame     -34.898  13.927  25.969  0.00  0.00    -0.049 C 
ATOM     30  H7  non d ame     -34.952  13.158  25.197  0.00  0.00     0.030 H 
ATOM     31  H8  non d ame     -35.355  13.554  26.885  0.00  0.00     0.030 H 
ATOM     32  H9  non d ame     -35.432  14.816  25.632  0.00  0.00     0.030 H 
ENDBRANCH  13  29
ENDBRANCH  10  13
ENDBRANCH   7   9
BRANCH   7  33
ATOM     33  C11 non d ame     -31.385  12.896  30.464  0.00  0.00    -0.033 C 
ATOM     34  H12 non d ame     -32.020  13.188  31.300  0.00  0.00     0.042 H 
BRANCH  33  35
ATOM     35  C12 non d ame     -30.317  11.899  31.013  0.00  0.00    -0.071 C 
ATOM     36  H13 non d ame     -29.940  12.260  31.970  0.00  0.00     0.028 H 
ATOM     37  H14 non d ame     -30.771  10.918  31.148  0.00  0.00     0.028 H 
ATOM     38  H15 non d ame     -29.492  11.824  30.304  0.00  0.00     0.028 H 
ENDBRANCH  33  35
BRANCH  33  39
ATOM     39  C13 non d ame     -30.714  14.186  29.892  0.00  0.00    -0.071 C 
ATOM     40  H16 non d ame     -30.516  14.884  30.706  0.00  0.00     0.028 H 
ATOM     41  H17 non d ame     -29.776  13.922  29.403  0.00  0.00     0.028 H 
ATOM     42  H18 non d ame     -31.382  14.652  29.168  0.00  0.00     0.028 H 
ENDBRANCH  33  39
ENDBRANCH   7  33
ENDBRANCH   4   7
ENDBRANCH   1   3
BRANCH   1  43
ATOM     43  C15 non d ame     -34.938   8.246  29.842  0.00  0.00     0.240 C 
ATOM     44  O5  non d ame     -34.874   7.597  30.836  0.00  0.00    -0.271 OA
ATOM     45  N6  non d ame     -34.665   7.610  28.522  0.00  0.00    -0.355 N 
ATOM     46  H46 non d ame     -34.721   8.150  27.671  0.00  0.00     0.162 HD
BRANCH  45  47
ATOM     47  C20 non d ame     -34.308   6.176  28.460  0.00  0.00     0.013 C 
ATOM     48  H30 non d ame     -34.194   5.814  29.481  0.00  0.00     0.072 H 
BRANCH  47  49
ATOM     49  C21 non d ame     -33.005   6.018  27.708  0.00  0.00    -0.038 C 
ATOM     50  H31 non d ame     -32.222   6.049  28.465  0.00  0.00     0.036 H 
ATOM     51  H32 non d ame     -33.130   5.129  27.088  0.00  0.00     0.036 H 
BRANCH  49  52
ATOM     52  C22 non d ame     -32.725   7.189  26.741  0.00  0.00     0.018 C 
ATOM     53  H33 non d ame     -33.647   7.768  26.704  0.00  0.00     0.048 H 
ATOM     54  H34 non d ame     -31.804   7.651  27.096  0.00  0.00     0.048 H 
BRANCH  52  55
ATOM     55  C23 non d ame     -32.443   6.741  25.280  0.00  0.00     0.259 C 
ATOM     56  O7  non d ame     -31.446   6.152  25.011  0.00  0.00    -0.265 OA
BRANCH  55  57
ATOM     57  O8  non d ame     -33.385   7.053  24.261  0.00  0.00    -0.317 OA
BRANCH  57  58
ATOM     58  C29 non d ame     -33.597   8.456  24.074  0.00  0.00     0.052 C 
ATOM     59  H47 non d ame     -34.385   8.538  23.325  0.00  0.00     0.082 H 
ATOM     60  H48 non d ame     -33.749   8.867  25.072  0.00  0.00     0.082 H 
BRANCH  58  61
ATOM     61  C35 non d ame     -32.295   9.063  23.486  0.00  0.00    -0.034 A 
ATOM     62  C30 non d ame     -31.800  10.263  23.984  0.00  0.00    -0.075 A 
ATOM     63  C31 non d ame     -30.631  10.809  23.456  0.00  0.00    -0.082 A 
ATOM     64  H49 non d ame     -32.328  10.778  24.788  0.00  0.00     0.084 H 
ATOM     65  C32 non d ame     -29.957  10.150  22.424  0.00  0.00    -0.083 A 
ATOM     66  H50 non d ame     -30.244  11.749  23.850  0.00  0.00     0.083 H 
ATOM     67  C33 non d ame     -30.457   8.953  21.929  0.00  0.00    -0.082 A 
ATOM     68  H51 non d ame     -29.042  10.569  22.006  0.00  0.00     0.083 H 
ATOM     69  C34 non d ame     -31.624   8.403  22.455  0.00  0.00    -0.075 A 
ATOM     70  H52 non d ame     -29.931   8.443  21.122  0.00  0.00     0.083 H 
ATOM     71  H53 non d ame     -32.010   7.463  22.061  0.00  0.00     0.084 H 
ENDBRANCH  58  61
ENDBRANCH  57  58
ENDBRANCH  55  57
ENDBRANCH  52  55
ENDBRANCH  49  52
ENDBRANCH  47  49
BRANCH  47  72
ATOM     72  C24 non d ame     -35.409   5.400  27.741  0.00  0.00    -0.039 C 
ATOM     73  H35 non d ame     -34.905   4.852  26.944  0.00  0.00     0.036 H 
ATOM     74  H36 non d ame     -35.940   4.858  28.523  0.00  0.00     0.036 H 
BRANCH  72  75
ATOM     75  C25 non d ame     -36.467   6.381  27.044  0.00  0.00    -0.001 C 
ATOM     76  C26 non d ame     -37.967   6.119  27.664  0.00  0.00    -0.035 C 
ATOM     77  C27 non d ame     -38.835   5.930  26.641  0.00  0.00     0.085 C 
ATOM     78  H38 non d ame     -37.990   5.169  28.197  0.00  0.00     0.036 H 
ATOM     79  H39 non d ame     -38.336   7.024  28.147  0.00  0.00     0.036 H 
ATOM     80  N5  non d ame     -38.009   5.714  25.396  0.00  0.00    -0.049 N 
ATOM     81  H40 non d ame     -39.368   5.009  26.878  0.00  0.00     0.075 H 
ATOM     82  H41 non d ame     -39.382   6.867  26.546  0.00  0.00     0.075 H 
ATOM     83  C28 non d ame     -36.512   6.189  25.767  0.00  0.00     0.193 C 
ATOM     84  H42 non d ame     -37.999   4.718  25.228  0.00  0.00     0.280 HD
ATOM     85  H43 non d ame     -38.381   6.339  24.695  0.00  0.00     0.280 HD
ATOM     86  H44 non d ame     -36.129   7.145  25.409  0.00  0.00     0.129 H 
ATOM     87  H37 non d ame     -36.116   7.413  27.014  0.00  0.00     0.046 H 
BRANCH  83  88
ATOM     88  O6  non d ame     -35.563   5.212  25.336  0.00  0.00    -0.369 OA
ATOM     89  H45 non d ame     -35.455   5.270  24.383  0.00  0.00     0.212 HD
ENDBRANCH  83  88
ENDBRANCH  72  75
ENDBRANCH  47  72
ENDBRANCH  45  47
ENDBRANCH   1  43
BRANCH   1  90
ATOM     90  C16 non d ame     -36.634   9.990  29.203  0.00  0.00    -0.035 C 
ATOM     91  H21 non d ame     -36.487  10.903  28.627  0.00  0.00     0.037 H 
ATOM     92  H22 non d ame     -36.856   9.052  28.692  0.00  0.00     0.037 H 
BRANCH  90  93
ATOM     93  C17 non d ame     -37.834  10.263  30.164  0.00  0.00    -0.059 C 
ATOM     94  H23 non d ame     -37.505  10.990  30.907  0.00  0.00     0.038 H 
BRANCH  93  95
ATOM     95  C18 non d ame     -39.063  10.871  29.414  0.00  0.00    -0.073 C 
ATOM     96  H24 non d ame     -38.741  11.731  28.828  0.00  0.00     0.028 H 
ATOM     97  H25 non d ame     -39.492  10.121  28.752  0.00  0.00     0.028 H 
ATOM     98  H26 non d ame     -39.812  11.186  30.140  0.00  0.00     0.028 H 
ENDBRANCH  93  95
BRANCH  93  99
ATOM     99  C19 non d ame     -38.232   8.991  30.918  0.00  0.00    -0.073 C 
ATOM    100  H27 non d ame     -37.477   8.764  31.672  0.00  0.00     0.028 H 
ATOM    101  H28 non d ame     -39.196   9.142  31.404  0.00  0.00     0.028 H 
ATOM    102  H29 non d ame     -38.306   8.161  30.216  0.00  0.00     0.028 H 
ENDBRANCH  93  99
ENDBRANCH  90  93
ENDBRANCH   1  90
TORSDOF 26
ENDMDL
MODEL 14
REMARK VINA RESULT:      -5.8      2.501      9.926
REMARK  26 active torsions:
REMARK  status: ('A' for Active; 'I' for Inactive)
REMARK    1  A    between atoms: C2_2  and  C3_3 
REMARK    2  A    between atoms: C4_6  and  C5_7 
REMARK       I    between atoms: C5_7  and  N2_9 
REMARK    3  A    between atoms: N2_9  and  C6_10 
REMARK    4  A    between atoms: C6_10  and  C7_11 
REMARK    5  A    between atoms: C6_10  and  C8_13 
REMARK       I    between atoms: C7_11  and  N3_14 
REMARK    6  A    between atoms: N3_14  and  C9_15 
REMARK    7  A    between atoms: C9_15  and  C10_16 
REMARK    8  A    between atoms: C9_15  and  C11_18 
REMARK       I    between atoms: C10_16  and  N4_21 
REMARK    9  A    between atoms: C11_18  and  C12_19 
REMARK   10  A    between atoms: C11_18  and  C13_20 
REMARK   11  A    between atoms: N4_21  and  C14_22 
REMARK   12  A    between atoms: C14_22  and  C15_23 
REMARK   13  A    between atoms: C14_22  and  C16_25 
REMARK       I    between atoms: C15_23  and  N6_40 
REMARK   14  A    between atoms: C16_25  and  C17_26 
REMARK   15  A    between atoms: C17_26  and  C18_27 
REMARK   16  A    between atoms: C17_26  and  C19_28 
REMARK   17  A    between atoms: C20_29  and  C21_30 
REMARK   18  A    between atoms: C20_29  and  C24_33 
REMARK   19  A    between atoms: C20_29  and  N6_40 
REMARK   20  A    between atoms: C21_30  and  C22_31 
REMARK   21  A    between atoms: C22_31  and  C23_32 
REMARK   22  A    between atoms: C23_32  and  O8_43 
REMARK   23  A    between atoms: C24_33  and  C25_34 
REMARK   24  A    between atoms: C28_38  and  O6_39 
REMARK   25  A    between atoms: C29_42  and  O8_43 
REMARK   26  A    between atoms: C29_42  and  C35_49 
ROOT
ATOM      1  C14 non d ame     -32.021  13.636  29.541  0.00  0.00     0.089 C 
ATOM      2  H20 non d ame     -31.571  13.626  30.535  0.00  0.00     0.087 H 
ENDROOT
BRANCH   1   3
ATOM      3  N4  non d ame     -33.143  12.709  29.559  0.00  0.00    -0.346 N 
ATOM      4  C10 non d ame     -33.052  11.418  30.332  0.00  0.00     0.241 C 
ATOM      5  O4  non d ame     -32.064  11.145  30.931  0.00  0.00    -0.271 OA
ATOM      6  H19 non d ame     -33.973  12.959  29.041  0.00  0.00     0.163 HD
BRANCH   4   7
ATOM      7  C9  non d ame     -34.225  10.473  30.344  0.00  0.00     0.092 C 
ATOM      8  H11 non d ame     -35.103  10.986  29.952  0.00  0.00     0.088 H 
BRANCH   7   9
ATOM      9  N3  non d ame     -33.950   9.342  29.453  0.00  0.00    -0.346 N 
ATOM     10  C7  non d ame     -34.565   9.286  28.149  0.00  0.00     0.240 C 
ATOM     11  O3  non d ame     -35.284  10.142  27.802  0.00  0.00    -0.271 OA
ATOM     12  H10 non d ame     -33.334   8.595  29.739  0.00  0.00     0.163 HD
BRANCH  10  13
ATOM     13  C6  non d ame     -34.271   8.078  27.206  0.00  0.00     0.086 C 
ATOM     14  H6  non d ame     -35.134   7.794  26.603  0.00  0.00     0.086 H 
BRANCH  13  15
ATOM     15  N2  non d ame     -33.219   8.451  26.276  0.00  0.00    -0.343 N 
ATOM     16  C5  non d ame     -33.384   8.168  24.848  0.00  0.00     0.273 C 
ATOM     17  O2  non d ame     -34.366   7.638  24.459  0.00  0.00    -0.266 OA
ATOM     18  H5  non d ame     -32.382   8.902  26.617  0.00  0.00     0.163 HD
BRANCH  16  19
ATOM     19  C4  non d ame     -32.280   8.558  23.853  0.00  0.00     0.154 A 
ATOM     20  C1  non d ame     -31.505   9.761  23.850  0.00  0.00    -0.017 A 
ATOM     21  C2  non d ame     -30.637   9.631  22.742  0.00  0.00     0.077 A 
ATOM     22  H1  non d ame     -31.563  10.600  24.544  0.00  0.00     0.091 H 
ATOM     23  O1  non d ame     -30.891   8.484  22.183  0.00  0.00    -0.218 OA
ATOM     24  N1  non d ame     -31.846   7.840  22.814  0.00  0.00    -0.123 NA
BRANCH  21  25
ATOM     25  C3  non d ame     -29.596  10.646  22.288  0.00  0.00    -0.029 C 
ATOM     26  H2  non d ame     -28.710  10.123  21.932  0.00  0.00     0.036 H 
ATOM     27  H3  non d ame     -30.009  11.253  21.482  0.00  0.00     0.036 H 
ATOM     28  H4  non d ame     -29.327  11.290  23.126  0.00  0.00     0.036 H 
ENDBRANCH  21  25
ENDBRANCH  16  19
ENDBRANCH  13  15
BRANCH  13  29
ATOM     29  C8  non d ame     -33.838   6.890  28.027  0.00  0.00    -0.049 C 
ATOM     30  H7  non d ame     -33.179   6.258  27.432  0.00  0.00     0.030 H 
ATOM     31  H8  non d ame     -33.308   7.235  28.913  0.00  0.00     0.030 H 
ATOM     32  H9  non d ame     -34.716   6.317  28.328  0.00  0.00     0.030 H 
ENDBRANCH  13  29
ENDBRANCH  10  13
ENDBRANCH   7   9
BRANCH   7  33
ATOM     33  C11 non d ame     -34.452   9.946  31.791  0.00  0.00    -0.033 C 
ATOM     34  H12 non d ame     -33.472   9.801  32.246  0.00  0.00     0.042 H 
BRANCH  33  35
ATOM     35  C12 non d ame     -35.223  10.987  32.661  0.00  0.00    -0.071 C 
ATOM     36  H13 non d ame     -34.850  10.953  33.684  0.00  0.00     0.028 H 
ATOM     37  H14 non d ame     -35.071  11.986  32.251  0.00  0.00     0.028 H 
ATOM     38  H15 non d ame     -36.287  10.749  32.654  0.00  0.00     0.028 H 
ENDBRANCH  33  35
BRANCH  33  39
ATOM     39  C13 non d ame     -35.185   8.566  31.776  0.00  0.00    -0.071 C 
ATOM     40  H16 non d ame     -34.894   8.010  30.884  0.00  0.00     0.028 H 
ATOM     41  H17 non d ame     -34.911   7.999  32.665  0.00  0.00     0.028 H 
ATOM     42  H18 non d ame     -36.263   8.728  31.768  0.00  0.00     0.028 H 
ENDBRANCH  33  39
ENDBRANCH   7  33
ENDBRANCH   4   7
ENDBRANCH   1   3
BRANCH   1  43
ATOM     43  C15 non d ame     -32.549  15.046  29.150  0.00  0.00     0.240 C 
ATOM     44  O5  non d ame     -32.095  16.012  29.672  0.00  0.00    -0.271 OA
ATOM     45  N6  non d ame     -33.615  15.191  28.118  0.00  0.00    -0.355 N 
ATOM     46  H46 non d ame     -34.004  14.377  27.665  0.00  0.00     0.162 HD
BRANCH  45  47
ATOM     47  C20 non d ame     -34.105  16.538  27.756  0.00  0.00     0.013 C 
ATOM     48  H30 non d ame     -33.819  17.225  28.553  0.00  0.00     0.072 H 
BRANCH  47  49
ATOM     49  C21 non d ame     -35.611  16.503  27.622  0.00  0.00    -0.038 C 
ATOM     50  H31 non d ame     -35.997  16.445  28.640  0.00  0.00     0.036 H 
ATOM     51  H32 non d ame     -35.870  17.351  26.987  0.00  0.00     0.036 H 
BRANCH  49  52
ATOM     52  C22 non d ame     -36.118  15.240  26.891  0.00  0.00     0.018 C 
ATOM     53  H33 non d ame     -35.427  15.081  26.064  0.00  0.00     0.048 H 
ATOM     54  H34 non d ame     -36.230  14.478  27.663  0.00  0.00     0.048 H 
BRANCH  52  55
ATOM     55  C23 non d ame     -37.523  15.409  26.249  0.00  0.00     0.259 C 
ATOM     56  O7  non d ame     -37.831  14.770  25.296  0.00  0.00    -0.265 OA
BRANCH  55  57
ATOM     57  O8  non d ame     -38.435  16.348  26.807  0.00  0.00    -0.317 OA
BRANCH  57  58
ATOM     58  C29 non d ame     -39.267  16.996  25.840  0.00  0.00     0.052 C 
ATOM     59  H47 non d ame     -39.262  16.346  24.965  0.00  0.00     0.082 H 
ATOM     60  H48 non d ame     -40.203  17.211  26.354  0.00  0.00     0.082 H 
BRANCH  58  61
ATOM     61  C35 non d ame     -38.596  18.342  25.457  0.00  0.00    -0.034 A 
ATOM     62  C30 non d ame     -38.191  19.226  26.452  0.00  0.00    -0.075 A 
ATOM     63  C31 non d ame     -37.589  20.436  26.108  0.00  0.00    -0.082 A 
ATOM     64  H49 non d ame     -38.345  18.972  27.501  0.00  0.00     0.084 H 
ATOM     65  C32 non d ame     -37.395  20.761  24.763  0.00  0.00    -0.083 A 
ATOM     66  H50 non d ame     -37.271  21.126  26.890  0.00  0.00     0.083 H 
ATOM     67  C33 non d ame     -37.805  19.877  23.774  0.00  0.00    -0.082 A 
ATOM     68  H51 non d ame     -36.925  21.704  24.485  0.00  0.00     0.083 H 
ATOM     69  C34 non d ame     -38.405  18.666  24.113  0.00  0.00    -0.075 A 
ATOM     70  H52 non d ame     -37.654  20.135  22.725  0.00  0.00     0.083 H 
ATOM     71  H53 non d ame     -38.722  17.976  23.330  0.00  0.00     0.084 H 
ENDBRANCH  58  61
ENDBRANCH  57  58
ENDBRANCH  55  57
ENDBRANCH  52  55
ENDBRANCH  49  52
ENDBRANCH  47  49
BRANCH  47  72
ATOM     72  C24 non d ame     -33.485  16.975  26.431  0.00  0.00    -0.039 C 
ATOM     73  H35 non d ame     -32.732  16.221  26.200  0.00  0.00     0.036 H 
ATOM     74  H36 non d ame     -34.326  17.130  25.754  0.00  0.00     0.036 H 
BRANCH  72  75
ATOM     75  C25 non d ame     -32.723  18.378  26.566  0.00  0.00    -0.001 C 
ATOM     76  C26 non d ame     -32.560  18.775  28.154  0.00  0.00    -0.035 C 
ATOM     77  C27 non d ame     -33.018  20.037  28.337  0.00  0.00     0.085 C 
ATOM     78  H38 non d ame     -33.232  18.169  28.761  0.00  0.00     0.036 H 
ATOM     79  H39 non d ame     -31.504  18.847  28.415  0.00  0.00     0.036 H 
ATOM     80  N5  non d ame     -33.779  20.416  27.089  0.00  0.00    -0.049 N 
ATOM     81  H40 non d ame     -33.715  19.974  29.173  0.00  0.00     0.075 H 
ATOM     82  H41 non d ame     -32.129  20.661  28.414  0.00  0.00     0.075 H 
ATOM     83  C28 non d ame     -33.374  19.322  25.973  0.00  0.00     0.193 C 
ATOM     84  H42 non d ame     -34.759  20.306  27.307  0.00  0.00     0.280 HD
ATOM     85  H43 non d ame     -33.424  21.317  26.801  0.00  0.00     0.280 HD
ATOM     86  H44 non d ame     -32.673  19.577  25.178  0.00  0.00     0.129 H 
ATOM     87  H37 non d ame     -31.826  18.422  25.949  0.00  0.00     0.046 H 
BRANCH  83  88
ATOM     88  O6  non d ame     -34.543  18.838  25.311  0.00  0.00    -0.369 OA
ATOM     89  H45 non d ame     -34.290  18.201  24.638  0.00  0.00     0.212 HD
ENDBRANCH  83  88
ENDBRANCH  72  75
ENDBRANCH  47  72
ENDBRANCH  45  47
ENDBRANCH   1  43
BRANCH   1  90
ATOM     90  C16 non d ame     -31.005  13.166  28.512  0.00  0.00    -0.035 C 
ATOM     91  H21 non d ame     -30.352  14.021  28.340  0.00  0.00     0.037 H 
ATOM     92  H22 non d ame     -30.596  12.239  28.912  0.00  0.00     0.037 H 
BRANCH  90  93
ATOM     93  C17 non d ame     -31.636  12.809  27.128  0.00  0.00    -0.059 C 
ATOM     94  H23 non d ame     -32.710  12.980  27.200  0.00  0.00     0.038 H 
BRANCH  93  95
ATOM     95  C18 non d ame     -31.085  13.713  25.979  0.00  0.00    -0.073 C 
ATOM     96  H24 non d ame     -30.761  14.668  26.391  0.00  0.00     0.028 H 
ATOM     97  H25 non d ame     -30.240  13.219  25.501  0.00  0.00     0.028 H 
ATOM     98  H26 non d ame     -31.870  13.883  25.242  0.00  0.00     0.028 H 
ENDBRANCH  93  95
BRANCH  93  99
ATOM     99  C19 non d ame     -31.432  11.328  26.801  0.00  0.00    -0.073 C 
ATOM    100  H27 non d ame     -30.400  11.163  26.489  0.00  0.00     0.028 H 
ATOM    101  H28 non d ame     -31.645  10.727  27.685  0.00  0.00     0.028 H 
ATOM    102  H29 non d ame     -32.106  11.038  25.995  0.00  0.00     0.028 H 
ENDBRANCH  93  99
ENDBRANCH  90  93
ENDBRANCH   1  90
TORSDOF 26
ENDMDL
MODEL 15
REMARK VINA RESULT:      -5.8      3.245      7.902
REMARK  26 active torsions:
REMARK  status: ('A' for Active; 'I' for Inactive)
REMARK    1  A    between atoms: C2_2  and  C3_3 
REMARK    2  A    between atoms: C4_6  and  C5_7 
REMARK       I    between atoms: C5_7  and  N2_9 
REMARK    3  A    between atoms: N2_9  and  C6_10 
REMARK    4  A    between atoms: C6_10  and  C7_11 
REMARK    5  A    between atoms: C6_10  and  C8_13 
REMARK       I    between atoms: C7_11  and  N3_14 
REMARK    6  A    between atoms: N3_14  and  C9_15 
REMARK    7  A    between atoms: C9_15  and  C10_16 
REMARK    8  A    between atoms: C9_15  and  C11_18 
REMARK       I    between atoms: C10_16  and  N4_21 
REMARK    9  A    between atoms: C11_18  and  C12_19 
REMARK   10  A    between atoms: C11_18  and  C13_20 
REMARK   11  A    between atoms: N4_21  and  C14_22 
REMARK   12  A    between atoms: C14_22  and  C15_23 
REMARK   13  A    between atoms: C14_22  and  C16_25 
REMARK       I    between atoms: C15_23  and  N6_40 
REMARK   14  A    between atoms: C16_25  and  C17_26 
REMARK   15  A    between atoms: C17_26  and  C18_27 
REMARK   16  A    between atoms: C17_26  and  C19_28 
REMARK   17  A    between atoms: C20_29  and  C21_30 
REMARK   18  A    between atoms: C20_29  and  C24_33 
REMARK   19  A    between atoms: C20_29  and  N6_40 
REMARK   20  A    between atoms: C21_30  and  C22_31 
REMARK   21  A    between atoms: C22_31  and  C23_32 
REMARK   22  A    between atoms: C23_32  and  O8_43 
REMARK   23  A    between atoms: C24_33  and  C25_34 
REMARK   24  A    between atoms: C28_38  and  O6_39 
REMARK   25  A    between atoms: C29_42  and  O8_43 
REMARK   26  A    between atoms: C29_42  and  C35_49 
ROOT
ATOM      1  C14 non d ame     -34.021  17.939  26.094  0.00  0.00     0.089 C 
ATOM      2  H20 non d ame     -33.777  18.759  25.419  0.00  0.00     0.087 H 
ENDROOT
BRANCH   1   3
ATOM      3  N4  non d ame     -35.274  17.354  25.638  0.00  0.00    -0.346 N 
ATOM      4  C10 non d ame     -36.333  18.221  25.004  0.00  0.00     0.241 C 
ATOM      5  O4  non d ame     -36.155  19.387  24.875  0.00  0.00    -0.271 OA
ATOM      6  H19 non d ame     -35.406  16.360  25.759  0.00  0.00     0.163 HD
BRANCH   4   7
ATOM      7  C9  non d ame     -37.621  17.598  24.533  0.00  0.00     0.092 C 
ATOM      8  H11 non d ame     -37.777  17.848  23.483  0.00  0.00     0.088 H 
BRANCH   7   9
ATOM      9  N3  non d ame     -37.519  16.139  24.620  0.00  0.00    -0.346 N 
ATOM     10  C7  non d ame     -37.845  15.324  23.475  0.00  0.00     0.240 C 
ATOM     11  O3  non d ame     -38.191  15.826  22.477  0.00  0.00    -0.271 OA
ATOM     12  H10 non d ame     -37.223  15.691  25.475  0.00  0.00     0.163 HD
BRANCH  10  13
ATOM     13  C6  non d ame     -37.737  13.771  23.575  0.00  0.00     0.086 C 
ATOM     14  H6  non d ame     -36.720  13.408  23.429  0.00  0.00     0.086 H 
BRANCH  13  15
ATOM     15  N2  non d ame     -38.139  13.355  24.909  0.00  0.00    -0.343 N 
ATOM     16  C5  non d ame     -37.417  12.269  25.575  0.00  0.00     0.273 C 
ATOM     17  O2  non d ame     -36.515  11.734  25.028  0.00  0.00    -0.266 OA
ATOM     18  H5  non d ame     -38.912  13.816  25.368  0.00  0.00     0.163 HD
BRANCH  16  19
ATOM     19  C4  non d ame     -37.830  11.821  26.985  0.00  0.00     0.154 A 
ATOM     20  C1  non d ame     -37.117  10.935  27.854  0.00  0.00    -0.017 A 
ATOM     21  C2  non d ame     -37.912  10.851  29.019  0.00  0.00     0.077 A 
ATOM     22  H1  non d ame     -36.169  10.430  27.668  0.00  0.00     0.091 H 
ATOM     23  O1  non d ame     -38.955  11.606  28.831  0.00  0.00    -0.218 OA
ATOM     24  N1  non d ame     -38.930  12.182  27.652  0.00  0.00    -0.123 NA
BRANCH  21  25
ATOM     25  C3  non d ame     -37.603  10.031  30.264  0.00  0.00    -0.029 C 
ATOM     26  H2  non d ame     -37.018   9.154  29.986  0.00  0.00     0.036 H 
ATOM     27  H3  non d ame     -37.034  10.638  30.968  0.00  0.00     0.036 H 
ATOM     28  H4  non d ame     -38.535   9.713  30.731  0.00  0.00     0.036 H 
ENDBRANCH  21  25
ENDBRANCH  16  19
ENDBRANCH  13  15
BRANCH  13  29
ATOM     29  C8  non d ame     -38.634  13.135  22.544  0.00  0.00    -0.049 C 
ATOM     30  H7  non d ame     -39.602  12.911  22.993  0.00  0.00     0.030 H 
ATOM     31  H8  non d ame     -38.772  13.821  21.709  0.00  0.00     0.030 H 
ATOM     32  H9  non d ame     -38.178  12.212  22.185  0.00  0.00     0.030 H 
ENDBRANCH  13  29
ENDBRANCH  10  13
ENDBRANCH   7   9
BRANCH   7  33
ATOM     33  C11 non d ame     -38.793  18.089  25.432  0.00  0.00    -0.033 C 
ATOM     34  H12 non d ame     -38.617  19.141  25.657  0.00  0.00     0.042 H 
BRANCH  33  35
ATOM     35  C12 non d ame     -40.161  17.991  24.686  0.00  0.00    -0.071 C 
ATOM     36  H13 non d ame     -40.428  16.943  24.553  0.00  0.00     0.028 H 
ATOM     37  H14 non d ame     -40.931  18.490  25.273  0.00  0.00     0.028 H 
ATOM     38  H15 non d ame     -40.078  18.471  23.711  0.00  0.00     0.028 H 
ENDBRANCH  33  35
BRANCH  33  39
ATOM     39  C13 non d ame     -38.827  17.305  26.783  0.00  0.00    -0.071 C 
ATOM     40  H16 non d ame     -39.861  17.078  27.046  0.00  0.00     0.028 H 
ATOM     41  H17 non d ame     -38.267  16.375  26.678  0.00  0.00     0.028 H 
ATOM     42  H18 non d ame     -38.377  17.913  27.568  0.00  0.00     0.028 H 
ENDBRANCH  33  39
ENDBRANCH   7  33
ENDBRANCH   4   7
ENDBRANCH   1   3
BRANCH   1  43
ATOM     43  C15 non d ame     -32.929  16.831  26.092  0.00  0.00     0.240 C 
ATOM     44  O5  non d ame     -31.816  17.100  25.770  0.00  0.00    -0.271 OA
ATOM     45  N6  non d ame     -33.267  15.438  26.499  0.00  0.00    -0.355 N 
ATOM     46  H46 non d ame     -34.207  15.199  26.779  0.00  0.00     0.162 HD
BRANCH  45  47
ATOM     47  C20 non d ame     -32.216  14.397  26.493  0.00  0.00     0.013 C 
ATOM     48  H30 non d ame     -31.248  14.898  26.473  0.00  0.00     0.072 H 
BRANCH  47  49
ATOM     49  C21 non d ame     -32.377  13.532  25.263  0.00  0.00    -0.038 C 
ATOM     50  H31 non d ame     -33.226  12.881  25.470  0.00  0.00     0.036 H 
ATOM     51  H32 non d ame     -32.411  14.223  24.421  0.00  0.00     0.036 H 
BRANCH  49  52
ATOM     52  C22 non d ame     -31.166  12.606  25.020  0.00  0.00     0.018 C 
ATOM     53  H33 non d ame     -30.841  12.806  24.000  0.00  0.00     0.048 H 
ATOM     54  H34 non d ame     -30.485  12.784  25.854  0.00  0.00     0.048 H 
BRANCH  52  55
ATOM     55  C23 non d ame     -31.515  11.092  25.069  0.00  0.00     0.259 C 
ATOM     56  O7  non d ame     -31.673  10.477  24.065  0.00  0.00    -0.265 OA
BRANCH  55  57
ATOM     57  O8  non d ame     -31.658  10.451  26.331  0.00  0.00    -0.317 OA
BRANCH  57  58
ATOM     58  C29 non d ame     -32.200   9.129  26.254  0.00  0.00     0.052 C 
ATOM     59  H47 non d ame     -32.872   9.136  25.396  0.00  0.00     0.082 H 
ATOM     60  H48 non d ame     -31.342   8.457  26.268  0.00  0.00     0.082 H 
BRANCH  58  61
ATOM     61  C35 non d ame     -33.040   8.880  27.535  0.00  0.00    -0.034 A 
ATOM     62  C30 non d ame     -33.818   7.732  27.646  0.00  0.00    -0.075 A 
ATOM     63  C31 non d ame     -34.573   7.509  28.796  0.00  0.00    -0.082 A 
ATOM     64  H49 non d ame     -33.837   7.008  26.831  0.00  0.00     0.084 H 
ATOM     65  C32 non d ame     -34.550   8.441  29.838  0.00  0.00    -0.083 A 
ATOM     66  H50 non d ame     -35.180   6.608  28.881  0.00  0.00     0.083 H 
ATOM     67  C33 non d ame     -33.774   9.586  29.721  0.00  0.00    -0.082 A 
ATOM     68  H51 non d ame     -35.136   8.273  30.741  0.00  0.00     0.083 H 
ATOM     69  C34 non d ame     -33.017   9.813  28.574  0.00  0.00    -0.075 A 
ATOM     70  H52 non d ame     -33.760  10.312  30.535  0.00  0.00     0.083 H 
ATOM     71  H53 non d ame     -32.409  10.714  28.490  0.00  0.00     0.084 H 
ENDBRANCH  58  61
ENDBRANCH  57  58
ENDBRANCH  55  57
ENDBRANCH  52  55
ENDBRANCH  49  52
ENDBRANCH  47  49
BRANCH  47  72
ATOM     72  C24 non d ame     -32.340  13.531  27.745  0.00  0.00    -0.039 C 
ATOM     73  H35 non d ame     -33.163  13.963  28.316  0.00  0.00     0.036 H 
ATOM     74  H36 non d ame     -32.408  12.506  27.383  0.00  0.00     0.036 H 
BRANCH  72  75
ATOM     75  C25 non d ame     -31.029  13.624  28.662  0.00  0.00    -0.001 C 
ATOM     76  C26 non d ame     -30.690  12.149  29.304  0.00  0.00    -0.035 C 
ATOM     77  C27 non d ame     -30.533  12.282  30.643  0.00  0.00     0.085 C 
ATOM     78  H38 non d ame     -31.556  11.494  29.214  0.00  0.00     0.036 H 
ATOM     79  H39 non d ame     -29.711  11.809  28.965  0.00  0.00     0.036 H 
ATOM     80  N5  non d ame     -31.054  13.649  31.015  0.00  0.00    -0.049 N 
ATOM     81  H40 non d ame     -31.175  11.523  31.089  0.00  0.00     0.075 H 
ATOM     82  H41 non d ame     -29.457  12.254  30.814  0.00  0.00     0.075 H 
ATOM     83  C28 non d ame     -31.193  14.464  29.628  0.00  0.00     0.193 C 
ATOM     84  H42 non d ame     -31.978  13.508  31.399  0.00  0.00     0.280 HD
ATOM     85  H43 non d ame     -30.336  14.086  31.575  0.00  0.00     0.280 HD
ATOM     86  H44 non d ame     -30.460  15.224  29.357  0.00  0.00     0.129 H 
ATOM     87  H37 non d ame     -30.213  14.147  28.163  0.00  0.00     0.046 H 
BRANCH  83  88
ATOM     88  O6  non d ame     -32.462  15.117  29.566  0.00  0.00    -0.369 OA
ATOM     89  H45 non d ame     -33.033  14.650  28.951  0.00  0.00     0.212 HD
ENDBRANCH  83  88
ENDBRANCH  72  75
ENDBRANCH  47  72
ENDBRANCH  45  47
ENDBRANCH   1  43
BRANCH   1  90
ATOM     90  C16 non d ame     -34.207  18.471  27.505  0.00  0.00    -0.035 C 
ATOM     91  H21 non d ame     -35.275  18.663  27.603  0.00  0.00     0.037 H 
ATOM     92  H22 non d ame     -33.723  17.741  28.155  0.00  0.00     0.037 H 
BRANCH  90  93
ATOM     93  C17 non d ame     -33.490  19.834  27.761  0.00  0.00    -0.059 C 
ATOM     94  H23 non d ame     -34.187  20.480  28.295  0.00  0.00     0.038 H 
BRANCH  93  95
ATOM     95  C18 non d ame     -32.214  19.672  28.648  0.00  0.00    -0.073 C 
ATOM     96  H24 non d ame     -31.702  18.748  28.383  0.00  0.00     0.028 H 
ATOM     97  H25 non d ame     -31.546  20.517  28.482  0.00  0.00     0.028 H 
ATOM     98  H26 non d ame     -32.504  19.639  29.698  0.00  0.00     0.028 H 
ENDBRANCH  93  95
BRANCH  93  99
ATOM     99  C19 non d ame     -33.150  20.529  26.439  0.00  0.00    -0.073 C 
ATOM    100  H27 non d ame     -34.071  20.811  25.929  0.00  0.00     0.028 H 
ATOM    101  H28 non d ame     -32.558  21.422  26.639  0.00  0.00     0.028 H 
ATOM    102  H29 non d ame     -32.578  19.849  25.808  0.00  0.00     0.028 H 
ENDBRANCH  93  99
ENDBRANCH  90  93
ENDBRANCH   1  90
TORSDOF 26
ENDMDL
MODEL 16
REMARK VINA RESULT:      -5.7      3.543      7.662
REMARK  26 active torsions:
REMARK  status: ('A' for Active; 'I' for Inactive)
REMARK    1  A    between atoms: C2_2  and  C3_3 
REMARK    2  A    between atoms: C4_6  and  C5_7 
REMARK       I    between atoms: C5_7  and  N2_9 
REMARK    3  A    between atoms: N2_9  and  C6_10 
REMARK    4  A    between atoms: C6_10  and  C7_11 
REMARK    5  A    between atoms: C6_10  and  C8_13 
REMARK       I    between atoms: C7_11  and  N3_14 
REMARK    6  A    between atoms: N3_14  and  C9_15 
REMARK    7  A    between atoms: C9_15  and  C10_16 
REMARK    8  A    between atoms: C9_15  and  C11_18 
REMARK       I    between atoms: C10_16  and  N4_21 
REMARK    9  A    between atoms: C11_18  and  C12_19 
REMARK   10  A    between atoms: C11_18  and  C13_20 
REMARK   11  A    between atoms: N4_21  and  C14_22 
REMARK   12  A    between atoms: C14_22  and  C15_23 
REMARK   13  A    between atoms: C14_22  and  C16_25 
REMARK       I    between atoms: C15_23  and  N6_40 
REMARK   14  A    between atoms: C16_25  and  C17_26 
REMARK   15  A    between atoms: C17_26  and  C18_27 
REMARK   16  A    between atoms: C17_26  and  C19_28 
REMARK   17  A    between atoms: C20_29  and  C21_30 
REMARK   18  A    between atoms: C20_29  and  C24_33 
REMARK   19  A    between atoms: C20_29  and  N6_40 
REMARK   20  A    between atoms: C21_30  and  C22_31 
REMARK   21  A    between atoms: C22_31  and  C23_32 
REMARK   22  A    between atoms: C23_32  and  O8_43 
REMARK   23  A    between atoms: C24_33  and  C25_34 
REMARK   24  A    between atoms: C28_38  and  O6_39 
REMARK   25  A    between atoms: C29_42  and  O8_43 
REMARK   26  A    between atoms: C29_42  and  C35_49 
ROOT
ATOM      1  C14 non d ame     -36.790   9.576  29.207  0.00  0.00     0.089 C 
ATOM      2  H20 non d ame     -37.431  10.332  29.661  0.00  0.00     0.087 H 
ENDROOT
BRANCH   1   3
ATOM      3  N4  non d ame     -37.611   8.797  28.293  0.00  0.00    -0.346 N 
ATOM      4  C10 non d ame     -37.000   7.682  27.481  0.00  0.00     0.241 C 
ATOM      5  O4  non d ame     -35.844   7.433  27.578  0.00  0.00    -0.271 OA
ATOM      6  H19 non d ame     -38.593   9.026  28.223  0.00  0.00     0.163 HD
BRANCH   4   7
ATOM      7  C9  non d ame     -37.867   6.882  26.544  0.00  0.00     0.092 C 
ATOM      8  H11 non d ame     -38.694   7.504  26.201  0.00  0.00     0.088 H 
BRANCH   7   9
ATOM      9  N3  non d ame     -37.088   6.506  25.360  0.00  0.00    -0.346 N 
ATOM     10  C7  non d ame     -37.019   7.399  24.229  0.00  0.00     0.240 C 
ATOM     11  O3  non d ame     -37.584   8.424  24.255  0.00  0.00    -0.271 OA
ATOM     12  H10 non d ame     -36.597   5.625  25.322  0.00  0.00     0.163 HD
BRANCH  10  13
ATOM     13  C6  non d ame     -36.192   6.991  22.971  0.00  0.00     0.086 C 
ATOM     14  H6  non d ame     -36.516   7.508  22.068  0.00  0.00     0.086 H 
BRANCH  13  15
ATOM     15  N2  non d ame     -34.801   7.357  23.182  0.00  0.00    -0.343 N 
ATOM     16  C5  non d ame     -34.160   8.312  22.276  0.00  0.00     0.273 C 
ATOM     17  O2  non d ame     -34.772   8.780  21.379  0.00  0.00    -0.266 OA
ATOM     18  H5  non d ame     -34.285   6.950  23.950  0.00  0.00     0.163 HD
BRANCH  16  19
ATOM     19  C4  non d ame     -32.691   8.709  22.489  0.00  0.00     0.154 A 
ATOM     20  C1  non d ame     -31.541   8.137  21.857  0.00  0.00    -0.017 A 
ATOM     21  C2  non d ame     -30.443   8.848  22.391  0.00  0.00     0.077 A 
ATOM     22  H1  non d ame     -31.509   7.331  21.124  0.00  0.00     0.091 H 
ATOM     23  O1  non d ame     -30.917   9.723  23.228  0.00  0.00    -0.218 OA
ATOM     24  N1  non d ame     -32.227   9.661  23.303  0.00  0.00    -0.123 NA
BRANCH  21  25
ATOM     25  C3  non d ame     -28.975   8.629  22.047  0.00  0.00    -0.029 C 
ATOM     26  H2  non d ame     -28.879   7.756  21.402  0.00  0.00     0.036 H 
ATOM     27  H3  non d ame     -28.589   9.507  21.530  0.00  0.00     0.036 H 
ATOM     28  H4  non d ame     -28.407   8.469  22.963  0.00  0.00     0.036 H 
ENDBRANCH  21  25
ENDBRANCH  16  19
ENDBRANCH  13  15
BRANCH  13  29
ATOM     29  C8  non d ame     -36.308   5.505  22.750  0.00  0.00    -0.049 C 
ATOM     30  H7  non d ame     -37.054   5.309  21.980  0.00  0.00     0.030 H 
ATOM     31  H8  non d ame     -35.344   5.109  22.430  0.00  0.00     0.030 H 
ATOM     32  H9  non d ame     -36.609   5.021  23.679  0.00  0.00     0.030 H 
ENDBRANCH  13  29
ENDBRANCH  10  13
ENDBRANCH   7   9
BRANCH   7  33
ATOM     33  C11 non d ame     -38.362   5.596  27.266  0.00  0.00    -0.033 C 
ATOM     34  H12 non d ame     -39.344   5.350  26.864  0.00  0.00     0.042 H 
BRANCH  33  35
ATOM     35  C12 non d ame     -37.420   4.384  26.979  0.00  0.00    -0.071 C 
ATOM     36  H13 non d ame     -36.938   4.071  27.905  0.00  0.00     0.028 H 
ATOM     37  H14 non d ame     -38.005   3.558  26.576  0.00  0.00     0.028 H 
ATOM     38  H15 non d ame     -36.660   4.679  26.256  0.00  0.00     0.028 H 
ENDBRANCH  33  35
BRANCH  33  39
ATOM     39  C13 non d ame     -38.516   5.841  28.802  0.00  0.00    -0.071 C 
ATOM     40  H16 non d ame     -38.730   6.894  28.982  0.00  0.00     0.028 H 
ATOM     41  H17 non d ame     -39.335   5.232  29.186  0.00  0.00     0.028 H 
ATOM     42  H18 non d ame     -37.591   5.565  29.309  0.00  0.00     0.028 H 
ENDBRANCH  33  39
ENDBRANCH   7  33
ENDBRANCH   4   7
ENDBRANCH   1   3
BRANCH   1  43
ATOM     43  C15 non d ame     -35.617  10.207  28.403  0.00  0.00     0.240 C 
ATOM     44  O5  non d ame     -35.840  11.053  27.599  0.00  0.00    -0.271 OA
ATOM     45  N6  non d ame     -34.214   9.763  28.643  0.00  0.00    -0.355 N 
ATOM     46  H46 non d ame     -34.012   9.048  29.327  0.00  0.00     0.162 HD
BRANCH  45  47
ATOM     47  C20 non d ame     -33.110  10.374  27.872  0.00  0.00     0.013 C 
ATOM     48  H30 non d ame     -33.529  11.177  27.266  0.00  0.00     0.072 H 
BRANCH  47  49
ATOM     49  C21 non d ame     -32.484   9.326  26.980  0.00  0.00    -0.038 C 
ATOM     50  H31 non d ame     -33.151   9.230  26.124  0.00  0.00     0.036 H 
ATOM     51  H32 non d ame     -31.451   9.643  26.834  0.00  0.00     0.036 H 
BRANCH  49  52
ATOM     52  C22 non d ame     -32.422   7.933  27.644  0.00  0.00     0.018 C 
ATOM     53  H33 non d ame     -31.421   7.850  28.064  0.00  0.00     0.048 H 
ATOM     54  H34 non d ame     -33.294   7.879  28.297  0.00  0.00     0.048 H 
BRANCH  52  55
ATOM     55  C23 non d ame     -32.564   6.755  26.641  0.00  0.00     0.259 C 
ATOM     56  O7  non d ame     -32.939   6.949  25.531  0.00  0.00    -0.265 OA
BRANCH  55  57
ATOM     57  O8  non d ame     -32.253   5.434  27.069  0.00  0.00    -0.317 OA
BRANCH  57  58
ATOM     58  C29 non d ame     -33.400   4.633  27.368  0.00  0.00     0.052 C 
ATOM     59  H47 non d ame     -34.245   5.144  26.906  0.00  0.00     0.082 H 
ATOM     60  H48 non d ame     -33.141   3.621  27.059  0.00  0.00     0.082 H 
BRANCH  58  61
ATOM     61  C35 non d ame     -33.602   4.641  28.906  0.00  0.00    -0.034 A 
ATOM     62  C30 non d ame     -34.625   5.396  29.471  0.00  0.00    -0.075 A 
ATOM     63  C31 non d ame     -34.807   5.403  30.853  0.00  0.00    -0.082 A 
ATOM     64  H49 non d ame     -35.284   5.982  28.831  0.00  0.00     0.084 H 
ATOM     65  C32 non d ame     -33.958   4.652  31.672  0.00  0.00    -0.083 A 
ATOM     66  H50 non d ame     -35.610   5.994  31.292  0.00  0.00     0.083 H 
ATOM     67  C33 non d ame     -32.937   3.903  31.104  0.00  0.00    -0.082 A 
ATOM     68  H51 non d ame     -34.094   4.652  32.754  0.00  0.00     0.083 H 
ATOM     69  C34 non d ame     -32.753   3.891  29.723  0.00  0.00    -0.075 A 
ATOM     70  H52 non d ame     -32.275   3.321  31.747  0.00  0.00     0.083 H 
ATOM     71  H53 non d ame     -31.949   3.300  29.285  0.00  0.00     0.084 H 
ENDBRANCH  58  61
ENDBRANCH  57  58
ENDBRANCH  55  57
ENDBRANCH  52  55
ENDBRANCH  49  52
ENDBRANCH  47  49
BRANCH  47  72
ATOM     72  C24 non d ame     -32.056  10.926  28.829  0.00  0.00    -0.039 C 
ATOM     73  H35 non d ame     -32.019  10.220  29.659  0.00  0.00     0.036 H 
ATOM     74  H36 non d ame     -31.169  11.094  28.218  0.00  0.00     0.036 H 
BRANCH  72  75
ATOM     75  C25 non d ame     -32.489  12.345  29.434  0.00  0.00    -0.001 C 
ATOM     76  C26 non d ame     -31.861  13.559  28.519  0.00  0.00    -0.035 C 
ATOM     77  C27 non d ame     -31.215  14.428  29.333  0.00  0.00     0.085 C 
ATOM     78  H38 non d ame     -31.069  13.172  27.878  0.00  0.00     0.036 H 
ATOM     79  H39 non d ame     -32.664  14.159  28.092  0.00  0.00     0.036 H 
ATOM     80  N5  non d ame     -31.064  13.750  30.673  0.00  0.00    -0.049 N 
ATOM     81  H40 non d ame     -30.228  14.563  28.889  0.00  0.00     0.075 H 
ATOM     82  H41 non d ame     -31.885  15.280  29.439  0.00  0.00     0.075 H 
ATOM     83  C28 non d ame     -32.066  12.485  30.646  0.00  0.00     0.193 C 
ATOM     84  H42 non d ame     -30.114  13.407  30.715  0.00  0.00     0.280 HD
ATOM     85  H43 non d ame     -31.394  14.408  31.364  0.00  0.00     0.280 HD
ATOM     86  H44 non d ame     -33.014  12.518  31.184  0.00  0.00     0.129 H 
ATOM     87  H37 non d ame     -33.555  12.391  29.655  0.00  0.00     0.046 H 
BRANCH  83  88
ATOM     88  O6  non d ame     -31.397  11.316  31.122  0.00  0.00    -0.369 OA
ATOM     89  H45 non d ame     -30.460  11.379  30.921  0.00  0.00     0.212 HD
ENDBRANCH  83  88
ENDBRANCH  72  75
ENDBRANCH  47  72
ENDBRANCH  45  47
ENDBRANCH   1  43
BRANCH   1  90
ATOM     90  C16 non d ame     -36.236   8.656  30.283  0.00  0.00    -0.035 C 
ATOM     91  H21 non d ame     -36.646   7.671  30.060  0.00  0.00     0.037 H 
ATOM     92  H22 non d ame     -35.157   8.813  30.269  0.00  0.00     0.037 H 
BRANCH  90  93
ATOM     93  C17 non d ame     -36.716   9.017  31.724  0.00  0.00    -0.059 C 
ATOM     94  H23 non d ame     -36.508   8.161  32.366  0.00  0.00     0.038 H 
BRANCH  93  95
ATOM     95  C18 non d ame     -35.951  10.248  32.309  0.00  0.00    -0.073 C 
ATOM     96  H24 non d ame     -34.927  10.249  31.939  0.00  0.00     0.028 H 
ATOM     97  H25 non d ame     -36.449  11.166  31.999  0.00  0.00     0.028 H 
ATOM     98  H26 non d ame     -35.945  10.188  33.397  0.00  0.00     0.028 H 
ENDBRANCH  93  95
BRANCH  93  99
ATOM     99  C19 non d ame     -38.228   9.251  31.754  0.00  0.00    -0.073 C 
ATOM    100  H27 non d ame     -38.668   8.685  32.576  0.00  0.00     0.028 H 
ATOM    101  H28 non d ame     -38.429  10.313  31.897  0.00  0.00     0.028 H 
ATOM    102  H29 non d ame     -38.665   8.923  30.811  0.00  0.00     0.028 H 
ENDBRANCH  93  99
ENDBRANCH  90  93
ENDBRANCH   1  90
TORSDOF 26
ENDMDL
MODEL 17
REMARK VINA RESULT:      -5.7      2.805      7.552
REMARK  26 active torsions:
REMARK  status: ('A' for Active; 'I' for Inactive)
REMARK    1  A    between atoms: C2_2  and  C3_3 
REMARK    2  A    between atoms: C4_6  and  C5_7 
REMARK       I    between atoms: C5_7  and  N2_9 
REMARK    3  A    between atoms: N2_9  and  C6_10 
REMARK    4  A    between atoms: C6_10  and  C7_11 
REMARK    5  A    between atoms: C6_10  and  C8_13 
REMARK       I    between atoms: C7_11  and  N3_14 
REMARK    6  A    between atoms: N3_14  and  C9_15 
REMARK    7  A    between atoms: C9_15  and  C10_16 
REMARK    8  A    between atoms: C9_15  and  C11_18 
REMARK       I    between atoms: C10_16  and  N4_21 
REMARK    9  A    between atoms: C11_18  and  C12_19 
REMARK   10  A    between atoms: C11_18  and  C13_20 
REMARK   11  A    between atoms: N4_21  and  C14_22 
REMARK   12  A    between atoms: C14_22  and  C15_23 
REMARK   13  A    between atoms: C14_22  and  C16_25 
REMARK       I    between atoms: C15_23  and  N6_40 
REMARK   14  A    between atoms: C16_25  and  C17_26 
REMARK   15  A    between atoms: C17_26  and  C18_27 
REMARK   16  A    between atoms: C17_26  and  C19_28 
REMARK   17  A    between atoms: C20_29  and  C21_30 
REMARK   18  A    between atoms: C20_29  and  C24_33 
REMARK   19  A    between atoms: C20_29  and  N6_40 
REMARK   20  A    between atoms: C21_30  and  C22_31 
REMARK   21  A    between atoms: C22_31  and  C23_32 
REMARK   22  A    between atoms: C23_32  and  O8_43 
REMARK   23  A    between atoms: C24_33  and  C25_34 
REMARK   24  A    between atoms: C28_38  and  O6_39 
REMARK   25  A    between atoms: C29_42  and  O8_43 
REMARK   26  A    between atoms: C29_42  and  C35_49 
ROOT
ATOM      1  C14 non d ame     -35.818   9.388  30.917  0.00  0.00     0.089 C 
ATOM      2  H20 non d ame     -36.390   9.929  31.672  0.00  0.00     0.087 H 
ENDROOT
BRANCH   1   3
ATOM      3  N4  non d ame     -36.612   9.365  29.698  0.00  0.00    -0.346 N 
ATOM      4  C10 non d ame     -37.877  10.179  29.598  0.00  0.00     0.241 C 
ATOM      5  O4  non d ame     -38.238  10.844  30.513  0.00  0.00    -0.271 OA
ATOM      6  H19 non d ame     -36.289   8.792  28.931  0.00  0.00     0.163 HD
BRANCH   4   7
ATOM      7  C9  non d ame     -38.684  10.148  28.326  0.00  0.00     0.092 C 
ATOM      8  H11 non d ame     -39.570  10.771  28.448  0.00  0.00     0.088 H 
BRANCH   7   9
ATOM      9  N3  non d ame     -37.896  10.725  27.232  0.00  0.00    -0.346 N 
ATOM     10  C7  non d ame     -38.059  12.114  26.883  0.00  0.00     0.240 C 
ATOM     11  O3  non d ame     -38.820  12.782  27.469  0.00  0.00    -0.271 OA
ATOM     12  H10 non d ame     -37.237  10.160  26.716  0.00  0.00     0.163 HD
BRANCH  10  13
ATOM     13  C6  non d ame     -37.219  12.722  25.716  0.00  0.00     0.086 C 
ATOM     14  H6  non d ame     -37.832  13.014  24.864  0.00  0.00     0.086 H 
BRANCH  13  15
ATOM     15  N2  non d ame     -36.560  13.928  26.188  0.00  0.00    -0.343 N 
ATOM     16  C5  non d ame     -36.178  14.964  25.226  0.00  0.00     0.273 C 
ATOM     17  O2  non d ame     -36.403  14.817  24.075  0.00  0.00    -0.266 OA
ATOM     18  H5  non d ame     -36.369  14.044  27.173  0.00  0.00     0.163 HD
BRANCH  16  19
ATOM     19  C4  non d ame     -35.481  16.245  25.711  0.00  0.00     0.154 A 
ATOM     20  C1  non d ame     -35.721  16.950  26.933  0.00  0.00    -0.017 A 
ATOM     21  C2  non d ame     -34.831  18.047  26.900  0.00  0.00     0.077 A 
ATOM     22  H1  non d ame     -36.431  16.703  27.722  0.00  0.00     0.091 H 
ATOM     23  O1  non d ame     -34.163  17.971  25.787  0.00  0.00    -0.218 OA
ATOM     24  N1  non d ame     -34.525  16.928  25.075  0.00  0.00    -0.123 NA
BRANCH  21  25
ATOM     25  C3  non d ame     -34.682  19.120  27.971  0.00  0.00    -0.029 C 
ATOM     26  H2  non d ame     -34.623  20.100  27.499  0.00  0.00     0.036 H 
ATOM     27  H3  non d ame     -35.544  19.089  28.638  0.00  0.00     0.036 H 
ATOM     28  H4  non d ame     -33.774  18.937  28.545  0.00  0.00     0.036 H 
ENDBRANCH  21  25
ENDBRANCH  16  19
ENDBRANCH  13  15
BRANCH  13  29
ATOM     29  C8  non d ame     -36.193  11.718  25.256  0.00  0.00    -0.049 C 
ATOM     30  H7  non d ame     -35.457  12.214  24.623  0.00  0.00     0.030 H 
ATOM     31  H8  non d ame     -35.694  11.286  26.123  0.00  0.00     0.030 H 
ATOM     32  H9  non d ame     -36.686  10.928  24.689  0.00  0.00     0.030 H 
ENDBRANCH  13  29
ENDBRANCH  10  13
ENDBRANCH   7   9
BRANCH   7  33
ATOM     33  C11 non d ame     -39.047   8.674  27.979  0.00  0.00    -0.033 C 
ATOM     34  H12 non d ame     -38.972   8.092  28.897  0.00  0.00     0.042 H 
BRANCH  33  35
ATOM     35  C12 non d ame     -40.517   8.557  27.468  0.00  0.00    -0.071 C 
ATOM     36  H13 non d ame     -40.894   9.548  27.214  0.00  0.00     0.028 H 
ATOM     37  H14 non d ame     -40.545   7.920  26.585  0.00  0.00     0.028 H 
ATOM     38  H15 non d ame     -41.140   8.121  28.250  0.00  0.00     0.028 H 
ENDBRANCH  33  35
BRANCH  33  39
ATOM     39  C13 non d ame     -38.039   8.079  26.944  0.00  0.00    -0.071 C 
ATOM     40  H16 non d ame     -38.558   7.371  26.297  0.00  0.00     0.028 H 
ATOM     41  H17 non d ame     -37.619   8.884  26.341  0.00  0.00     0.028 H 
ATOM     42  H18 non d ame     -37.236   7.566  27.474  0.00  0.00     0.028 H 
ENDBRANCH  33  39
ENDBRANCH   7  33
ENDBRANCH   4   7
ENDBRANCH   1   3
BRANCH   1  43
ATOM     43  C15 non d ame     -34.456  10.075  30.608  0.00  0.00     0.240 C 
ATOM     44  O5  non d ame     -33.552   9.965  31.372  0.00  0.00    -0.271 OA
ATOM     45  N6  non d ame     -34.277  10.863  29.356  0.00  0.00    -0.355 N 
ATOM     46  H46 non d ame     -35.036  10.959  28.697  0.00  0.00     0.162 HD
BRANCH  45  47
ATOM     47  C20 non d ame     -32.976  11.508  29.076  0.00  0.00     0.013 C 
ATOM     48  H30 non d ame     -32.493  11.717  30.031  0.00  0.00     0.072 H 
BRANCH  47  49
ATOM     49  C21 non d ame     -33.210  12.798  28.322  0.00  0.00    -0.038 C 
ATOM     50  H31 non d ame     -33.701  12.511  27.392  0.00  0.00     0.036 H 
ATOM     51  H32 non d ame     -33.717  13.461  29.024  0.00  0.00     0.036 H 
BRANCH  49  52
ATOM     52  C22 non d ame     -31.897  13.506  27.923  0.00  0.00     0.018 C 
ATOM     53  H33 non d ame     -31.478  13.894  28.851  0.00  0.00     0.048 H 
ATOM     54  H34 non d ame     -31.337  12.779  27.334  0.00  0.00     0.048 H 
BRANCH  52  55
ATOM     55  C23 non d ame     -32.105  14.737  26.999  0.00  0.00     0.259 C 
ATOM     56  O7  non d ame     -32.193  15.829  27.459  0.00  0.00    -0.265 OA
BRANCH  55  57
ATOM     57  O8  non d ame     -32.203  14.544  25.593  0.00  0.00    -0.317 OA
BRANCH  57  58
ATOM     58  C29 non d ame     -31.068  13.895  25.014  0.00  0.00     0.052 C 
ATOM     59  H47 non d ame     -30.224  14.146  25.657  0.00  0.00     0.082 H 
ATOM     60  H48 non d ame     -31.360  12.854  24.880  0.00  0.00     0.082 H 
BRANCH  58  61
ATOM     61  C35 non d ame     -30.821  14.519  23.615  0.00  0.00    -0.034 A 
ATOM     62  C30 non d ame     -30.122  13.805  22.647  0.00  0.00    -0.075 A 
ATOM     63  C31 non d ame     -29.900  14.365  21.390  0.00  0.00    -0.082 A 
ATOM     64  H49 non d ame     -29.748  12.806  22.873  0.00  0.00     0.084 H 
ATOM     65  C32 non d ame     -30.378  15.647  21.103  0.00  0.00    -0.083 A 
ATOM     66  H50 non d ame     -29.353  13.802  20.633  0.00  0.00     0.083 H 
ATOM     67  C33 non d ame     -31.071  16.357  22.073  0.00  0.00    -0.082 A 
ATOM     68  H51 non d ame     -30.209  16.092  20.123  0.00  0.00     0.083 H 
ATOM     69  C34 non d ame     -31.297  15.800  23.330  0.00  0.00    -0.075 A 
ATOM     70  H52 non d ame     -31.441  17.358  21.847  0.00  0.00     0.083 H 
ATOM     71  H53 non d ame     -31.844  16.364  24.086  0.00  0.00     0.084 H 
ENDBRANCH  58  61
ENDBRANCH  57  58
ENDBRANCH  55  57
ENDBRANCH  52  55
ENDBRANCH  49  52
ENDBRANCH  47  49
BRANCH  47  72
ATOM     72  C24 non d ame     -32.107  10.576  28.234  0.00  0.00    -0.039 C 
ATOM     73  H35 non d ame     -31.444  11.231  27.668  0.00  0.00     0.036 H 
ATOM     74  H36 non d ame     -31.691   9.855  28.937  0.00  0.00     0.036 H 
BRANCH  72  75
ATOM     75  C25 non d ame     -32.978   9.752  27.172  0.00  0.00    -0.001 C 
ATOM     76  C26 non d ame     -33.181   8.206  27.693  0.00  0.00    -0.035 C 
ATOM     77  C27 non d ame     -32.825   7.360  26.697  0.00  0.00     0.085 C 
ATOM     78  H38 non d ame     -32.467   7.982  28.485  0.00  0.00     0.036 H 
ATOM     79  H39 non d ame     -34.241   7.996  27.839  0.00  0.00     0.036 H 
ATOM     80  N5  non d ame     -32.091   8.179  25.663  0.00  0.00    -0.049 N 
ATOM     81  H40 non d ame     -32.130   6.653  27.150  0.00  0.00     0.075 H 
ATOM     82  H41 non d ame     -33.762   7.005  26.268  0.00  0.00     0.075 H 
ATOM     83  C28 non d ame     -32.402   9.723  26.017  0.00  0.00     0.193 C 
ATOM     84  H42 non d ame     -31.106   8.007  25.809  0.00  0.00     0.280 HD
ATOM     85  H43 non d ame     -32.514   7.961  24.772  0.00  0.00     0.280 HD
ATOM     86  H44 non d ame     -33.116  10.294  25.424  0.00  0.00     0.129 H 
ATOM     87  H37 non d ame     -33.873  10.293  26.864  0.00  0.00     0.046 H 
BRANCH  83  88
ATOM     88  O6  non d ame     -31.194  10.486  25.998  0.00  0.00    -0.369 OA
ATOM     89  H45 non d ame     -30.473   9.936  25.681  0.00  0.00     0.212 HD
ENDBRANCH  83  88
ENDBRANCH  72  75
ENDBRANCH  47  72
ENDBRANCH  45  47
ENDBRANCH   1  43
BRANCH   1  90
ATOM     90  C16 non d ame     -35.577   7.960  31.379  0.00  0.00    -0.035 C 
ATOM     91  H21 non d ame     -34.494   7.858  31.450  0.00  0.00     0.037 H 
ATOM     92  H22 non d ame     -36.195   7.836  32.269  0.00  0.00     0.037 H 
BRANCH  90  93
ATOM     93  C17 non d ame     -36.054   6.881  30.356  0.00  0.00    -0.059 C 
ATOM     94  H23 non d ame     -36.327   7.397  29.435  0.00  0.00     0.038 H 
BRANCH  93  95
ATOM     95  C18 non d ame     -34.927   5.855  30.012  0.00  0.00    -0.073 C 
ATOM     96  H24 non d ame     -34.696   5.259  30.894  0.00  0.00     0.028 H 
ATOM     97  H25 non d ame     -35.265   5.200  29.210  0.00  0.00     0.028 H 
ATOM     98  H26 non d ame     -34.034   6.391  29.692  0.00  0.00     0.028 H 
ENDBRANCH  93  95
BRANCH  93  99
ATOM     99  C19 non d ame     -37.308   6.163  30.863  0.00  0.00    -0.073 C 
ATOM    100  H27 non d ame     -38.053   6.901  31.163  0.00  0.00     0.028 H 
ATOM    101  H28 non d ame     -37.715   5.538  30.069  0.00  0.00     0.028 H 
ATOM    102  H29 non d ame     -37.048   5.540  31.718  0.00  0.00     0.028 H 
ENDBRANCH  93  99
ENDBRANCH  90  93
ENDBRANCH   1  90
TORSDOF 26
ENDMDL
MODEL 18
REMARK VINA RESULT:      -5.7      2.769      7.135
REMARK  26 active torsions:
REMARK  status: ('A' for Active; 'I' for Inactive)
REMARK    1  A    between atoms: C2_2  and  C3_3 
REMARK    2  A    between atoms: C4_6  and  C5_7 
REMARK       I    between atoms: C5_7  and  N2_9 
REMARK    3  A    between atoms: N2_9  and  C6_10 
REMARK    4  A    between atoms: C6_10  and  C7_11 
REMARK    5  A    between atoms: C6_10  and  C8_13 
REMARK       I    between atoms: C7_11  and  N3_14 
REMARK    6  A    between atoms: N3_14  and  C9_15 
REMARK    7  A    between atoms: C9_15  and  C10_16 
REMARK    8  A    between atoms: C9_15  and  C11_18 
REMARK       I    between atoms: C10_16  and  N4_21 
REMARK    9  A    between atoms: C11_18  and  C12_19 
REMARK   10  A    between atoms: C11_18  and  C13_20 
REMARK   11  A    between atoms: N4_21  and  C14_22 
REMARK   12  A    between atoms: C14_22  and  C15_23 
REMARK   13  A    between atoms: C14_22  and  C16_25 
REMARK       I    between atoms: C15_23  and  N6_40 
REMARK   14  A    between atoms: C16_25  and  C17_26 
REMARK   15  A    between atoms: C17_26  and  C18_27 
REMARK   16  A    between atoms: C17_26  and  C19_28 
REMARK   17  A    between atoms: C20_29  and  C21_30 
REMARK   18  A    between atoms: C20_29  and  C24_33 
REMARK   19  A    between atoms: C20_29  and  N6_40 
REMARK   20  A    between atoms: C21_30  and  C22_31 
REMARK   21  A    between atoms: C22_31  and  C23_32 
REMARK   22  A    between atoms: C23_32  and  O8_43 
REMARK   23  A    between atoms: C24_33  and  C25_34 
REMARK   24  A    between atoms: C28_38  and  O6_39 
REMARK   25  A    between atoms: C29_42  and  O8_43 
REMARK   26  A    between atoms: C29_42  and  C35_49 
ROOT
ATOM      1  C14 non d ame     -35.763  13.214  26.674  0.00  0.00     0.089 C 
ATOM      2  H20 non d ame     -36.544  13.088  27.424  0.00  0.00     0.087 H 
ENDROOT
BRANCH   1   3
ATOM      3  N4  non d ame     -35.606  14.642  26.442  0.00  0.00    -0.346 N 
ATOM      4  C10 non d ame     -36.783  15.573  26.589  0.00  0.00     0.241 C 
ATOM      5  O4  non d ame     -37.849  15.148  26.892  0.00  0.00    -0.271 OA
ATOM      6  H19 non d ame     -34.691  14.983  26.182  0.00  0.00     0.163 HD
BRANCH   4   7
ATOM      7  C9  non d ame     -36.600  17.049  26.350  0.00  0.00     0.092 C 
ATOM      8  H11 non d ame     -36.969  17.600  27.215  0.00  0.00     0.088 H 
BRANCH   7   9
ATOM      9  N3  non d ame     -35.171  17.350  26.221  0.00  0.00    -0.346 N 
ATOM     10  C7  non d ame     -34.429  17.824  27.363  0.00  0.00     0.240 C 
ATOM     11  O3  non d ame     -34.966  17.971  28.393  0.00  0.00    -0.271 OA
ATOM     12  H10 non d ame     -34.695  17.230  25.339  0.00  0.00     0.163 HD
BRANCH  10  13
ATOM     13  C6  non d ame     -32.909  18.146  27.219  0.00  0.00     0.086 C 
ATOM     14  H6  non d ame     -32.298  17.641  27.966  0.00  0.00     0.086 H 
BRANCH  13  15
ATOM     15  N2  non d ame     -32.450  17.679  25.921  0.00  0.00    -0.343 N 
ATOM     16  C5  non d ame     -31.817  16.363  25.811  0.00  0.00     0.273 C 
ATOM     17  O2  non d ame     -31.679  15.689  26.773  0.00  0.00    -0.266 OA
ATOM     18  H5  non d ame     -32.569  18.263  25.105  0.00  0.00     0.163 HD
BRANCH  16  19
ATOM     19  C4  non d ame     -31.327  15.856  24.446  0.00  0.00     0.154 A 
ATOM     20  C1  non d ame     -30.364  14.826  24.200  0.00  0.00    -0.017 A 
ATOM     21  C2  non d ame     -30.271  14.744  22.793  0.00  0.00     0.077 A 
ATOM     22  H1  non d ame     -29.817  14.231  24.931  0.00  0.00     0.091 H 
ATOM     23  O1  non d ame     -31.090  15.625  22.298  0.00  0.00    -0.218 OA
ATOM     24  N1  non d ame     -31.718  16.287  23.243  0.00  0.00    -0.123 NA
BRANCH  21  25
ATOM     25  C3  non d ame     -29.378  13.796  22.003  0.00  0.00    -0.029 C 
ATOM     26  H2  non d ame     -28.738  13.243  22.689  0.00  0.00     0.036 H 
ATOM     27  H3  non d ame     -29.998  13.098  21.441  0.00  0.00     0.036 H 
ATOM     28  H4  non d ame     -28.761  14.370  21.312  0.00  0.00     0.036 H 
ENDBRANCH  21  25
ENDBRANCH  16  19
ENDBRANCH  13  15
BRANCH  13  29
ATOM     29  C8  non d ame     -32.694  19.634  27.338  0.00  0.00    -0.049 C 
ATOM     30  H7  non d ame     -31.737  19.825  27.823  0.00  0.00     0.030 H 
ATOM     31  H8  non d ame     -32.693  20.081  26.344  0.00  0.00     0.030 H 
ATOM     32  H9  non d ame     -33.497  20.070  27.933  0.00  0.00     0.030 H 
ENDBRANCH  13  29
ENDBRANCH  10  13
ENDBRANCH   7   9
BRANCH   7  33
ATOM     33  C11 non d ame     -37.334  17.457  25.039  0.00  0.00    -0.033 C 
ATOM     34  H12 non d ame     -37.216  16.639  24.328  0.00  0.00     0.042 H 
BRANCH  33  35
ATOM     35  C12 non d ame     -38.864  17.651  25.281  0.00  0.00    -0.071 C 
ATOM     36  H13 non d ame     -39.170  18.627  24.906  0.00  0.00     0.028 H 
ATOM     37  H14 non d ame     -39.416  16.870  24.758  0.00  0.00     0.028 H 
ATOM     38  H15 non d ame     -39.073  17.591  26.349  0.00  0.00     0.028 H 
ENDBRANCH  33  35
BRANCH  33  39
ATOM     39  C13 non d ame     -36.693  18.737  24.415  0.00  0.00    -0.071 C 
ATOM     40  H16 non d ame     -35.630  18.564  24.243  0.00  0.00     0.028 H 
ATOM     41  H17 non d ame     -37.182  18.964  23.467  0.00  0.00     0.028 H 
ATOM     42  H18 non d ame     -36.819  19.577  25.098  0.00  0.00     0.028 H 
ENDBRANCH  33  39
ENDBRANCH   7  33
ENDBRANCH   4   7
ENDBRANCH   1   3
BRANCH   1  43
ATOM     43  C15 non d ame     -34.398  12.635  27.144  0.00  0.00     0.240 C 
ATOM     44  O5  non d ame     -33.386  13.144  26.786  0.00  0.00    -0.271 OA
ATOM     45  N6  non d ame     -34.354  11.450  28.047  0.00  0.00    -0.355 N 
ATOM     46  H46 non d ame     -35.207  11.012  28.361  0.00  0.00     0.162 HD
BRANCH  45  47
ATOM     47  C20 non d ame     -33.048  10.912  28.486  0.00  0.00     0.013 C 
ATOM     48  H30 non d ame     -32.416  11.754  28.767  0.00  0.00     0.072 H 
BRANCH  47  49
ATOM     49  C21 non d ame     -32.413  10.148  27.345  0.00  0.00    -0.038 C 
ATOM     50  H31 non d ame     -32.971  10.434  26.453  0.00  0.00     0.036 H 
ATOM     51  H32 non d ame     -31.345  10.356  27.411  0.00  0.00     0.036 H 
BRANCH  49  52
ATOM     52  C22 non d ame     -32.570   8.619  27.487  0.00  0.00     0.018 C 
ATOM     53  H33 non d ame     -31.615   8.194  27.181  0.00  0.00     0.048 H 
ATOM     54  H34 non d ame     -32.941   8.453  28.499  0.00  0.00     0.048 H 
BRANCH  52  55
ATOM     55  C23 non d ame     -33.635   8.007  26.536  0.00  0.00     0.259 C 
ATOM     56  O7  non d ame     -34.381   7.169  26.925  0.00  0.00    -0.265 OA
BRANCH  55  57
ATOM     57  O8  non d ame     -33.702   8.453  25.186  0.00  0.00    -0.317 OA
BRANCH  57  58
ATOM     58  C29 non d ame     -32.966   7.640  24.268  0.00  0.00     0.052 C 
ATOM     59  H47 non d ame     -32.461   6.890  24.877  0.00  0.00     0.082 H 
ATOM     60  H48 non d ame     -33.682   7.332  23.507  0.00  0.00     0.082 H 
BRANCH  58  61
ATOM     61  C35 non d ame     -31.888   8.532  23.596  0.00  0.00    -0.034 A 
ATOM     62  C30 non d ame     -30.962   7.969  22.724  0.00  0.00    -0.075 A 
ATOM     63  C31 non d ame     -29.994   8.770  22.120  0.00  0.00    -0.082 A 
ATOM     64  H49 non d ame     -30.995   6.899  22.513  0.00  0.00     0.084 H 
ATOM     65  C32 non d ame     -29.953  10.140  22.393  0.00  0.00    -0.083 A 
ATOM     66  H50 non d ame     -29.271   8.325  21.435  0.00  0.00     0.083 H 
ATOM     67  C33 non d ame     -30.877  10.697  23.267  0.00  0.00    -0.082 A 
ATOM     68  H51 non d ame     -29.200  10.773  21.925  0.00  0.00     0.083 H 
ATOM     69  C34 non d ame     -31.847   9.900  23.871  0.00  0.00    -0.075 A 
ATOM     70  H52 non d ame     -30.840  11.766  23.480  0.00  0.00     0.083 H 
ATOM     71  H53 non d ame     -32.570  10.345  24.555  0.00  0.00     0.084 H 
ENDBRANCH  58  61
ENDBRANCH  57  58
ENDBRANCH  55  57
ENDBRANCH  52  55
ENDBRANCH  49  52
ENDBRANCH  47  49
BRANCH  47  72
ATOM     72  C24 non d ame     -33.248   9.977  29.676  0.00  0.00    -0.039 C 
ATOM     73  H35 non d ame     -33.217   8.969  29.262  0.00  0.00     0.036 H 
ATOM     74  H36 non d ame     -32.508  10.285  30.415  0.00  0.00     0.036 H 
BRANCH  72  75
ATOM     75  C25 non d ame     -34.692  10.169  30.344  0.00  0.00    -0.001 C 
ATOM     76  C26 non d ame     -34.550  11.008  31.752  0.00  0.00    -0.035 C 
ATOM     77  C27 non d ame     -35.189  10.325  32.732  0.00  0.00     0.085 C 
ATOM     78  H38 non d ame     -33.511  11.014  32.080  0.00  0.00     0.036 H 
ATOM     79  H39 non d ame     -35.107  11.942  31.688  0.00  0.00     0.036 H 
ATOM     80  N5  non d ame     -35.471   8.942  32.196  0.00  0.00    -0.049 N 
ATOM     81  H40 non d ame     -34.471  10.251  33.549  0.00  0.00     0.075 H 
ATOM     82  H41 non d ame     -36.133  10.847  32.883  0.00  0.00     0.075 H 
ATOM     83  C28 non d ame     -35.244   9.030  30.600  0.00  0.00     0.193 C 
ATOM     84  H42 non d ame     -34.766   8.334  32.589  0.00  0.00     0.280 HD
ATOM     85  H43 non d ame     -36.449   8.762  32.373  0.00  0.00     0.280 HD
ATOM     86  H44 non d ame     -36.095   9.065  29.921  0.00  0.00     0.129 H 
ATOM     87  H37 non d ame     -35.434  10.523  29.629  0.00  0.00     0.046 H 
BRANCH  83  88
ATOM     88  O6  non d ame     -34.445   7.932  30.155  0.00  0.00    -0.369 OA
ATOM     89  H45 non d ame     -34.871   7.510  29.405  0.00  0.00     0.212 HD
ENDBRANCH  83  88
ENDBRANCH  72  75
ENDBRANCH  47  72
ENDBRANCH  45  47
ENDBRANCH   1  43
BRANCH   1  90
ATOM     90  C16 non d ame     -36.183  12.544  25.375  0.00  0.00    -0.035 C 
ATOM     91  H21 non d ame     -36.585  13.344  24.754  0.00  0.00     0.037 H 
ATOM     92  H22 non d ame     -35.309  11.983  25.044  0.00  0.00     0.037 H 
BRANCH  90  93
ATOM     93  C17 non d ame     -37.335  11.503  25.551  0.00  0.00    -0.059 C 
ATOM     94  H23 non d ame     -38.086  11.709  24.789  0.00  0.00     0.038 H 
BRANCH  93  95
ATOM     95  C18 non d ame     -36.839  10.036  25.349  0.00  0.00    -0.073 C 
ATOM     96  H24 non d ame     -37.447   9.360  25.950  0.00  0.00     0.028 H 
ATOM     97  H25 non d ame     -36.927   9.764  24.297  0.00  0.00     0.028 H 
ATOM     98  H26 non d ame     -35.796   9.959  25.658  0.00  0.00     0.028 H 
ENDBRANCH  93  95
BRANCH  93  99
ATOM     99  C19 non d ame     -38.014  11.665  26.914  0.00  0.00    -0.073 C 
ATOM    100  H27 non d ame     -38.041  12.721  27.184  0.00  0.00     0.028 H 
ATOM    101  H28 non d ame     -39.032  11.279  26.861  0.00  0.00     0.028 H 
ATOM    102  H29 non d ame     -37.455  11.111  27.667  0.00  0.00     0.028 H 
ENDBRANCH  93  99
ENDBRANCH  90  93
ENDBRANCH   1  90
TORSDOF 26
ENDMDL
MODEL 19
REMARK VINA RESULT:      -5.7      2.638      8.862
REMARK  26 active torsions:
REMARK  status: ('A' for Active; 'I' for Inactive)
REMARK    1  A    between atoms: C2_2  and  C3_3 
REMARK    2  A    between atoms: C4_6  and  C5_7 
REMARK       I    between atoms: C5_7  and  N2_9 
REMARK    3  A    between atoms: N2_9  and  C6_10 
REMARK    4  A    between atoms: C6_10  and  C7_11 
REMARK    5  A    between atoms: C6_10  and  C8_13 
REMARK       I    between atoms: C7_11  and  N3_14 
REMARK    6  A    between atoms: N3_14  and  C9_15 
REMARK    7  A    between atoms: C9_15  and  C10_16 
REMARK    8  A    between atoms: C9_15  and  C11_18 
REMARK       I    between atoms: C10_16  and  N4_21 
REMARK    9  A    between atoms: C11_18  and  C12_19 
REMARK   10  A    between atoms: C11_18  and  C13_20 
REMARK   11  A    between atoms: N4_21  and  C14_22 
REMARK   12  A    between atoms: C14_22  and  C15_23 
REMARK   13  A    between atoms: C14_22  and  C16_25 
REMARK       I    between atoms: C15_23  and  N6_40 
REMARK   14  A    between atoms: C16_25  and  C17_26 
REMARK   15  A    between atoms: C17_26  and  C18_27 
REMARK   16  A    between atoms: C17_26  and  C19_28 
REMARK   17  A    between atoms: C20_29  and  C21_30 
REMARK   18  A    between atoms: C20_29  and  C24_33 
REMARK   19  A    between atoms: C20_29  and  N6_40 
REMARK   20  A    between atoms: C21_30  and  C22_31 
REMARK   21  A    between atoms: C22_31  and  C23_32 
REMARK   22  A    between atoms: C23_32  and  O8_43 
REMARK   23  A    between atoms: C24_33  and  C25_34 
REMARK   24  A    between atoms: C28_38  and  O6_39 
REMARK   25  A    between atoms: C29_42  and  O8_43 
REMARK   26  A    between atoms: C29_42  and  C35_49 
ROOT
ATOM      1  C14 non d ame     -32.023  13.654  29.533  0.00  0.00     0.089 C 
ATOM      2  H20 non d ame     -31.586  13.622  30.531  0.00  0.00     0.087 H 
ENDROOT
BRANCH   1   3
ATOM      3  N4  non d ame     -33.162  12.749  29.523  0.00  0.00    -0.346 N 
ATOM      4  C10 non d ame     -33.132  11.479  30.335  0.00  0.00     0.241 C 
ATOM      5  O4  non d ame     -32.179  11.205  30.987  0.00  0.00    -0.271 OA
ATOM      6  H19 non d ame     -33.963  12.998  28.960  0.00  0.00     0.163 HD
BRANCH   4   7
ATOM      7  C9  non d ame     -34.322  10.556  30.318  0.00  0.00     0.092 C 
ATOM      8  H11 non d ame     -35.190  11.097  29.941  0.00  0.00     0.088 H 
BRANCH   7   9
ATOM      9  N3  non d ame     -34.068   9.446  29.394  0.00  0.00    -0.346 N 
ATOM     10  C7  non d ame     -34.920   9.255  28.247  0.00  0.00     0.240 C 
ATOM     11  O3  non d ame     -35.816   9.982  28.052  0.00  0.00    -0.271 OA
ATOM     12  H10 non d ame     -33.299   8.809  29.549  0.00  0.00     0.163 HD
BRANCH  10  13
ATOM     13  C6  non d ame     -34.646   8.070  27.268  0.00  0.00     0.086 C 
ATOM     14  H6  non d ame     -35.528   7.783  26.696  0.00  0.00     0.086 H 
BRANCH  13  15
ATOM     15  N2  non d ame     -33.639   8.479  26.303  0.00  0.00    -0.343 N 
ATOM     16  C5  non d ame     -33.814   8.138  24.890  0.00  0.00     0.273 C 
ATOM     17  O2  non d ame     -34.766   7.532  24.540  0.00  0.00    -0.266 OA
ATOM     18  H5  non d ame     -32.827   8.995  26.612  0.00  0.00     0.163 HD
BRANCH  16  19
ATOM     19  C4  non d ame     -32.758   8.566  23.858  0.00  0.00     0.154 A 
ATOM     20  C1  non d ame     -31.810   9.630  23.982  0.00  0.00    -0.017 A 
ATOM     21  C2  non d ame     -31.077   9.607  22.774  0.00  0.00     0.077 A 
ATOM     22  H1  non d ame     -31.674  10.314  24.820  0.00  0.00     0.091 H 
ATOM     23  O1  non d ame     -31.556   8.638  22.050  0.00  0.00    -0.218 OA
ATOM     24  N1  non d ame     -32.537   8.016  22.661  0.00  0.00    -0.123 NA
BRANCH  21  25
ATOM     25  C3  non d ame     -29.938  10.542  22.393  0.00  0.00    -0.029 C 
ATOM     26  H2  non d ame     -30.009  11.459  22.977  0.00  0.00     0.036 H 
ATOM     27  H3  non d ame     -28.984  10.055  22.597  0.00  0.00     0.036 H 
ATOM     28  H4  non d ame     -30.003  10.781  21.331  0.00  0.00     0.036 H 
ENDBRANCH  21  25
ENDBRANCH  16  19
ENDBRANCH  13  15
BRANCH  13  29
ATOM     29  C8  non d ame     -34.160   6.874  28.047  0.00  0.00    -0.049 C 
ATOM     30  H7  non d ame     -34.993   6.196  28.229  0.00  0.00     0.030 H 
ATOM     31  H8  non d ame     -33.390   6.357  27.474  0.00  0.00     0.030 H 
ATOM     32  H9  non d ame     -33.744   7.205  28.999  0.00  0.00     0.030 H 
ENDBRANCH  13  29
ENDBRANCH  10  13
ENDBRANCH   7   9
BRANCH   7  33
ATOM     33  C11 non d ame     -34.561   9.991  31.749  0.00  0.00    -0.033 C 
ATOM     34  H12 non d ame     -33.590   9.912  32.238  0.00  0.00     0.042 H 
BRANCH  33  35
ATOM     35  C12 non d ame     -35.439  10.958  32.603  0.00  0.00    -0.071 C 
ATOM     36  H13 non d ame     -35.788  10.439  33.496  0.00  0.00     0.028 H 
ATOM     37  H14 non d ame     -34.846  11.825  32.894  0.00  0.00     0.028 H 
ATOM     38  H15 non d ame     -36.297  11.285  32.015  0.00  0.00     0.028 H 
ENDBRANCH  33  35
BRANCH  33  39
ATOM     39  C13 non d ame     -35.189   8.561  31.688  0.00  0.00    -0.071 C 
ATOM     40  H16 non d ame     -35.960   8.470  32.453  0.00  0.00     0.028 H 
ATOM     41  H17 non d ame     -35.631   8.400  30.705  0.00  0.00     0.028 H 
ATOM     42  H18 non d ame     -34.413   7.816  31.863  0.00  0.00     0.028 H 
ENDBRANCH  33  39
ENDBRANCH   7  33
ENDBRANCH   4   7
ENDBRANCH   1   3
BRANCH   1  43
ATOM     43  C15 non d ame     -32.519  15.079  29.154  0.00  0.00     0.240 C 
ATOM     44  O5  non d ame     -32.037  16.031  29.677  0.00  0.00    -0.271 OA
ATOM     45  N6  non d ame     -33.591  15.257  28.134  0.00  0.00    -0.355 N 
ATOM     46  H46 non d ame     -34.005  14.456  27.680  0.00  0.00     0.162 HD
BRANCH  45  47
ATOM     47  C20 non d ame     -34.051  16.618  27.784  0.00  0.00     0.013 C 
ATOM     48  H30 non d ame     -33.755  17.290  28.590  0.00  0.00     0.072 H 
BRANCH  47  49
ATOM     49  C21 non d ame     -35.557  16.616  27.641  0.00  0.00    -0.038 C 
ATOM     50  H31 non d ame     -35.948  16.483  28.650  0.00  0.00     0.036 H 
ATOM     51  H32 non d ame     -35.800  17.515  27.076  0.00  0.00     0.036 H 
BRANCH  49  52
ATOM     52  C22 non d ame     -36.077  15.423  26.810  0.00  0.00     0.018 C 
ATOM     53  H33 non d ame     -35.281  14.680  26.829  0.00  0.00     0.048 H 
ATOM     54  H34 non d ame     -37.058  15.182  27.221  0.00  0.00     0.048 H 
BRANCH  52  55
ATOM     55  C23 non d ame     -36.313  15.760  25.311  0.00  0.00     0.259 C 
ATOM     56  O7  non d ame     -36.651  16.851  24.984  0.00  0.00    -0.265 OA
BRANCH  55  57
ATOM     57  O8  non d ame     -36.132  14.744  24.332  0.00  0.00    -0.317 OA
BRANCH  57  58
ATOM     58  C29 non d ame     -37.350  14.273  23.749  0.00  0.00     0.052 C 
ATOM     59  H47 non d ame     -38.109  15.007  24.020  0.00  0.00     0.082 H 
ATOM     60  H48 non d ame     -37.123  14.086  22.700  0.00  0.00     0.082 H 
BRANCH  58  61
ATOM     61  C35 non d ame     -37.712  12.922  24.421  0.00  0.00    -0.034 A 
ATOM     62  C30 non d ame     -38.672  12.880  25.428  0.00  0.00    -0.075 A 
ATOM     63  C31 non d ame     -38.997  11.666  26.032  0.00  0.00    -0.082 A 
ATOM     64  H49 non d ame     -39.169  13.797  25.743  0.00  0.00     0.084 H 
ATOM     65  C32 non d ame     -38.356  10.492  25.628  0.00  0.00    -0.083 A 
ATOM     66  H50 non d ame     -39.751  11.636  26.819  0.00  0.00     0.083 H 
ATOM     67  C33 non d ame     -37.397  10.539  24.626  0.00  0.00    -0.082 A 
ATOM     68  H51 non d ame     -38.605   9.539  26.095  0.00  0.00     0.083 H 
ATOM     69  C34 non d ame     -37.070  11.750  24.018  0.00  0.00    -0.075 A 
ATOM     70  H52 non d ame     -36.897   9.622  24.314  0.00  0.00     0.083 H 
ATOM     71  H53 non d ame     -36.316  11.779  23.231  0.00  0.00     0.084 H 
ENDBRANCH  58  61
ENDBRANCH  57  58
ENDBRANCH  55  57
ENDBRANCH  52  55
ENDBRANCH  49  52
ENDBRANCH  47  49
BRANCH  47  72
ATOM     72  C24 non d ame     -33.415  17.056  26.467  0.00  0.00    -0.039 C 
ATOM     73  H35 non d ame     -32.662  16.300  26.243  0.00  0.00     0.036 H 
ATOM     74  H36 non d ame     -34.247  17.216  25.781  0.00  0.00     0.036 H 
BRANCH  72  75
ATOM     75  C25 non d ame     -32.649  18.455  26.615  0.00  0.00    -0.001 C 
ATOM     76  C26 non d ame     -32.489  18.841  28.206  0.00  0.00    -0.035 C 
ATOM     77  C27 non d ame     -32.944  20.102  28.397  0.00  0.00     0.085 C 
ATOM     78  H38 non d ame     -33.165  18.233  28.807  0.00  0.00     0.036 H 
ATOM     79  H39 non d ame     -31.434  18.907  28.471  0.00  0.00     0.036 H 
ATOM     80  N5  non d ame     -33.699  20.493  27.150  0.00  0.00    -0.049 N 
ATOM     81  H40 non d ame     -33.643  20.036  29.230  0.00  0.00     0.075 H 
ATOM     82  H41 non d ame     -32.053  20.723  28.482  0.00  0.00     0.075 H 
ATOM     83  C28 non d ame     -33.294  19.406  26.027  0.00  0.00     0.193 C 
ATOM     84  H42 non d ame     -34.680  20.385  27.363  0.00  0.00     0.280 HD
ATOM     85  H43 non d ame     -33.340  21.395  26.869  0.00  0.00     0.280 HD
ATOM     86  H44 non d ame     -32.590  19.664  25.235  0.00  0.00     0.129 H 
ATOM     87  H37 non d ame     -31.749  18.501  26.001  0.00  0.00     0.046 H 
BRANCH  83  88
ATOM     88  O6  non d ame     -34.463  18.931  25.357  0.00  0.00    -0.369 OA
ATOM     89  H45 non d ame     -34.990  18.407  25.966  0.00  0.00     0.212 HD
ENDBRANCH  83  88
ENDBRANCH  72  75
ENDBRANCH  47  72
ENDBRANCH  45  47
ENDBRANCH   1  43
BRANCH   1  90
ATOM     90  C16 non d ame     -31.003  13.180  28.510  0.00  0.00    -0.035 C 
ATOM     91  H21 non d ame     -30.365  14.042  28.316  0.00  0.00     0.037 H 
ATOM     92  H22 non d ame     -30.576  12.269  28.929  0.00  0.00     0.037 H 
BRANCH  90  93
ATOM     93  C17 non d ame     -31.632  12.781  27.137  0.00  0.00    -0.059 C 
ATOM     94  H23 non d ame     -32.705  12.962  27.199  0.00  0.00     0.038 H 
BRANCH  93  95
ATOM     95  C18 non d ame     -31.072  13.642  25.959  0.00  0.00    -0.073 C 
ATOM     96  H24 non d ame     -31.374  14.680  26.092  0.00  0.00     0.028 H 
ATOM     97  H25 non d ame     -29.984  13.580  25.949  0.00  0.00     0.028 H 
ATOM     98  H26 non d ame     -31.465  13.266  25.015  0.00  0.00     0.028 H 
ENDBRANCH  93  95
BRANCH  93  99
ATOM     99  C19 non d ame     -31.439  11.288  26.860  0.00  0.00    -0.073 C 
ATOM    100  H27 non d ame     -30.373  11.067  26.786  0.00  0.00     0.028 H 
ATOM    101  H28 non d ame     -31.874  10.708  27.674  0.00  0.00     0.028 H 
ATOM    102  H29 non d ame     -31.930  11.025  25.924  0.00  0.00     0.028 H 
ENDBRANCH  93  99
ENDBRANCH  90  93
ENDBRANCH   1  90
TORSDOF 26
ENDMDL
MODEL 20
REMARK VINA RESULT:      -5.7      2.619      5.593
REMARK  26 active torsions:
REMARK  status: ('A' for Active; 'I' for Inactive)
REMARK    1  A    between atoms: C2_2  and  C3_3 
REMARK    2  A    between atoms: C4_6  and  C5_7 
REMARK       I    between atoms: C5_7  and  N2_9 
REMARK    3  A    between atoms: N2_9  and  C6_10 
REMARK    4  A    between atoms: C6_10  and  C7_11 
REMARK    5  A    between atoms: C6_10  and  C8_13 
REMARK       I    between atoms: C7_11  and  N3_14 
REMARK    6  A    between atoms: N3_14  and  C9_15 
REMARK    7  A    between atoms: C9_15  and  C10_16 
REMARK    8  A    between atoms: C9_15  and  C11_18 
REMARK       I    between atoms: C10_16  and  N4_21 
REMARK    9  A    between atoms: C11_18  and  C12_19 
REMARK   10  A    between atoms: C11_18  and  C13_20 
REMARK   11  A    between atoms: N4_21  and  C14_22 
REMARK   12  A    between atoms: C14_22  and  C15_23 
REMARK   13  A    between atoms: C14_22  and  C16_25 
REMARK       I    between atoms: C15_23  and  N6_40 
REMARK   14  A    between atoms: C16_25  and  C17_26 
REMARK   15  A    between atoms: C17_26  and  C18_27 
REMARK   16  A    between atoms: C17_26  and  C19_28 
REMARK   17  A    between atoms: C20_29  and  C21_30 
REMARK   18  A    between atoms: C20_29  and  C24_33 
REMARK   19  A    between atoms: C20_29  and  N6_40 
REMARK   20  A    between atoms: C21_30  and  C22_31 
REMARK   21  A    between atoms: C22_31  and  C23_32 
REMARK   22  A    between atoms: C23_32  and  O8_43 
REMARK   23  A    between atoms: C24_33  and  C25_34 
REMARK   24  A    between atoms: C28_38  and  O6_39 
REMARK   25  A    between atoms: C29_42  and  O8_43 
REMARK   26  A    between atoms: C29_42  and  C35_49 
ROOT
ATOM      1  C14 non d ame     -32.856  13.880  28.124  0.00  0.00     0.089 C 
ATOM      2  H20 non d ame     -31.933  14.108  27.591  0.00  0.00     0.087 H 
ENDROOT
BRANCH   1   3
ATOM      3  N4  non d ame     -33.776  14.984  27.897  0.00  0.00    -0.346 N 
ATOM      4  C10 non d ame     -33.425  16.082  26.925  0.00  0.00     0.241 C 
ATOM      5  O4  non d ame     -32.393  16.056  26.338  0.00  0.00    -0.271 OA
ATOM      6  H19 non d ame     -34.648  14.989  28.408  0.00  0.00     0.163 HD
BRANCH   4   7
ATOM      7  C9  non d ame     -34.392  17.214  26.698  0.00  0.00     0.092 C 
ATOM      8  H11 non d ame     -34.272  17.591  25.683  0.00  0.00     0.088 H 
BRANCH   7   9
ATOM      9  N3  non d ame     -35.765  16.715  26.816  0.00  0.00    -0.346 N 
ATOM     10  C7  non d ame     -36.639  16.734  25.669  0.00  0.00     0.240 C 
ATOM     11  O3  non d ame     -36.254  17.148  24.644  0.00  0.00    -0.271 OA
ATOM     12  H10 non d ame     -36.112  16.356  27.694  0.00  0.00     0.163 HD
BRANCH  10  13
ATOM     13  C6  non d ame     -38.101  16.204  25.801  0.00  0.00     0.086 C 
ATOM     14  H6  non d ame     -38.567  16.006  24.835  0.00  0.00     0.086 H 
BRANCH  13  15
ATOM     15  N2  non d ame     -38.081  14.940  26.519  0.00  0.00    -0.343 N 
ATOM     16  C5  non d ame     -37.934  13.689  25.773  0.00  0.00     0.273 C 
ATOM     17  O2  non d ame     -37.834  13.709  24.595  0.00  0.00    -0.266 OA
ATOM     18  H5  non d ame     -38.170  14.932  27.525  0.00  0.00     0.163 HD
BRANCH  16  19
ATOM     19  C4  non d ame     -37.910  12.346  26.519  0.00  0.00     0.154 A 
ATOM     20  C1  non d ame     -37.385  11.102  26.045  0.00  0.00    -0.017 A 
ATOM     21  C2  non d ame     -37.604  10.189  27.100  0.00  0.00     0.077 A 
ATOM     22  H1  non d ame     -36.917  10.894  25.082  0.00  0.00     0.091 H 
ATOM     23  O1  non d ame     -38.186  10.842  28.063  0.00  0.00    -0.218 OA
ATOM     24  N1  non d ame     -38.375  12.102  27.748  0.00  0.00    -0.123 NA
BRANCH  21  25
ATOM     25  C3  non d ame     -37.228   8.713  27.108  0.00  0.00    -0.029 C 
ATOM     26  H2  non d ame     -38.075   8.124  27.457  0.00  0.00     0.036 H 
ATOM     27  H3  non d ame     -36.961   8.401  26.098  0.00  0.00     0.036 H 
ATOM     28  H4  non d ame     -36.379   8.558  27.773  0.00  0.00     0.036 H 
ENDBRANCH  21  25
ENDBRANCH  16  19
ENDBRANCH  13  15
BRANCH  13  29
ATOM     29  C8  non d ame     -38.938  17.210  26.549  0.00  0.00    -0.049 C 
ATOM     30  H7  non d ame     -39.176  16.821  27.539  0.00  0.00     0.030 H 
ATOM     31  H8  non d ame     -38.381  18.142  26.649  0.00  0.00     0.030 H 
ATOM     32  H9  non d ame     -39.861  17.396  25.999  0.00  0.00     0.030 H 
ENDBRANCH  13  29
ENDBRANCH  10  13
ENDBRANCH   7   9
BRANCH   7  33
ATOM     33  C11 non d ame     -34.153  18.322  27.766  0.00  0.00    -0.033 C 
ATOM     34  H12 non d ame     -34.098  17.834  28.739  0.00  0.00     0.042 H 
BRANCH  33  35
ATOM     35  C12 non d ame     -32.795  19.054  27.530  0.00  0.00    -0.071 C 
ATOM     36  H13 non d ame     -32.117  18.837  28.356  0.00  0.00     0.028 H 
ATOM     37  H14 non d ame     -32.353  18.708  26.597  0.00  0.00     0.028 H 
ATOM     38  H15 non d ame     -32.967  20.129  27.475  0.00  0.00     0.028 H 
ENDBRANCH  33  35
BRANCH  33  39
ATOM     39  C13 non d ame     -35.343  19.333  27.799  0.00  0.00    -0.071 C 
ATOM     40  H16 non d ame     -35.042  20.265  27.319  0.00  0.00     0.028 H 
ATOM     41  H17 non d ame     -36.195  18.909  27.267  0.00  0.00     0.028 H 
ATOM     42  H18 non d ame     -35.624  19.531  28.833  0.00  0.00     0.028 H 
ENDBRANCH  33  39
ENDBRANCH   7  33
ENDBRANCH   4   7
ENDBRANCH   1   3
BRANCH   1  43
ATOM     43  C15 non d ame     -33.520  12.569  27.615  0.00  0.00     0.240 C 
ATOM     44  O5  non d ame     -34.541  12.620  27.008  0.00  0.00    -0.271 OA
ATOM     45  N6  non d ame     -32.879  11.249  27.877  0.00  0.00    -0.355 N 
ATOM     46  H46 non d ame     -32.009  11.193  28.387  0.00  0.00     0.162 HD
BRANCH  45  47
ATOM     47  C20 non d ame     -33.522  10.011  27.385  0.00  0.00     0.013 C 
ATOM     48  H30 non d ame     -34.480  10.284  26.942  0.00  0.00     0.072 H 
BRANCH  47  49
ATOM     49  C21 non d ame     -33.741   9.067  28.546  0.00  0.00    -0.038 C 
ATOM     50  H31 non d ame     -34.278   8.213  28.133  0.00  0.00     0.036 H 
ATOM     51  H32 non d ame     -32.760   8.927  29.000  0.00  0.00     0.036 H 
BRANCH  49  52
ATOM     52  C22 non d ame     -34.649   9.665  29.642  0.00  0.00     0.018 C 
ATOM     53  H33 non d ame     -34.044  10.416  30.149  0.00  0.00     0.048 H 
ATOM     54  H34 non d ame     -35.569   9.957  29.137  0.00  0.00     0.048 H 
BRANCH  52  55
ATOM     55  C23 non d ame     -35.067   8.643  30.736  0.00  0.00     0.259 C 
ATOM     56  O7  non d ame     -34.438   8.541  31.739  0.00  0.00    -0.265 OA
BRANCH  55  57
ATOM     57  O8  non d ame     -36.205   7.818  30.519  0.00  0.00    -0.317 OA
BRANCH  57  58
ATOM     58  C29 non d ame     -36.067   6.490  31.032  0.00  0.00     0.052 C 
ATOM     59  H47 non d ame     -35.513   6.590  31.965  0.00  0.00     0.082 H 
ATOM     60  H48 non d ame     -37.073   6.070  31.038  0.00  0.00     0.082 H 
BRANCH  58  61
ATOM     61  C35 non d ame     -35.203   5.677  30.032  0.00  0.00    -0.034 A 
ATOM     62  C30 non d ame     -34.059   5.020  30.474  0.00  0.00    -0.075 A 
ATOM     63  C31 non d ame     -33.282   4.290  29.576  0.00  0.00    -0.082 A 
ATOM     64  H49 non d ame     -33.771   5.077  31.524  0.00  0.00     0.084 H 
ATOM     65  C32 non d ame     -33.651   4.220  28.230  0.00  0.00    -0.083 A 
ATOM     66  H50 non d ame     -32.387   3.775  29.925  0.00  0.00     0.083 H 
ATOM     67  C33 non d ame     -34.792   4.880  27.793  0.00  0.00    -0.082 A 
ATOM     68  H51 non d ame     -33.050   3.651  27.521  0.00  0.00     0.083 H 
ATOM     69  C34 non d ame     -35.572   5.609  28.687  0.00  0.00    -0.075 A 
ATOM     70  H52 non d ame     -35.076   4.826  26.741  0.00  0.00     0.083 H 
ATOM     71  H53 non d ame     -36.467   6.124  28.337  0.00  0.00     0.084 H 
ENDBRANCH  58  61
ENDBRANCH  57  58
ENDBRANCH  55  57
ENDBRANCH  52  55
ENDBRANCH  49  52
ENDBRANCH  47  49
BRANCH  47  72
ATOM     72  C24 non d ame     -32.627   9.342  26.345  0.00  0.00    -0.039 C 
ATOM     73  H35 non d ame     -31.609   9.471  26.712  0.00  0.00     0.036 H 
ATOM     74  H36 non d ame     -33.035   8.340  26.212  0.00  0.00     0.036 H 
BRANCH  72  75
ATOM     75  C25 non d ame     -32.715  10.079  24.925  0.00  0.00    -0.001 C 
ATOM     76  C26 non d ame     -32.962   8.973  23.734  0.00  0.00    -0.035 C 
ATOM     77  C27 non d ame     -32.041   9.168  22.760  0.00  0.00     0.085 C 
ATOM     78  H38 non d ame     -32.737   7.972  24.101  0.00  0.00     0.036 H 
ATOM     79  H39 non d ame     -33.910   9.170  23.232  0.00  0.00     0.036 H 
ATOM     80  N5  non d ame     -30.988  10.089  23.326  0.00  0.00    -0.049 N 
ATOM     81  H40 non d ame     -31.598   8.189  22.579  0.00  0.00     0.075 H 
ATOM     82  H41 non d ame     -32.570   9.683  21.958  0.00  0.00     0.075 H 
ATOM     83  C28 non d ame     -31.627  10.724  24.665  0.00  0.00     0.193 C 
ATOM     84  H42 non d ame     -30.207   9.504  23.588  0.00  0.00     0.280 HD
ATOM     85  H43 non d ame     -30.861  10.828  22.648  0.00  0.00     0.280 HD
ATOM     86  H44 non d ame     -31.998  11.749  24.669  0.00  0.00     0.129 H 
ATOM     87  H37 non d ame     -33.382  10.941  24.948  0.00  0.00     0.046 H 
BRANCH  83  88
ATOM     88  O6  non d ame     -30.688  10.654  25.740  0.00  0.00    -0.369 OA
ATOM     89  H45 non d ame     -30.221  11.489  25.812  0.00  0.00     0.212 HD
ENDBRANCH  83  88
ENDBRANCH  72  75
ENDBRANCH  47  72
ENDBRANCH  45  47
ENDBRANCH   1  43
BRANCH   1  90
ATOM     90  C16 non d ame     -32.575  13.766  29.614  0.00  0.00    -0.035 C 
ATOM     91  H21 non d ame     -32.886  14.720  30.040  0.00  0.00     0.037 H 
ATOM     92  H22 non d ame     -33.062  12.843  29.930  0.00  0.00     0.037 H 
BRANCH  90  93
ATOM     93  C17 non d ame     -31.059  13.605  29.955  0.00  0.00    -0.059 C 
ATOM     94  H23 non d ame     -30.798  14.380  30.675  0.00  0.00     0.038 H 
BRANCH  93  95
ATOM     95  C18 non d ame     -30.747  12.222  30.610  0.00  0.00    -0.073 C 
ATOM     96  H24 non d ame     -31.577  11.927  31.251  0.00  0.00     0.028 H 
ATOM     97  H25 non d ame     -30.608  11.473  29.830  0.00  0.00     0.028 H 
ATOM     98  H26 non d ame     -29.837  12.299  31.206  0.00  0.00     0.028 H 
ENDBRANCH  93  95
BRANCH  93  99
ATOM     99  C19 non d ame     -30.193  13.828  28.713  0.00  0.00    -0.073 C 
ATOM    100  H27 non d ame     -30.092  12.890  28.167  0.00  0.00     0.028 H 
ATOM    101  H28 non d ame     -30.662  14.573  28.071  0.00  0.00     0.028 H 
ATOM    102  H29 non d ame     -29.207  14.180  29.016  0.00  0.00     0.028 H 
ENDBRANCH  93  99
ENDBRANCH  90  93
ENDBRANCH   1  90
TORSDOF 26
ENDMDL
