REMARK  26 active torsions:
REMARK  status: ('A' for Active; 'I' for Inactive)
REMARK    1  A    between atoms: C2_2  and  C3_3 
REMARK    2  A    between atoms: C4_6  and  C5_7 
REMARK       I    between atoms: C5_7  and  N2_9 
REMARK    3  A    between atoms: N2_9  and  C6_10 
REMARK    4  A    between atoms: C6_10  and  C7_11 
REMARK    5  A    between atoms: C6_10  and  C8_13 
REMARK       I    between atoms: C7_11  and  N3_14 
REMARK    6  A    between atoms: N3_14  and  C9_15 
REMARK    7  A    between atoms: C9_15  and  C10_16 
REMARK    8  A    between atoms: C9_15  and  C11_18 
REMARK       I    between atoms: C10_16  and  N4_21 
REMARK    9  A    between atoms: C11_18  and  C12_19 
REMARK   10  A    between atoms: C11_18  and  C13_20 
REMARK   11  A    between atoms: N4_21  and  C14_22 
REMARK   12  A    between atoms: C14_22  and  C15_23 
REMARK   13  A    between atoms: C14_22  and  C16_25 
REMARK       I    between atoms: C15_23  and  N6_40 
REMARK   14  A    between atoms: C16_25  and  C17_26 
REMARK   15  A    between atoms: C17_26  and  C18_27 
REMARK   16  A    between atoms: C17_26  and  C19_28 
REMARK   17  A    between atoms: C20_29  and  C21_30 
REMARK   18  A    between atoms: C20_29  and  C24_33 
REMARK   19  A    between atoms: C20_29  and  N6_40 
REMARK   20  A    between atoms: C21_30  and  C22_31 
REMARK   21  A    between atoms: C22_31  and  C23_32 
REMARK   22  A    between atoms: C23_32  and  O8_43 
REMARK   23  A    between atoms: C24_33  and  C25_34 
REMARK   24  A    between atoms: C28_38  and  O6_39 
REMARK   25  A    between atoms: C29_42  and  O8_43 
REMARK   26  A    between atoms: C29_42  and  C35_49 
ROOT
ATOM      1  C14 non d ame     -30.923  14.096  24.524  0.00  0.00     0.089 C 
ATOM      2  H20 non d ame     -29.852  13.893  24.549  0.00  0.00     0.087 H 
ENDROOT
BRANCH   1   3
ATOM      3  N4  non d ame     -31.595  12.859  24.155  0.00  0.00    -0.346 N 
ATOM      4  C10 non d ame     -31.384  11.606  24.967  0.00  0.00     0.241 C 
ATOM      5  O4  non d ame     -30.666  11.617  25.912  0.00  0.00    -0.271 OA
ATOM      6  H19 non d ame     -32.200  12.870  23.346  0.00  0.00     0.163 HD
BRANCH   4   7
ATOM      7  C9  non d ame     -32.092  10.336  24.574  0.00  0.00     0.092 C 
ATOM      8  H11 non d ame     -32.628  10.499  23.639  0.00  0.00     0.088 H 
BRANCH   7   9
ATOM      9  N3  non d ame     -31.104   9.281  24.329  0.00  0.00    -0.346 N 
ATOM     10  C7  non d ame     -30.932   8.750  22.999  0.00  0.00     0.240 C 
ATOM     11  O3  non d ame     -31.581   9.159  22.115  0.00  0.00    -0.271 OA
ATOM     12  H10 non d ame     -30.538   8.917  25.082  0.00  0.00     0.163 HD
BRANCH  10  13
ATOM     13  C6  non d ame     -29.881   7.625  22.745  0.00  0.00     0.086 C 
ATOM     14  H6  non d ame     -29.590   7.106  23.658  0.00  0.00     0.086 H 
BRANCH  13  15
ATOM     15  N2  non d ame     -30.464   6.625  21.866  0.00  0.00    -0.343 N 
ATOM     16  C5  non d ame     -31.572   5.798  22.349  0.00  0.00     0.273 C 
ATOM     17  O2  non d ame     -31.985   5.943  23.447  0.00  0.00    -0.266 OA
ATOM     18  H5  non d ame     -30.103   6.506  20.930  0.00  0.00     0.163 HD
BRANCH  16  19
ATOM     19  C4  non d ame     -32.199   4.738  21.430  0.00  0.00     0.154 A 
ATOM     20  C1  non d ame     -32.622   3.420  21.793  0.00  0.00    -0.017 A 
ATOM     21  C2  non d ame     -33.123   2.857  20.598  0.00  0.00     0.077 A 
ATOM     22  H1  non d ame     -32.573   2.945  22.773  0.00  0.00     0.091 H 
ATOM     23  O1  non d ame     -32.999   3.755  19.665  0.00  0.00    -0.218 OA
ATOM     24  N1  non d ame     -32.462   4.861  20.126  0.00  0.00    -0.123 NA
BRANCH  21  25
ATOM     25  C3  non d ame     -33.702   1.458  20.434  0.00  0.00    -0.029 C 
ATOM     26  H2  non d ame     -33.883   1.022  21.416  0.00  0.00     0.036 H 
ATOM     27  H3  non d ame     -34.641   1.516  19.884  0.00  0.00     0.036 H 
ATOM     28  H4  non d ame     -32.997   0.835  19.884  0.00  0.00     0.036 H 
ENDBRANCH  21  25
ENDBRANCH  16  19
ENDBRANCH  13  15
BRANCH  13  29
ATOM     29  C8  non d ame     -28.650   8.218  22.108  0.00  0.00    -0.049 C 
ATOM     30  H7  non d ame     -27.962   8.549  22.886  0.00  0.00     0.030 H 
ATOM     31  H8  non d ame     -28.163   7.465  21.489  0.00  0.00     0.030 H 
ATOM     32  H9  non d ame     -28.935   9.069  21.489  0.00  0.00     0.030 H 
ENDBRANCH  13  29
ENDBRANCH  10  13
ENDBRANCH   7   9
BRANCH   7  33
ATOM     33  C11 non d ame     -33.043   9.895  25.725  0.00  0.00    -0.033 C 
ATOM     34  H12 non d ame     -32.421   9.570  26.559  0.00  0.00     0.042 H 
BRANCH  33  35
ATOM     35  C12 non d ame     -33.917  11.086  26.228  0.00  0.00    -0.071 C 
ATOM     36  H13 non d ame     -33.925  11.096  27.318  0.00  0.00     0.028 H 
ATOM     37  H14 non d ame     -33.501  12.023  25.859  0.00  0.00     0.028 H 
ATOM     38  H15 non d ame     -34.936  10.970  25.859  0.00  0.00     0.028 H 
ENDBRANCH  33  35
BRANCH  33  39
ATOM     39  C13 non d ame     -33.931   8.687  25.285  0.00  0.00    -0.071 C 
ATOM     40  H16 non d ame     -34.309   8.173  26.169  0.00  0.00     0.028 H 
ATOM     41  H17 non d ame     -34.769   9.050  24.689  0.00  0.00     0.028 H 
ATOM     42  H18 non d ame     -33.335   7.996  24.689  0.00  0.00     0.028 H 
ENDBRANCH  33  39
ENDBRANCH   7  33
ENDBRANCH   4   7
ENDBRANCH   1   3
BRANCH   1  43
ATOM     43  C15 non d ame     -31.465  14.561  25.906  0.00  0.00     0.240 C 
ATOM     44  O5  non d ame     -32.636  14.570  26.109  0.00  0.00    -0.271 OA
ATOM     45  N6  non d ame     -30.523  14.987  26.980  0.00  0.00    -0.355 N 
ATOM     46  H46 non d ame     -29.526  14.979  26.821  0.00  0.00     0.162 HD
BRANCH  45  47
ATOM     47  C20 non d ame     -31.054  15.425  28.289  0.00  0.00     0.013 C 
ATOM     48  H30 non d ame     -32.142  15.430  28.225  0.00  0.00     0.072 H 
BRANCH  47  49
ATOM     49  C21 non d ame     -30.548  16.817  28.593  0.00  0.00    -0.038 C 
ATOM     50  H31 non d ame     -29.932  16.718  29.487  0.00  0.00     0.036 H 
ATOM     51  H32 non d ame     -30.107  17.179  27.664  0.00  0.00     0.036 H 
BRANCH  49  52
ATOM     52  C22 non d ame     -31.682  17.802  28.951  0.00  0.00     0.018 C 
ATOM     53  H33 non d ame     -32.074  17.465  29.910  0.00  0.00     0.048 H 
ATOM     54  H34 non d ame     -31.248  18.798  28.859  0.00  0.00     0.048 H 
BRANCH  52  55
ATOM     55  C23 non d ame     -32.880  17.764  27.962  0.00  0.00     0.259 C 
ATOM     56  O7  non d ame     -32.693  17.731  26.789  0.00  0.00    -0.265 OA
BRANCH  55  57
ATOM     57  O8  non d ame     -34.207  17.782  28.474  0.00  0.00    -0.317 OA
BRANCH  57  58
ATOM     58  C29 non d ame     -35.217  17.582  27.481  0.00  0.00     0.052 C 
ATOM     59  H47 non d ame     -34.683  17.344  26.561  0.00  0.00     0.082 H 
ATOM     60  H48 non d ame     -35.913  16.861  27.909  0.00  0.00     0.082 H 
BRANCH  58  61
ATOM     61  C35 non d ame     -35.965  18.927  27.281  0.00  0.00    -0.034 A 
ATOM     62  C30 non d ame     -37.308  18.930  26.918  0.00  0.00    -0.075 A 
ATOM     63  C31 non d ame     -37.980  20.138  26.738  0.00  0.00    -0.082 A 
ATOM     64  H49 non d ame     -37.834  17.986  26.774  0.00  0.00     0.084 H 
ATOM     65  C32 non d ame     -37.303  21.347  26.920  0.00  0.00    -0.083 A 
ATOM     66  H50 non d ame     -39.033  20.137  26.455  0.00  0.00     0.083 H 
ATOM     67  C33 non d ame     -35.962  21.339  27.279  0.00  0.00    -0.082 A 
ATOM     68  H51 non d ame     -37.821  22.296  26.782  0.00  0.00     0.083 H 
ATOM     69  C34 non d ame     -35.287  20.134  27.462  0.00  0.00    -0.075 A 
ATOM     70  H52 non d ame     -35.436  22.284  27.418  0.00  0.00     0.083 H 
ATOM     71  H53 non d ame     -34.234  20.136  27.745  0.00  0.00     0.084 H 
ENDBRANCH  58  61
ENDBRANCH  57  58
ENDBRANCH  55  57
ENDBRANCH  52  55
ENDBRANCH  49  52
ENDBRANCH  47  49
BRANCH  47  72
ATOM     72  C24 non d ame     -30.591  14.464  29.382  0.00  0.00    -0.039 C 
ATOM     73  H35 non d ame     -29.513  14.370  29.248  0.00  0.00     0.036 H 
ATOM     74  H36 non d ame     -30.991  14.868  30.312  0.00  0.00     0.036 H 
BRANCH  72  75
ATOM     75  C25 non d ame     -31.220  13.003  29.192  0.00  0.00    -0.001 C 
ATOM     76  C26 non d ame     -32.832  13.041  29.515  0.00  0.00    -0.035 C 
ATOM     77  C27 non d ame     -33.122  12.061  30.404  0.00  0.00     0.085 C 
ATOM     78  H38 non d ame     -33.084  13.955  30.052  0.00  0.00     0.036 H 
ATOM     79  H39 non d ame     -33.398  12.756  28.628  0.00  0.00     0.036 H 
ATOM     80  N5  non d ame     -31.809  11.571  30.965  0.00  0.00    -0.049 N 
ATOM     81  H40 non d ame     -33.689  12.547  31.198  0.00  0.00     0.075 H 
ATOM     82  H41 non d ame     -33.578  11.263  29.819  0.00  0.00     0.075 H 
ATOM     83  C28 non d ame     -30.664  12.148  29.984  0.00  0.00     0.193 C 
ATOM     84  H42 non d ame     -31.705  12.005  31.871  0.00  0.00     0.280 HD
ATOM     85  H43 non d ame     -31.823  10.564  30.886  0.00  0.00     0.280 HD
ATOM     86  H44 non d ame     -30.175  11.496  29.260  0.00  0.00     0.129 H 
ATOM     87  H37 non d ame     -30.913  12.540  28.254  0.00  0.00     0.046 H 
BRANCH  83  88
ATOM     88  O6  non d ame     -29.607  12.730  30.749  0.00  0.00    -0.369 OA
ATOM     89  H45 non d ame     -29.795  12.627  31.685  0.00  0.00     0.212 HD
ENDBRANCH  83  88
ENDBRANCH  72  75
ENDBRANCH  47  72
ENDBRANCH  45  47
ENDBRANCH   1  43
BRANCH   1  90
ATOM     90  C16 non d ame     -31.222  15.155  23.475  0.00  0.00    -0.035 C 
ATOM     91  H21 non d ame     -32.047  14.754  22.887  0.00  0.00     0.037 H 
ATOM     92  H22 non d ame     -31.350  16.084  24.031  0.00  0.00     0.037 H 
BRANCH  90  93
ATOM     93  C17 non d ame     -30.046  15.397  22.476  0.00  0.00    -0.059 C 
ATOM     94  H23 non d ame     -29.381  16.137  22.921  0.00  0.00     0.038 H 
BRANCH  93  95
ATOM     95  C18 non d ame     -29.213  14.100  22.221  0.00  0.00    -0.073 C 
ATOM     96  H24 non d ame     -28.929  13.657  23.175  0.00  0.00     0.028 H 
ATOM     97  H25 non d ame     -29.813  13.388  21.655  0.00  0.00     0.028 H 
ATOM     98  H26 non d ame     -28.316  14.350  21.655  0.00  0.00     0.028 H 
ENDBRANCH  93  95
BRANCH  93  99
ATOM     99  C19 non d ame     -30.560  15.982  21.158  0.00  0.00    -0.073 C 
ATOM    100  H27 non d ame     -30.825  15.171  20.479  0.00  0.00     0.028 H 
ATOM    101  H28 non d ame     -31.440  16.596  21.351  0.00  0.00     0.028 H 
ATOM    102  H29 non d ame     -29.782  16.596  20.705  0.00  0.00     0.028 H 
ENDBRANCH  93  99
ENDBRANCH  90  93
ENDBRANCH   1  90
TORSDOF 26
