MODEL 1
REMARK VINA RESULT:      -6.4      0.000      0.000
REMARK  26 active torsions:
REMARK  status: ('A' for Active; 'I' for Inactive)
REMARK    1  A    between atoms: C2_2  and  C3_3 
REMARK    2  A    between atoms: C4_6  and  C5_7 
REMARK       I    between atoms: C5_7  and  N2_9 
REMARK    3  A    between atoms: N2_9  and  C6_10 
REMARK    4  A    between atoms: C6_10  and  C7_11 
REMARK    5  A    between atoms: C6_10  and  C8_13 
REMARK       I    between atoms: C7_11  and  N3_14 
REMARK    6  A    between atoms: N3_14  and  C9_15 
REMARK    7  A    between atoms: C9_15  and  C10_16 
REMARK    8  A    between atoms: C9_15  and  C11_18 
REMARK       I    between atoms: C10_16  and  N4_21 
REMARK    9  A    between atoms: C11_18  and  C12_19 
REMARK   10  A    between atoms: C11_18  and  C13_20 
REMARK   11  A    between atoms: N4_21  and  C14_22 
REMARK   12  A    between atoms: C14_22  and  C15_23 
REMARK   13  A    between atoms: C14_22  and  C16_25 
REMARK       I    between atoms: C15_23  and  N6_40 
REMARK   14  A    between atoms: C16_25  and  C17_26 
REMARK   15  A    between atoms: C17_26  and  C18_27 
REMARK   16  A    between atoms: C17_26  and  C19_28 
REMARK   17  A    between atoms: C20_29  and  C21_30 
REMARK   18  A    between atoms: C20_29  and  C24_33 
REMARK   19  A    between atoms: C20_29  and  N6_40 
REMARK   20  A    between atoms: C21_30  and  C22_31 
REMARK   21  A    between atoms: C22_31  and  C23_32 
REMARK   22  A    between atoms: C23_32  and  O8_43 
REMARK   23  A    between atoms: C24_33  and  C25_34 
REMARK   24  A    between atoms: C28_38  and  O6_39 
REMARK   25  A    between atoms: C29_42  and  O8_43 
REMARK   26  A    between atoms: C29_42  and  C35_49 
ROOT
ATOM      1  C14 non d ame     -37.346  13.817  25.181  0.00  0.00     0.089 C 
ATOM      2  H20 non d ame     -38.340  13.868  25.626  0.00  0.00     0.087 H 
ENDROOT
BRANCH   1   3
ATOM      3  N4  non d ame     -36.760  15.147  25.265  0.00  0.00    -0.346 N 
ATOM      4  C10 non d ame     -37.298  16.156  26.247  0.00  0.00     0.241 C 
ATOM      5  O4  non d ame     -38.206  15.876  26.959  0.00  0.00    -0.271 OA
ATOM      6  H19 non d ame     -35.990  15.366  24.649  0.00  0.00     0.163 HD
BRANCH   4   7
ATOM      7  C9  non d ame     -36.676  17.526  26.324  0.00  0.00     0.092 C 
ATOM      8  H11 non d ame     -37.141  18.086  27.135  0.00  0.00     0.088 H 
BRANCH   7   9
ATOM      9  N3  non d ame     -35.252  17.399  26.645  0.00  0.00    -0.346 N 
ATOM     10  C7  non d ame     -34.699  18.119  27.766  0.00  0.00     0.240 C 
ATOM     11  O3  non d ame     -35.386  18.806  28.419  0.00  0.00    -0.271 OA
ATOM     12  H10 non d ame     -34.646  16.811  26.090  0.00  0.00     0.163 HD
BRANCH  10  13
ATOM     13  C6  non d ame     -33.181  17.982  28.101  0.00  0.00     0.086 C 
ATOM     14  H6  non d ame     -32.925  18.399  29.075  0.00  0.00     0.086 H 
BRANCH  13  15
ATOM     15  N2  non d ame     -32.834  16.572  28.149  0.00  0.00    -0.343 N 
ATOM     16  C5  non d ame     -32.042  16.061  29.270  0.00  0.00     0.273 C 
ATOM     17  O2  non d ame     -31.685  16.794  30.126  0.00  0.00    -0.266 OA
ATOM     18  H5  non d ame     -33.141  15.953  27.411  0.00  0.00     0.163 HD
BRANCH  16  19
ATOM     19  C4  non d ame     -31.669  14.572  29.334  0.00  0.00     0.154 A 
ATOM     20  C1  non d ame     -32.521  13.482  29.701  0.00  0.00    -0.017 A 
ATOM     21  C2  non d ame     -31.706  12.333  29.600  0.00  0.00     0.077 A 
ATOM     22  H1  non d ame     -33.570  13.520  29.996  0.00  0.00     0.091 H 
ATOM     23  O1  non d ame     -30.527  12.727  29.217  0.00  0.00    -0.218 OA
ATOM     24  N1  non d ame     -30.480  14.029  29.055  0.00  0.00    -0.123 NA
BRANCH  21  25
ATOM     25  C3  non d ame     -32.130  10.898  29.885  0.00  0.00    -0.029 C 
ATOM     26  H2  non d ame     -33.008  10.900  30.530  0.00  0.00     0.036 H 
ATOM     27  H3  non d ame     -32.370  10.398  28.947  0.00  0.00     0.036 H 
ATOM     28  H4  non d ame     -31.316  10.370  30.380  0.00  0.00     0.036 H 
ENDBRANCH  21  25
ENDBRANCH  16  19
ENDBRANCH  13  15
BRANCH  13  29
ATOM     29  C8  non d ame     -32.365  18.679  27.043  0.00  0.00    -0.049 C 
ATOM     30  H7  non d ame     -31.902  19.570  27.469  0.00  0.00     0.030 H 
ATOM     31  H8  non d ame     -31.590  18.005  26.680  0.00  0.00     0.030 H 
ATOM     32  H9  non d ame     -33.013  18.967  26.215  0.00  0.00     0.030 H 
ENDBRANCH  13  29
ENDBRANCH  10  13
ENDBRANCH   7   9
BRANCH   7  33
ATOM     33  C11 non d ame     -36.834  18.244  24.952  0.00  0.00    -0.033 C 
ATOM     34  H12 non d ame     -36.223  17.706  24.227  0.00  0.00     0.042 H 
BRANCH  33  35
ATOM     35  C12 non d ame     -38.311  18.195  24.450  0.00  0.00    -0.071 C 
ATOM     36  H13 non d ame     -38.405  17.438  23.672  0.00  0.00     0.028 H 
ATOM     37  H14 non d ame     -38.968  17.946  25.282  0.00  0.00     0.028 H 
ATOM     38  H15 non d ame     -38.589  19.168  24.045  0.00  0.00     0.028 H 
ENDBRANCH  33  35
BRANCH  33  39
ATOM     39  C13 non d ame     -36.309  19.714  25.027  0.00  0.00    -0.071 C 
ATOM     40  H16 non d ame     -35.287  19.717  25.405  0.00  0.00     0.028 H 
ATOM     41  H17 non d ame     -36.329  20.159  24.031  0.00  0.00     0.028 H 
ATOM     42  H18 non d ame     -36.947  20.294  25.695  0.00  0.00     0.028 H 
ENDBRANCH  33  39
ENDBRANCH   7  33
ENDBRANCH   4   7
ENDBRANCH   1   3
BRANCH   1  43
ATOM     43  C15 non d ame     -36.418  12.819  25.932  0.00  0.00     0.240 C 
ATOM     44  O5  non d ame     -36.599  12.596  27.085  0.00  0.00    -0.271 OA
ATOM     45  N6  non d ame     -35.307  12.135  25.210  0.00  0.00    -0.355 N 
ATOM     46  H46 non d ame     -35.146  12.313  24.229  0.00  0.00     0.162 HD
BRANCH  45  47
ATOM     47  C20 non d ame     -34.435  11.188  25.937  0.00  0.00     0.013 C 
ATOM     48  H30 non d ame     -34.945  10.899  26.856  0.00  0.00     0.072 H 
BRANCH  47  49
ATOM     49  C21 non d ame     -33.124  11.867  26.265  0.00  0.00    -0.038 C 
ATOM     50  H31 non d ame     -33.318  12.468  27.153  0.00  0.00     0.036 H 
ATOM     51  H32 non d ame     -32.380  11.071  26.297  0.00  0.00     0.036 H 
BRANCH  49  52
ATOM     52  C22 non d ame     -32.666  12.849  25.165  0.00  0.00     0.018 C 
ATOM     53  H33 non d ame     -31.637  12.575  24.935  0.00  0.00     0.048 H 
ATOM     54  H34 non d ame     -33.430  12.799  24.388  0.00  0.00     0.048 H 
BRANCH  52  55
ATOM     55  C23 non d ame     -32.621  14.331  25.627  0.00  0.00     0.259 C 
ATOM     56  O7  non d ame     -33.627  14.942  25.795  0.00  0.00    -0.265 OA
BRANCH  55  57
ATOM     57  O8  non d ame     -31.361  14.958  25.837  0.00  0.00    -0.317 OA
BRANCH  57  58
ATOM     58  C29 non d ame     -31.123  16.085  24.989  0.00  0.00     0.052 C 
ATOM     59  H47 non d ame     -32.082  16.596  24.901  0.00  0.00     0.082 H 
ATOM     60  H48 non d ame     -30.268  16.604  25.421  0.00  0.00     0.082 H 
BRANCH  58  61
ATOM     61  C35 non d ame     -30.719  15.554  23.588  0.00  0.00    -0.034 A 
ATOM     62  C30 non d ame     -29.724  14.589  23.470  0.00  0.00    -0.075 A 
ATOM     63  C31 non d ame     -29.361  14.112  22.211  0.00  0.00    -0.082 A 
ATOM     64  H49 non d ame     -29.229  14.207  24.362  0.00  0.00     0.084 H 
ATOM     65  C32 non d ame     -29.995  14.605  21.068  0.00  0.00    -0.083 A 
ATOM     66  H50 non d ame     -28.582  13.354  22.122  0.00  0.00     0.083 H 
ATOM     67  C33 non d ame     -30.985  15.570  21.191  0.00  0.00    -0.082 A 
ATOM     68  H51 non d ame     -29.717  14.237  20.080  0.00  0.00     0.083 H 
ATOM     69  C34 non d ame     -31.353  16.049  22.447  0.00  0.00    -0.075 A 
ATOM     70  H52 non d ame     -31.476  15.955  20.297  0.00  0.00     0.083 H 
ATOM     71  H53 non d ame     -32.132  16.806  22.535  0.00  0.00     0.084 H 
ENDBRANCH  58  61
ENDBRANCH  57  58
ENDBRANCH  55  57
ENDBRANCH  52  55
ENDBRANCH  49  52
ENDBRANCH  47  49
BRANCH  47  72
ATOM     72  C24 non d ame     -34.169   9.960  25.069  0.00  0.00    -0.039 C 
ATOM     73  H35 non d ame     -34.775   9.163  25.501  0.00  0.00     0.036 H 
ATOM     74  H36 non d ame     -34.348  10.285  24.044  0.00  0.00     0.036 H 
BRANCH  72  75
ATOM     75  C25 non d ame     -32.640   9.491  25.157  0.00  0.00    -0.001 C 
ATOM     76  C26 non d ame     -31.961   9.512  23.659  0.00  0.00    -0.035 C 
ATOM     77  C27 non d ame     -31.370   8.314  23.432  0.00  0.00     0.085 C 
ATOM     78  H38 non d ame     -32.738   9.561  22.897  0.00  0.00     0.036 H 
ATOM     79  H39 non d ame     -31.129  10.215  23.636  0.00  0.00     0.036 H 
ATOM     80  N5  non d ame     -31.863   7.368  24.500  0.00  0.00    -0.049 N 
ATOM     81  H40 non d ame     -31.745   7.984  22.463  0.00  0.00     0.075 H 
ATOM     82  H41 non d ame     -30.303   8.485  23.574  0.00  0.00     0.075 H 
ATOM     83  C28 non d ame     -32.544   8.294  25.633  0.00  0.00     0.193 C 
ATOM     84  H42 non d ame     -32.582   6.802  24.072  0.00  0.00     0.280 HD
ATOM     85  H43 non d ame     -31.042   6.930  24.893  0.00  0.00     0.280 HD
ATOM     86  H44 non d ame     -32.025   8.495  26.570  0.00  0.00     0.129 H 
ATOM     87  H37 non d ame     -32.098   9.999  25.955  0.00  0.00     0.046 H 
BRANCH  83  88
ATOM     88  O6  non d ame     -33.816   7.760  26.007  0.00  0.00    -0.369 OA
ATOM     89  H45 non d ame     -34.386   8.471  26.309  0.00  0.00     0.212 HD
ENDBRANCH  83  88
ENDBRANCH  72  75
ENDBRANCH  47  72
ENDBRANCH  45  47
ENDBRANCH   1  43
BRANCH   1  90
ATOM     90  C16 non d ame     -37.455  13.414  23.720  0.00  0.00    -0.035 C 
ATOM     91  H21 non d ame     -36.428  13.286  23.378  0.00  0.00     0.037 H 
ATOM     92  H22 non d ame     -38.144  12.569  23.704  0.00  0.00     0.037 H 
BRANCH  90  93
ATOM     93  C17 non d ame     -38.087  14.516  22.811  0.00  0.00    -0.059 C 
ATOM     94  H23 non d ame     -37.596  15.460  23.047  0.00  0.00     0.038 H 
BRANCH  93  95
ATOM     95  C18 non d ame     -37.861  14.228  21.292  0.00  0.00    -0.073 C 
ATOM     96  H24 non d ame     -38.145  15.104  20.710  0.00  0.00     0.028 H 
ATOM     97  H25 non d ame     -36.809  14.002  21.117  0.00  0.00     0.028 H 
ATOM     98  H26 non d ame     -38.470  13.377  20.989  0.00  0.00     0.028 H 
ENDBRANCH  93  95
BRANCH  93  99
ATOM     99  C19 non d ame     -39.576  14.689  23.117  0.00  0.00    -0.073 C 
ATOM    100  H27 non d ame     -39.810  14.212  24.069  0.00  0.00     0.028 H 
ATOM    101  H28 non d ame     -39.815  15.751  23.175  0.00  0.00     0.028 H 
ATOM    102  H29 non d ame     -40.166  14.228  22.325  0.00  0.00     0.028 H 
ENDBRANCH  93  99
ENDBRANCH  90  93
ENDBRANCH   1  90
TORSDOF 26
ENDMDL
MODEL 2
REMARK VINA RESULT:      -6.3      4.025      8.767
REMARK  26 active torsions:
REMARK  status: ('A' for Active; 'I' for Inactive)
REMARK    1  A    between atoms: C2_2  and  C3_3 
REMARK    2  A    between atoms: C4_6  and  C5_7 
REMARK       I    between atoms: C5_7  and  N2_9 
REMARK    3  A    between atoms: N2_9  and  C6_10 
REMARK    4  A    between atoms: C6_10  and  C7_11 
REMARK    5  A    between atoms: C6_10  and  C8_13 
REMARK       I    between atoms: C7_11  and  N3_14 
REMARK    6  A    between atoms: N3_14  and  C9_15 
REMARK    7  A    between atoms: C9_15  and  C10_16 
REMARK    8  A    between atoms: C9_15  and  C11_18 
REMARK       I    between atoms: C10_16  and  N4_21 
REMARK    9  A    between atoms: C11_18  and  C12_19 
REMARK   10  A    between atoms: C11_18  and  C13_20 
REMARK   11  A    between atoms: N4_21  and  C14_22 
REMARK   12  A    between atoms: C14_22  and  C15_23 
REMARK   13  A    between atoms: C14_22  and  C16_25 
REMARK       I    between atoms: C15_23  and  N6_40 
REMARK   14  A    between atoms: C16_25  and  C17_26 
REMARK   15  A    between atoms: C17_26  and  C18_27 
REMARK   16  A    between atoms: C17_26  and  C19_28 
REMARK   17  A    between atoms: C20_29  and  C21_30 
REMARK   18  A    between atoms: C20_29  and  C24_33 
REMARK   19  A    between atoms: C20_29  and  N6_40 
REMARK   20  A    between atoms: C21_30  and  C22_31 
REMARK   21  A    between atoms: C22_31  and  C23_32 
REMARK   22  A    between atoms: C23_32  and  O8_43 
REMARK   23  A    between atoms: C24_33  and  C25_34 
REMARK   24  A    between atoms: C28_38  and  O6_39 
REMARK   25  A    between atoms: C29_42  and  O8_43 
REMARK   26  A    between atoms: C29_42  and  C35_49 
ROOT
ATOM      1  C14 non d ame     -33.257  10.099  29.739  0.00  0.00     0.089 C 
ATOM      2  H20 non d ame     -32.394   9.463  29.539  0.00  0.00     0.087 H 
ENDROOT
BRANCH   1   3
ATOM      3  N4  non d ame     -33.786  10.536  28.456  0.00  0.00    -0.346 N 
ATOM      4  C10 non d ame     -33.018  10.275  27.186  0.00  0.00     0.241 C 
ATOM      5  O4  non d ame     -31.973   9.713  27.221  0.00  0.00    -0.271 OA
ATOM      6  H19 non d ame     -34.676  11.015  28.448  0.00  0.00     0.163 HD
BRANCH   4   7
ATOM      7  C9  non d ame     -33.584  10.729  25.866  0.00  0.00     0.092 C 
ATOM      8  H11 non d ame     -34.671  10.751  25.931  0.00  0.00     0.088 H 
BRANCH   7   9
ATOM      9  N3  non d ame     -33.138  12.098  25.588  0.00  0.00    -0.346 N 
ATOM     10  C7  non d ame     -33.757  13.209  26.269  0.00  0.00     0.240 C 
ATOM     11  O3  non d ame     -34.615  13.020  27.041  0.00  0.00    -0.271 OA
ATOM     12  H10 non d ame     -32.400  12.277  24.923  0.00  0.00     0.163 HD
BRANCH  10  13
ATOM     13  C6  non d ame     -33.280  14.664  25.967  0.00  0.00     0.086 C 
ATOM     14  H6  non d ame     -32.544  15.024  26.685  0.00  0.00     0.086 H 
BRANCH  13  15
ATOM     15  N2  non d ame     -32.636  14.688  24.664  0.00  0.00    -0.343 N 
ATOM     16  C5  non d ame     -31.475  15.554  24.449  0.00  0.00     0.273 C 
ATOM     17  O2  non d ame     -31.069  16.230  25.330  0.00  0.00    -0.266 OA
ATOM     18  H5  non d ame     -32.992  14.109  23.916  0.00  0.00     0.163 HD
BRANCH  16  19
ATOM     19  C4  non d ame     -30.783  15.589  23.078  0.00  0.00     0.154 A 
ATOM     20  C1  non d ame     -31.409  15.709  21.796  0.00  0.00    -0.017 A 
ATOM     21  C2  non d ame     -30.343  15.691  20.869  0.00  0.00     0.077 A 
ATOM     22  H1  non d ame     -32.472  15.795  21.574  0.00  0.00     0.091 H 
ATOM     23  O1  non d ame     -29.240  15.576  21.548  0.00  0.00    -0.218 OA
ATOM     24  N1  non d ame     -29.471  15.514  22.839  0.00  0.00    -0.123 NA
BRANCH  21  25
ATOM     25  C3  non d ame     -30.465  15.790  19.354  0.00  0.00    -0.029 C 
ATOM     26  H2  non d ame     -31.399  15.328  19.033  0.00  0.00     0.036 H 
ATOM     27  H3  non d ame     -30.459  16.839  19.057  0.00  0.00     0.036 H 
ATOM     28  H4  non d ame     -29.626  15.275  18.887  0.00  0.00     0.036 H 
ENDBRANCH  21  25
ENDBRANCH  16  19
ENDBRANCH  13  15
BRANCH  13  29
ATOM     29  C8  non d ame     -34.466  15.596  25.974  0.00  0.00    -0.049 C 
ATOM     30  H7  non d ame     -34.322  16.360  26.737  0.00  0.00     0.030 H 
ATOM     31  H8  non d ame     -34.560  16.070  24.998  0.00  0.00     0.030 H 
ATOM     32  H9  non d ame     -35.371  15.030  26.193  0.00  0.00     0.030 H 
ENDBRANCH  13  29
ENDBRANCH  10  13
ENDBRANCH   7   9
BRANCH   7  33
ATOM     33  C11 non d ame     -33.084   9.784  24.734  0.00  0.00    -0.033 C 
ATOM     34  H12 non d ame     -32.700   8.880  25.207  0.00  0.00     0.042 H 
BRANCH  33  35
ATOM     35  C12 non d ame     -34.252   9.361  23.790  0.00  0.00    -0.071 C 
ATOM     36  H13 non d ame     -33.998   9.616  22.761  0.00  0.00     0.028 H 
ATOM     37  H14 non d ame     -34.411   8.285  23.869  0.00  0.00     0.028 H 
ATOM     38  H15 non d ame     -35.162   9.885  24.081  0.00  0.00     0.028 H 
ENDBRANCH  33  35
BRANCH  33  39
ATOM     39  C13 non d ame     -31.916  10.443  23.931  0.00  0.00    -0.071 C 
ATOM     40  H16 non d ame     -31.835   9.967  22.953  0.00  0.00     0.028 H 
ATOM     41  H17 non d ame     -32.119  11.506  23.802  0.00  0.00     0.028 H 
ATOM     42  H18 non d ame     -30.982  10.315  24.477  0.00  0.00     0.028 H 
ENDBRANCH  33  39
ENDBRANCH   7  33
ENDBRANCH   4   7
ENDBRANCH   1   3
BRANCH   1  43
ATOM     43  C15 non d ame     -34.378   9.342  30.506  0.00  0.00     0.240 C 
ATOM     44  O5  non d ame     -34.291   9.188  31.681  0.00  0.00    -0.271 OA
ATOM     45  N6  non d ame     -35.567   8.815  29.776  0.00  0.00    -0.355 N 
ATOM     46  H46 non d ame     -35.655   8.944  28.779  0.00  0.00     0.162 HD
BRANCH  45  47
ATOM     47  C20 non d ame     -36.625   8.099  30.520  0.00  0.00     0.013 C 
ATOM     48  H30 non d ame     -36.421   8.210  31.585  0.00  0.00     0.072 H 
BRANCH  47  49
ATOM     49  C21 non d ame     -36.600   6.635  30.139  0.00  0.00    -0.038 C 
ATOM     50  H31 non d ame     -37.636   6.300  30.189  0.00  0.00     0.036 H 
ATOM     51  H32 non d ame     -36.055   6.586  29.196  0.00  0.00     0.036 H 
BRANCH  49  52
ATOM     52  C22 non d ame     -35.812   5.768  31.145  0.00  0.00     0.018 C 
ATOM     53  H33 non d ame     -35.527   6.440  31.954  0.00  0.00     0.048 H 
ATOM     54  H34 non d ame     -36.445   4.905  31.350  0.00  0.00     0.048 H 
BRANCH  52  55
ATOM     55  C23 non d ame     -34.483   5.199  30.574  0.00  0.00     0.259 C 
ATOM     56  O7  non d ame     -33.776   4.525  31.250  0.00  0.00    -0.265 OA
BRANCH  55  57
ATOM     57  O8  non d ame     -34.114   5.503  29.234  0.00  0.00    -0.317 OA
BRANCH  57  58
ATOM     58  C29 non d ame     -33.732   4.361  28.462  0.00  0.00     0.052 C 
ATOM     59  H47 non d ame     -32.905   3.901  29.004  0.00  0.00     0.082 H 
ATOM     60  H48 non d ame     -34.651   3.800  28.292  0.00  0.00     0.082 H 
BRANCH  58  61
ATOM     61  C35 non d ame     -33.203   4.864  27.093  0.00  0.00    -0.034 A 
ATOM     62  C30 non d ame     -32.365   5.973  27.034  0.00  0.00    -0.075 A 
ATOM     63  C31 non d ame     -31.889   6.425  25.804  0.00  0.00    -0.082 A 
ATOM     64  H49 non d ame     -32.080   6.488  27.952  0.00  0.00     0.084 H 
ATOM     65  C32 non d ame     -32.258   5.765  24.629  0.00  0.00    -0.083 A 
ATOM     66  H50 non d ame     -31.231   7.293  25.762  0.00  0.00     0.083 H 
ATOM     67  C33 non d ame     -33.097   4.661  24.692  0.00  0.00    -0.082 A 
ATOM     68  H51 non d ame     -31.890   6.111  23.663  0.00  0.00     0.083 H 
ATOM     69  C34 non d ame     -33.573   4.204  25.919  0.00  0.00    -0.075 A 
ATOM     70  H52 non d ame     -33.384   4.150  23.772  0.00  0.00     0.083 H 
ATOM     71  H53 non d ame     -34.231   3.336  25.960  0.00  0.00     0.084 H 
ENDBRANCH  58  61
ENDBRANCH  57  58
ENDBRANCH  55  57
ENDBRANCH  52  55
ENDBRANCH  49  52
ENDBRANCH  47  49
BRANCH  47  72
ATOM     72  C24 non d ame     -37.990   8.692  30.176  0.00  0.00    -0.039 C 
ATOM     73  H35 non d ame     -37.832   9.278  29.270  0.00  0.00     0.036 H 
ATOM     74  H36 non d ame     -38.679   7.847  30.164  0.00  0.00     0.036 H 
BRANCH  72  75
ATOM     75  C25 non d ame     -38.500   9.702  31.310  0.00  0.00    -0.001 C 
ATOM     76  C26 non d ame     -40.076   9.395  31.665  0.00  0.00    -0.035 C 
ATOM     77  C27 non d ame     -40.774  10.554  31.593  0.00  0.00     0.085 C 
ATOM     78  H38 non d ame     -40.523   8.780  30.884  0.00  0.00     0.036 H 
ATOM     79  H39 non d ame     -40.174   9.103  32.711  0.00  0.00     0.036 H 
ATOM     80  N5  non d ame     -39.885  11.561  30.904  0.00  0.00    -0.049 N 
ATOM     81  H40 non d ame     -41.630  10.339  30.954  0.00  0.00     0.075 H 
ATOM     82  H41 non d ame     -40.929  10.864  32.626  0.00  0.00     0.075 H 
ATOM     83  C28 non d ame     -38.400  10.929  30.922  0.00  0.00     0.193 C 
ATOM     84  H42 non d ame     -40.201  11.614  29.947  0.00  0.00     0.280 HD
ATOM     85  H43 non d ame     -39.890  12.389  31.484  0.00  0.00     0.280 HD
ATOM     86  H44 non d ame     -37.650  11.297  31.622  0.00  0.00     0.129 H 
ATOM     87  H37 non d ame     -37.807   9.766  32.148  0.00  0.00     0.046 H 
BRANCH  83  88
ATOM     88  O6  non d ame     -37.802  11.039  29.629  0.00  0.00    -0.369 OA
ATOM     89  H45 non d ame     -37.157  10.337  29.514  0.00  0.00     0.212 HD
ENDBRANCH  83  88
ENDBRANCH  72  75
ENDBRANCH  47  72
ENDBRANCH  45  47
ENDBRANCH   1  43
BRANCH   1  90
ATOM     90  C16 non d ame     -32.824  11.318  30.539  0.00  0.00    -0.035 C 
ATOM     91  H21 non d ame     -33.675  11.998  30.512  0.00  0.00     0.037 H 
ATOM     92  H22 non d ame     -32.469  10.926  31.493  0.00  0.00     0.037 H 
BRANCH  90  93
ATOM     93  C17 non d ame     -31.623  12.089  29.905  0.00  0.00    -0.059 C 
ATOM     94  H23 non d ame     -31.388  11.611  28.954  0.00  0.00     0.038 H 
BRANCH  93  95
ATOM     95  C18 non d ame     -31.971  13.584  29.613  0.00  0.00    -0.073 C 
ATOM     96  H24 non d ame     -33.023  13.762  29.834  0.00  0.00     0.028 H 
ATOM     97  H25 non d ame     -31.355  14.229  30.238  0.00  0.00     0.028 H 
ATOM     98  H26 non d ame     -31.778  13.803  28.563  0.00  0.00     0.028 H 
ENDBRANCH  93  95
BRANCH  93  99
ATOM     99  C19 non d ame     -30.377  11.982  30.788  0.00  0.00    -0.073 C 
ATOM    100  H27 non d ame     -29.936  10.992  30.675  0.00  0.00     0.028 H 
ATOM    101  H28 non d ame     -29.652  12.739  30.487  0.00  0.00     0.028 H 
ATOM    102  H29 non d ame     -30.655  12.140  31.829  0.00  0.00     0.028 H 
ENDBRANCH  93  99
ENDBRANCH  90  93
ENDBRANCH   1  90
TORSDOF 26
ENDMDL
MODEL 3
REMARK VINA RESULT:      -6.2      3.427      9.132
REMARK  26 active torsions:
REMARK  status: ('A' for Active; 'I' for Inactive)
REMARK    1  A    between atoms: C2_2  and  C3_3 
REMARK    2  A    between atoms: C4_6  and  C5_7 
REMARK       I    between atoms: C5_7  and  N2_9 
REMARK    3  A    between atoms: N2_9  and  C6_10 
REMARK    4  A    between atoms: C6_10  and  C7_11 
REMARK    5  A    between atoms: C6_10  and  C8_13 
REMARK       I    between atoms: C7_11  and  N3_14 
REMARK    6  A    between atoms: N3_14  and  C9_15 
REMARK    7  A    between atoms: C9_15  and  C10_16 
REMARK    8  A    between atoms: C9_15  and  C11_18 
REMARK       I    between atoms: C10_16  and  N4_21 
REMARK    9  A    between atoms: C11_18  and  C12_19 
REMARK   10  A    between atoms: C11_18  and  C13_20 
REMARK   11  A    between atoms: N4_21  and  C14_22 
REMARK   12  A    between atoms: C14_22  and  C15_23 
REMARK   13  A    between atoms: C14_22  and  C16_25 
REMARK       I    between atoms: C15_23  and  N6_40 
REMARK   14  A    between atoms: C16_25  and  C17_26 
REMARK   15  A    between atoms: C17_26  and  C18_27 
REMARK   16  A    between atoms: C17_26  and  C19_28 
REMARK   17  A    between atoms: C20_29  and  C21_30 
REMARK   18  A    between atoms: C20_29  and  C24_33 
REMARK   19  A    between atoms: C20_29  and  N6_40 
REMARK   20  A    between atoms: C21_30  and  C22_31 
REMARK   21  A    between atoms: C22_31  and  C23_32 
REMARK   22  A    between atoms: C23_32  and  O8_43 
REMARK   23  A    between atoms: C24_33  and  C25_34 
REMARK   24  A    between atoms: C28_38  and  O6_39 
REMARK   25  A    between atoms: C29_42  and  O8_43 
REMARK   26  A    between atoms: C29_42  and  C35_49 
ROOT
ATOM      1  C14 non d ame     -32.750  10.437  26.288  0.00  0.00     0.089 C 
ATOM      2  H20 non d ame     -33.759  10.508  25.879  0.00  0.00     0.087 H 
ENDROOT
BRANCH   1   3
ATOM      3  N4  non d ame     -32.083   9.330  25.620  0.00  0.00    -0.346 N 
ATOM      4  C10 non d ame     -32.334   9.060  24.158  0.00  0.00     0.241 C 
ATOM      5  O4  non d ame     -33.080   9.746  23.540  0.00  0.00    -0.271 OA
ATOM      6  H19 non d ame     -31.454   8.756  26.164  0.00  0.00     0.163 HD
BRANCH   4   7
ATOM      7  C9  non d ame     -31.631   7.913  23.481  0.00  0.00     0.092 C 
ATOM      8  H11 non d ame     -30.692   7.713  23.997  0.00  0.00     0.088 H 
BRANCH   7   9
ATOM      9  N3  non d ame     -32.452   6.703  23.590  0.00  0.00    -0.346 N 
ATOM     10  C7  non d ame     -32.357   5.872  24.766  0.00  0.00     0.240 C 
ATOM     11  O3  non d ame     -31.626   6.162  25.632  0.00  0.00    -0.271 OA
ATOM     12  H10 non d ame     -33.086   6.439  22.850  0.00  0.00     0.163 HD
BRANCH  10  13
ATOM     13  C6  non d ame     -33.231   4.584  24.875  0.00  0.00     0.086 C 
ATOM     14  H6  non d ame     -32.706   3.758  25.355  0.00  0.00     0.086 H 
BRANCH  13  15
ATOM     15  N2  non d ame     -34.394   4.872  25.698  0.00  0.00    -0.343 N 
ATOM     16  C5  non d ame     -34.444   4.377  27.076  0.00  0.00     0.273 C 
ATOM     17  O2  non d ame     -33.544   3.747  27.511  0.00  0.00    -0.266 OA
ATOM     18  H5  non d ame     -35.160   5.409  25.316  0.00  0.00     0.163 HD
BRANCH  16  19
ATOM     19  C4  non d ame     -35.666   4.675  27.957  0.00  0.00     0.154 A 
ATOM     20  C1  non d ame     -35.715   5.519  29.112  0.00  0.00    -0.017 A 
ATOM     21  C2  non d ame     -37.056   5.456  29.553  0.00  0.00     0.077 A 
ATOM     22  H1  non d ame     -34.902   6.089  29.562  0.00  0.00     0.091 H 
ATOM     23  O1  non d ame     -37.694   4.667  28.738  0.00  0.00    -0.218 OA
ATOM     24  N1  non d ame     -36.905   4.199  27.799  0.00  0.00    -0.123 NA
BRANCH  21  25
ATOM     25  C3  non d ame     -37.644   6.178  30.757  0.00  0.00    -0.029 C 
ATOM     26  H2  non d ame     -37.962   5.447  31.500  0.00  0.00     0.036 H 
ATOM     27  H3  non d ame     -36.889   6.832  31.193  0.00  0.00     0.036 H 
ATOM     28  H4  non d ame     -38.501   6.773  30.442  0.00  0.00     0.036 H 
ENDBRANCH  21  25
ENDBRANCH  16  19
ENDBRANCH  13  15
BRANCH  13  29
ATOM     29  C8  non d ame     -33.666   4.151  23.499  0.00  0.00    -0.049 C 
ATOM     30  H7  non d ame     -33.096   4.698  22.748  0.00  0.00     0.030 H 
ATOM     31  H8  non d ame     -33.489   3.082  23.382  0.00  0.00     0.030 H 
ATOM     32  H9  non d ame     -34.729   4.359  23.371  0.00  0.00     0.030 H 
ENDBRANCH  13  29
ENDBRANCH  10  13
ENDBRANCH   7   9
BRANCH   7  33
ATOM     33  C11 non d ame     -31.412   8.253  21.978  0.00  0.00    -0.033 C 
ATOM     34  H12 non d ame     -31.968   9.165  21.763  0.00  0.00     0.042 H 
BRANCH  33  35
ATOM     35  C12 non d ame     -29.908   8.538  21.673  0.00  0.00    -0.071 C 
ATOM     36  H13 non d ame     -29.306   8.283  22.545  0.00  0.00     0.028 H 
ATOM     37  H14 non d ame     -29.590   7.937  20.822  0.00  0.00     0.028 H 
ATOM     38  H15 non d ame     -29.779   9.595  21.440  0.00  0.00     0.028 H 
ENDBRANCH  33  35
BRANCH  33  39
ATOM     39  C13 non d ame     -31.970   7.119  21.060  0.00  0.00    -0.071 C 
ATOM     40  H16 non d ame     -33.029   7.294  20.869  0.00  0.00     0.028 H 
ATOM     41  H17 non d ame     -31.426   7.114  20.115  0.00  0.00     0.028 H 
ATOM     42  H18 non d ame     -31.845   6.156  21.555  0.00  0.00     0.028 H 
ENDBRANCH  33  39
ENDBRANCH   7  33
ENDBRANCH   4   7
ENDBRANCH   1   3
BRANCH   1  43
ATOM     43  C15 non d ame     -31.925  11.733  26.043  0.00  0.00     0.240 C 
ATOM     44  O5  non d ame     -30.907  11.905  26.631  0.00  0.00    -0.271 OA
ATOM     45  N6  non d ame     -32.401  12.756  25.069  0.00  0.00    -0.355 N 
ATOM     46  H46 non d ame     -33.262  12.619  24.560  0.00  0.00     0.162 HD
BRANCH  45  47
ATOM     47  C20 non d ame     -31.604  13.982  24.846  0.00  0.00     0.013 C 
ATOM     48  H30 non d ame     -30.942  14.112  25.702  0.00  0.00     0.072 H 
BRANCH  47  49
ATOM     49  C21 non d ame     -32.534  15.168  24.729  0.00  0.00    -0.038 C 
ATOM     50  H31 non d ame     -31.889  16.039  24.615  0.00  0.00     0.036 H 
ATOM     51  H32 non d ame     -33.245  14.909  23.944  0.00  0.00     0.036 H 
BRANCH  49  52
ATOM     52  C22 non d ame     -33.366  15.406  26.008  0.00  0.00     0.018 C 
ATOM     53  H33 non d ame     -34.262  15.935  25.684  0.00  0.00     0.048 H 
ATOM     54  H34 non d ame     -33.452  14.432  26.490  0.00  0.00     0.048 H 
BRANCH  52  55
ATOM     55  C23 non d ame     -32.672  16.336  27.043  0.00  0.00     0.259 C 
ATOM     56  O7  non d ame     -32.316  17.426  26.731  0.00  0.00    -0.265 OA
BRANCH  55  57
ATOM     57  O8  non d ame     -32.454  15.864  28.367  0.00  0.00    -0.317 OA
BRANCH  57  58
ATOM     58  C29 non d ame     -33.258  14.736  28.723  0.00  0.00     0.052 C 
ATOM     59  H47 non d ame     -33.985  15.109  29.445  0.00  0.00     0.082 H 
ATOM     60  H48 non d ame     -33.597  14.306  27.781  0.00  0.00     0.082 H 
BRANCH  58  61
ATOM     61  C35 non d ame     -32.346  13.702  29.435  0.00  0.00    -0.034 A 
ATOM     62  C30 non d ame     -32.904  12.735  30.264  0.00  0.00    -0.075 A 
ATOM     63  C31 non d ame     -32.085  11.806  30.904  0.00  0.00    -0.082 A 
ATOM     64  H49 non d ame     -33.984  12.704  30.413  0.00  0.00     0.084 H 
ATOM     65  C32 non d ame     -30.701  11.849  30.714  0.00  0.00    -0.083 A 
ATOM     66  H50 non d ame     -32.526  11.048  31.551  0.00  0.00     0.083 H 
ATOM     67  C33 non d ame     -30.148  12.819  29.888  0.00  0.00    -0.082 A 
ATOM     68  H51 non d ame     -30.053  11.126  31.210  0.00  0.00     0.083 H 
ATOM     69  C34 non d ame     -30.963  13.747  29.245  0.00  0.00    -0.075 A 
ATOM     70  H52 non d ame     -29.068  12.851  29.744  0.00  0.00     0.083 H 
ATOM     71  H53 non d ame     -30.522  14.505  28.598  0.00  0.00     0.084 H 
ENDBRANCH  58  61
ENDBRANCH  57  58
ENDBRANCH  55  57
ENDBRANCH  52  55
ENDBRANCH  49  52
ENDBRANCH  47  49
BRANCH  47  72
ATOM     72  C24 non d ame     -30.791  13.843  23.561  0.00  0.00    -0.039 C 
ATOM     73  H35 non d ame     -29.780  13.589  23.883  0.00  0.00     0.036 H 
ATOM     74  H36 non d ame     -31.353  13.151  22.935  0.00  0.00     0.036 H 
BRANCH  72  75
ATOM     75  C25 non d ame     -30.698  15.231  22.766  0.00  0.00    -0.001 C 
ATOM     76  C26 non d ame     -31.317  15.052  21.253  0.00  0.00    -0.035 C 
ATOM     77  C27 non d ame     -30.417  15.518  20.355  0.00  0.00     0.085 C 
ATOM     78  H38 non d ame     -31.399  13.994  21.006  0.00  0.00     0.036 H 
ATOM     79  H39 non d ame     -32.175  15.711  21.120  0.00  0.00     0.036 H 
ATOM     80  N5  non d ame     -29.111  15.696  21.090  0.00  0.00    -0.049 N 
ATOM     81  H40 non d ame     -30.305  14.724  19.617  0.00  0.00     0.075 H 
ATOM     82  H41 non d ame     -30.789  16.496  20.050  0.00  0.00     0.075 H 
ATOM     83  C28 non d ame     -29.474  15.629  22.662  0.00  0.00     0.193 C 
ATOM     84  H42 non d ame     -28.540  14.896  20.858  0.00  0.00     0.280 HD
ATOM     85  H43 non d ame     -28.787  16.628  20.874  0.00  0.00     0.280 HD
ATOM     86  H44 non d ame     -29.510  16.539  23.261  0.00  0.00     0.129 H 
ATOM     87  H37 non d ame     -31.065  16.071  23.356  0.00  0.00     0.046 H 
BRANCH  83  88
ATOM     88  O6  non d ame     -28.565  14.761  23.341  0.00  0.00    -0.369 OA
ATOM     89  H45 non d ame     -29.044  14.243  23.993  0.00  0.00     0.212 HD
ENDBRANCH  83  88
ENDBRANCH  72  75
ENDBRANCH  47  72
ENDBRANCH  45  47
ENDBRANCH   1  43
BRANCH   1  90
ATOM     90  C16 non d ame     -32.819  10.149  27.779  0.00  0.00    -0.035 C 
ATOM     91  H21 non d ame     -32.131   9.320  27.944  0.00  0.00     0.037 H 
ATOM     92  H22 non d ame     -32.643  11.108  28.267  0.00  0.00     0.037 H 
BRANCH  90  93
ATOM     93  C17 non d ame     -34.222   9.660  28.259  0.00  0.00    -0.059 C 
ATOM     94  H23 non d ame     -34.535   8.852  27.598  0.00  0.00     0.038 H 
BRANCH  93  95
ATOM     95  C18 non d ame     -34.183   9.096  29.716  0.00  0.00    -0.073 C 
ATOM     96  H24 non d ame     -34.977   8.360  29.842  0.00  0.00     0.028 H 
ATOM     97  H25 non d ame     -33.218   8.623  29.897  0.00  0.00     0.028 H 
ATOM     98  H26 non d ame     -34.327   9.911  30.425  0.00  0.00     0.028 H 
ENDBRANCH  93  95
BRANCH  93  99
ATOM     99  C19 non d ame     -35.262  10.777  28.135  0.00  0.00    -0.073 C 
ATOM    100  H27 non d ame     -34.816  11.634  27.630  0.00  0.00     0.028 H 
ATOM    101  H28 non d ame     -36.114  10.418  27.557  0.00  0.00     0.028 H 
ATOM    102  H29 non d ame     -35.597  11.073  29.128  0.00  0.00     0.028 H 
ENDBRANCH  93  99
ENDBRANCH  90  93
ENDBRANCH   1  90
TORSDOF 26
ENDMDL
MODEL 4
REMARK VINA RESULT:      -6.2      3.179      8.097
REMARK  26 active torsions:
REMARK  status: ('A' for Active; 'I' for Inactive)
REMARK    1  A    between atoms: C2_2  and  C3_3 
REMARK    2  A    between atoms: C4_6  and  C5_7 
REMARK       I    between atoms: C5_7  and  N2_9 
REMARK    3  A    between atoms: N2_9  and  C6_10 
REMARK    4  A    between atoms: C6_10  and  C7_11 
REMARK    5  A    between atoms: C6_10  and  C8_13 
REMARK       I    between atoms: C7_11  and  N3_14 
REMARK    6  A    between atoms: N3_14  and  C9_15 
REMARK    7  A    between atoms: C9_15  and  C10_16 
REMARK    8  A    between atoms: C9_15  and  C11_18 
REMARK       I    between atoms: C10_16  and  N4_21 
REMARK    9  A    between atoms: C11_18  and  C12_19 
REMARK   10  A    between atoms: C11_18  and  C13_20 
REMARK   11  A    between atoms: N4_21  and  C14_22 
REMARK   12  A    between atoms: C14_22  and  C15_23 
REMARK   13  A    between atoms: C14_22  and  C16_25 
REMARK       I    between atoms: C15_23  and  N6_40 
REMARK   14  A    between atoms: C16_25  and  C17_26 
REMARK   15  A    between atoms: C17_26  and  C18_27 
REMARK   16  A    between atoms: C17_26  and  C19_28 
REMARK   17  A    between atoms: C20_29  and  C21_30 
REMARK   18  A    between atoms: C20_29  and  C24_33 
REMARK   19  A    between atoms: C20_29  and  N6_40 
REMARK   20  A    between atoms: C21_30  and  C22_31 
REMARK   21  A    between atoms: C22_31  and  C23_32 
REMARK   22  A    between atoms: C23_32  and  O8_43 
REMARK   23  A    between atoms: C24_33  and  C25_34 
REMARK   24  A    between atoms: C28_38  and  O6_39 
REMARK   25  A    between atoms: C29_42  and  O8_43 
REMARK   26  A    between atoms: C29_42  and  C35_49 
ROOT
ATOM      1  C14 non d ame     -33.007   9.257  27.433  0.00  0.00     0.089 C 
ATOM      2  H20 non d ame     -31.987   8.871  27.455  0.00  0.00     0.087 H 
ENDROOT
BRANCH   1   3
ATOM      3  N4  non d ame     -32.943  10.678  27.738  0.00  0.00    -0.346 N 
ATOM      4  C10 non d ame     -31.809  11.521  27.212  0.00  0.00     0.241 C 
ATOM      5  O4  non d ame     -30.956  11.031  26.547  0.00  0.00    -0.271 OA
ATOM      6  H19 non d ame     -33.677  11.075  28.308  0.00  0.00     0.163 HD
BRANCH   4   7
ATOM      7  C9  non d ame     -31.762  12.992  27.533  0.00  0.00     0.092 C 
ATOM      8  H11 non d ame     -30.725  13.328  27.521  0.00  0.00     0.088 H 
BRANCH   7   9
ATOM      9  N3  non d ame     -32.473  13.742  26.493  0.00  0.00    -0.346 N 
ATOM     10  C7  non d ame     -31.735  14.369  25.425  0.00  0.00     0.240 C 
ATOM     11  O3  non d ame     -30.568  14.281  25.387  0.00  0.00    -0.271 OA
ATOM     12  H10 non d ame     -33.479  13.828  26.514  0.00  0.00     0.163 HD
BRANCH  10  13
ATOM     13  C6  non d ame     -32.497  15.169  24.323  0.00  0.00     0.086 C 
ATOM     14  H6  non d ame     -33.450  14.712  24.053  0.00  0.00     0.086 H 
BRANCH  13  15
ATOM     15  N2  non d ame     -32.801  16.497  24.829  0.00  0.00    -0.343 N 
ATOM     16  C5  non d ame     -34.066  16.730  25.530  0.00  0.00     0.273 C 
ATOM     17  O2  non d ame     -34.833  15.843  25.678  0.00  0.00    -0.266 OA
ATOM     18  H5  non d ame     -32.140  17.249  24.696  0.00  0.00     0.163 HD
BRANCH  16  19
ATOM     19  C4  non d ame     -34.399  18.128  26.072  0.00  0.00     0.154 A 
ATOM     20  C1  non d ame     -35.692  18.736  26.161  0.00  0.00    -0.017 A 
ATOM     21  C2  non d ame     -35.457  20.010  26.724  0.00  0.00     0.077 A 
ATOM     22  H1  non d ame     -36.653  18.316  25.863  0.00  0.00     0.091 H 
ATOM     23  O1  non d ame     -34.177  20.112  26.931  0.00  0.00    -0.218 OA
ATOM     24  N1  non d ame     -33.538  19.026  26.558  0.00  0.00    -0.123 NA
BRANCH  21  25
ATOM     25  C3  non d ame     -36.509  21.067  27.032  0.00  0.00    -0.029 C 
ATOM     26  H2  non d ame     -36.588  21.756  26.192  0.00  0.00     0.036 H 
ATOM     27  H3  non d ame     -37.471  20.584  27.198  0.00  0.00     0.036 H 
ATOM     28  H4  non d ame     -36.219  21.618  27.927  0.00  0.00     0.036 H 
ENDBRANCH  21  25
ENDBRANCH  16  19
ENDBRANCH  13  15
BRANCH  13  29
ATOM     29  C8  non d ame     -31.639  15.271  23.087  0.00  0.00    -0.049 C 
ATOM     30  H7  non d ame     -32.252  15.588  22.244  0.00  0.00     0.030 H 
ATOM     31  H8  non d ame     -30.847  16.000  23.255  0.00  0.00     0.030 H 
ATOM     32  H9  non d ame     -31.198  14.298  22.870  0.00  0.00     0.030 H 
ENDBRANCH  13  29
ENDBRANCH  10  13
ENDBRANCH   7   9
BRANCH   7  33
ATOM     33  C11 non d ame     -32.444  13.244  28.909  0.00  0.00    -0.033 C 
ATOM     34  H12 non d ame     -33.309  12.583  28.973  0.00  0.00     0.042 H 
BRANCH  33  35
ATOM     35  C12 non d ame     -31.490  12.884  30.091  0.00  0.00    -0.071 C 
ATOM     36  H13 non d ame     -30.461  13.105  29.807  0.00  0.00     0.028 H 
ATOM     37  H14 non d ame     -31.760  13.472  30.967  0.00  0.00     0.028 H 
ATOM     38  H15 non d ame     -31.583  11.823  30.322  0.00  0.00     0.028 H 
ENDBRANCH  33  35
BRANCH  33  39
ATOM     39  C13 non d ame     -32.953  14.717  29.020  0.00  0.00    -0.071 C 
ATOM     40  H16 non d ame     -32.522  15.184  29.906  0.00  0.00     0.028 H 
ATOM     41  H17 non d ame     -32.650  15.274  28.132  0.00  0.00     0.028 H 
ATOM     42  H18 non d ame     -34.040  14.722  29.097  0.00  0.00     0.028 H 
ENDBRANCH  33  39
ENDBRANCH   7  33
ENDBRANCH   4   7
ENDBRANCH   1   3
BRANCH   1  43
ATOM     43  C15 non d ame     -33.672   9.079  26.038  0.00  0.00     0.240 C 
ATOM     44  O5  non d ame     -34.704   9.619  25.802  0.00  0.00    -0.271 OA
ATOM     45  N6  non d ame     -33.018   8.241  24.993  0.00  0.00    -0.355 N 
ATOM     46  H46 non d ame     -32.139   7.781  25.180  0.00  0.00     0.162 HD
BRANCH  45  47
ATOM     47  C20 non d ame     -33.662   8.083  23.671  0.00  0.00     0.013 C 
ATOM     48  H30 non d ame     -34.646   8.549  23.720  0.00  0.00     0.072 H 
BRANCH  47  49
ATOM     49  C21 non d ame     -33.803   6.611  23.357  0.00  0.00    -0.038 C 
ATOM     50  H31 non d ame     -34.770   6.314  23.763  0.00  0.00     0.036 H 
ATOM     51  H32 non d ame     -33.609   6.518  22.288  0.00  0.00     0.036 H 
BRANCH  49  52
ATOM     52  C22 non d ame     -32.744   5.742  24.070  0.00  0.00     0.018 C 
ATOM     53  H33 non d ame     -32.337   5.084  23.303  0.00  0.00     0.048 H 
ATOM     54  H34 non d ame     -32.091   6.442  24.592  0.00  0.00     0.048 H 
BRANCH  52  55
ATOM     55  C23 non d ame     -33.334   4.809  25.164  0.00  0.00     0.259 C 
ATOM     56  O7  non d ame     -33.414   3.638  24.980  0.00  0.00    -0.265 OA
BRANCH  55  57
ATOM     57  O8  non d ame     -33.790   5.373  26.388  0.00  0.00    -0.317 OA
BRANCH  57  58
ATOM     58  C29 non d ame     -33.641   4.508  27.518  0.00  0.00     0.052 C 
ATOM     59  H47 non d ame     -33.995   3.531  27.191  0.00  0.00     0.082 H 
ATOM     60  H48 non d ame     -32.611   4.632  27.851  0.00  0.00     0.082 H 
BRANCH  58  61
ATOM     61  C35 non d ame     -34.583   5.020  28.640  0.00  0.00    -0.034 A 
ATOM     62  C30 non d ame     -34.133   5.080  29.955  0.00  0.00    -0.075 A 
ATOM     63  C31 non d ame     -34.979   5.539  30.963  0.00  0.00    -0.082 A 
ATOM     64  H49 non d ame     -33.117   4.766  30.196  0.00  0.00     0.084 H 
ATOM     65  C32 non d ame     -36.282   5.939  30.653  0.00  0.00    -0.083 A 
ATOM     66  H50 non d ame     -34.622   5.586  31.993  0.00  0.00     0.083 H 
ATOM     67  C33 non d ame     -36.728   5.874  29.340  0.00  0.00    -0.082 A 
ATOM     68  H51 non d ame     -36.950   6.300  31.434  0.00  0.00     0.083 H 
ATOM     69  C34 non d ame     -35.885   5.418  28.329  0.00  0.00    -0.075 A 
ATOM     70  H52 non d ame     -37.746   6.184  29.101  0.00  0.00     0.083 H 
ATOM     71  H53 non d ame     -36.242   5.371  27.300  0.00  0.00     0.084 H 
ENDBRANCH  58  61
ENDBRANCH  57  58
ENDBRANCH  55  57
ENDBRANCH  52  55
ENDBRANCH  49  52
ENDBRANCH  47  49
BRANCH  47  72
ATOM     72  C24 non d ame     -32.810   8.755  22.597  0.00  0.00    -0.039 C 
ATOM     73  H35 non d ame     -32.787   8.052  21.763  0.00  0.00     0.036 H 
ATOM     74  H36 non d ame     -33.241   9.746  22.461  0.00  0.00     0.036 H 
BRANCH  72  75
ATOM     75  C25 non d ame     -31.297   8.960  23.083  0.00  0.00    -0.001 C 
ATOM     76  C26 non d ame     -30.968  10.565  23.225  0.00  0.00    -0.035 C 
ATOM     77  C27 non d ame     -29.830  10.838  22.543  0.00  0.00     0.085 C 
ATOM     78  H38 non d ame     -31.725  11.149  22.702  0.00  0.00     0.036 H 
ATOM     79  H39 non d ame     -30.710  10.804  24.257  0.00  0.00     0.036 H 
ATOM     80  N5  non d ame     -29.532   9.636  21.680  0.00  0.00    -0.049 N 
ATOM     81  H40 non d ame     -30.072  11.686  21.901  0.00  0.00     0.075 H 
ATOM     82  H41 non d ame     -29.052  10.933  23.300  0.00  0.00     0.075 H 
ATOM     83  C28 non d ame     -30.462   8.443  22.245  0.00  0.00     0.193 C 
ATOM     84  H42 non d ame     -29.840   9.870  20.747  0.00  0.00     0.280 HD
ATOM     85  H43 non d ame     -28.565   9.397  21.848  0.00  0.00     0.280 HD
ATOM     86  H44 non d ame     -30.033   7.649  22.856  0.00  0.00     0.129 H 
ATOM     87  H37 non d ame     -31.047   8.326  23.934  0.00  0.00     0.046 H 
BRANCH  83  88
ATOM     88  O6  non d ame     -31.123   7.780  21.166  0.00  0.00    -0.369 OA
ATOM     89  H45 non d ame     -31.945   8.234  20.966  0.00  0.00     0.212 HD
ENDBRANCH  83  88
ENDBRANCH  72  75
ENDBRANCH  47  72
ENDBRANCH  45  47
ENDBRANCH   1  43
BRANCH   1  90
ATOM     90  C16 non d ame     -33.845   8.559  28.492  0.00  0.00    -0.035 C 
ATOM     91  H21 non d ame     -34.598   7.998  27.940  0.00  0.00     0.037 H 
ATOM     92  H22 non d ame     -33.130   8.034  29.126  0.00  0.00     0.037 H 
BRANCH  90  93
ATOM     93  C17 non d ame     -34.623   9.542  29.424  0.00  0.00    -0.059 C 
ATOM     94  H23 non d ame     -34.251  10.548  29.227  0.00  0.00     0.038 H 
BRANCH  93  95
ATOM     95  C18 non d ame     -36.158   9.537  29.135  0.00  0.00    -0.073 C 
ATOM     96  H24 non d ame     -36.344   9.084  28.162  0.00  0.00     0.028 H 
ATOM     97  H25 non d ame     -36.671   8.963  29.906  0.00  0.00     0.028 H 
ATOM     98  H26 non d ame     -36.531  10.561  29.136  0.00  0.00     0.028 H 
ENDBRANCH  93  95
BRANCH  93  99
ATOM     99  C19 non d ame     -34.345   9.234  30.897  0.00  0.00    -0.073 C 
ATOM    100  H27 non d ame     -33.475   9.802  31.230  0.00  0.00     0.028 H 
ATOM    101  H28 non d ame     -35.211   9.513  31.497  0.00  0.00     0.028 H 
ATOM    102  H29 non d ame     -34.150   8.168  31.015  0.00  0.00     0.028 H 
ENDBRANCH  93  99
ENDBRANCH  90  93
ENDBRANCH   1  90
TORSDOF 26
ENDMDL
MODEL 5
REMARK VINA RESULT:      -6.2      3.072      7.899
REMARK  26 active torsions:
REMARK  status: ('A' for Active; 'I' for Inactive)
REMARK    1  A    between atoms: C2_2  and  C3_3 
REMARK    2  A    between atoms: C4_6  and  C5_7 
REMARK       I    between atoms: C5_7  and  N2_9 
REMARK    3  A    between atoms: N2_9  and  C6_10 
REMARK    4  A    between atoms: C6_10  and  C7_11 
REMARK    5  A    between atoms: C6_10  and  C8_13 
REMARK       I    between atoms: C7_11  and  N3_14 
REMARK    6  A    between atoms: N3_14  and  C9_15 
REMARK    7  A    between atoms: C9_15  and  C10_16 
REMARK    8  A    between atoms: C9_15  and  C11_18 
REMARK       I    between atoms: C10_16  and  N4_21 
REMARK    9  A    between atoms: C11_18  and  C12_19 
REMARK   10  A    between atoms: C11_18  and  C13_20 
REMARK   11  A    between atoms: N4_21  and  C14_22 
REMARK   12  A    between atoms: C14_22  and  C15_23 
REMARK   13  A    between atoms: C14_22  and  C16_25 
REMARK       I    between atoms: C15_23  and  N6_40 
REMARK   14  A    between atoms: C16_25  and  C17_26 
REMARK   15  A    between atoms: C17_26  and  C18_27 
REMARK   16  A    between atoms: C17_26  and  C19_28 
REMARK   17  A    between atoms: C20_29  and  C21_30 
REMARK   18  A    between atoms: C20_29  and  C24_33 
REMARK   19  A    between atoms: C20_29  and  N6_40 
REMARK   20  A    between atoms: C21_30  and  C22_31 
REMARK   21  A    between atoms: C22_31  and  C23_32 
REMARK   22  A    between atoms: C23_32  and  O8_43 
REMARK   23  A    between atoms: C24_33  and  C25_34 
REMARK   24  A    between atoms: C28_38  and  O6_39 
REMARK   25  A    between atoms: C29_42  and  O8_43 
REMARK   26  A    between atoms: C29_42  and  C35_49 
ROOT
ATOM      1  C14 non d ame     -33.387   9.813  24.954  0.00  0.00     0.089 C 
ATOM      2  H20 non d ame     -33.839   8.960  24.446  0.00  0.00     0.087 H 
ENDROOT
BRANCH   1   3
ATOM      3  N4  non d ame     -34.344  10.909  24.904  0.00  0.00    -0.346 N 
ATOM      4  C10 non d ame     -35.824  10.626  24.848  0.00  0.00     0.241 C 
ATOM      5  O4  non d ame     -36.221   9.508  24.841  0.00  0.00    -0.271 OA
ATOM      6  H19 non d ame     -33.985  11.854  24.909  0.00  0.00     0.163 HD
BRANCH   4   7
ATOM      7  C9  non d ame     -36.800  11.773  24.803  0.00  0.00     0.092 C 
ATOM      8  H11 non d ame     -37.350  11.812  25.743  0.00  0.00     0.088 H 
BRANCH   7   9
ATOM      9  N3  non d ame     -36.066  13.035  24.678  0.00  0.00    -0.346 N 
ATOM     10  C7  non d ame     -36.055  13.974  25.773  0.00  0.00     0.240 C 
ATOM     11  O3  non d ame     -36.632  13.730  26.761  0.00  0.00    -0.271 OA
ATOM     12  H10 non d ame     -35.564  13.260  23.830  0.00  0.00     0.163 HD
BRANCH  10  13
ATOM     13  C6  non d ame     -35.274  15.318  25.632  0.00  0.00     0.086 C 
ATOM     14  H6  non d ame     -34.863  15.668  26.579  0.00  0.00     0.086 H 
BRANCH  13  15
ATOM     15  N2  non d ame     -34.146  15.116  24.738  0.00  0.00    -0.343 N 
ATOM     16  C5  non d ame     -32.787  15.368  25.223  0.00  0.00     0.273 C 
ATOM     17  O2  non d ame     -32.613  15.735  26.333  0.00  0.00    -0.266 OA
ATOM     18  H5  non d ame     -34.304  14.805  23.790  0.00  0.00     0.163 HD
BRANCH  16  19
ATOM     19  C4  non d ame     -31.585  15.158  24.289  0.00  0.00     0.154 A 
ATOM     20  C1  non d ame     -31.215  13.951  23.615  0.00  0.00    -0.017 A 
ATOM     21  C2  non d ame     -30.048  14.283  22.890  0.00  0.00     0.077 A 
ATOM     22  H1  non d ame     -31.715  12.983  23.647  0.00  0.00     0.091 H 
ATOM     23  O1  non d ame     -29.789  15.536  23.126  0.00  0.00    -0.218 OA
ATOM     24  N1  non d ame     -30.671  16.068  23.940  0.00  0.00    -0.123 NA
BRANCH  21  25
ATOM     25  C3  non d ame     -29.245  13.347  21.997  0.00  0.00    -0.029 C 
ATOM     26  H2  non d ame     -28.469  13.912  21.483  0.00  0.00     0.036 H 
ATOM     27  H3  non d ame     -28.785  12.570  22.606  0.00  0.00     0.036 H 
ATOM     28  H4  non d ame     -29.907  12.888  21.263  0.00  0.00     0.036 H 
ENDBRANCH  21  25
ENDBRANCH  16  19
ENDBRANCH  13  15
BRANCH  13  29
ATOM     29  C8  non d ame     -36.190  16.379  25.077  0.00  0.00    -0.049 C 
ATOM     30  H7  non d ame     -36.564  16.998  25.892  0.00  0.00     0.030 H 
ATOM     31  H8  non d ame     -35.640  17.000  24.371  0.00  0.00     0.030 H 
ATOM     32  H9  non d ame     -37.029  15.904  24.567  0.00  0.00     0.030 H 
ENDBRANCH  13  29
ENDBRANCH  10  13
ENDBRANCH   7   9
BRANCH   7  33
ATOM     33  C11 non d ame     -37.745  11.601  23.578  0.00  0.00    -0.033 C 
ATOM     34  H12 non d ame     -37.321  10.825  22.942  0.00  0.00     0.042 H 
BRANCH  33  35
ATOM     35  C12 non d ame     -39.164  11.125  24.017  0.00  0.00    -0.071 C 
ATOM     36  H13 non d ame     -39.786  11.992  24.241  0.00  0.00     0.028 H 
ATOM     37  H14 non d ame     -39.620  10.550  23.211  0.00  0.00     0.028 H 
ATOM     38  H15 non d ame     -39.079  10.500  24.906  0.00  0.00     0.028 H 
ENDBRANCH  33  35
BRANCH  33  39
ATOM     39  C13 non d ame     -37.823  12.920  22.743  0.00  0.00    -0.071 C 
ATOM     40  H16 non d ame     -38.308  13.697  23.335  0.00  0.00     0.028 H 
ATOM     41  H17 non d ame     -36.816  13.241  22.476  0.00  0.00     0.028 H 
ATOM     42  H18 non d ame     -38.399  12.742  21.835  0.00  0.00     0.028 H 
ENDBRANCH  33  39
ENDBRANCH   7  33
ENDBRANCH   4   7
ENDBRANCH   1   3
BRANCH   1  43
ATOM     43  C15 non d ame     -33.063   9.506  26.444  0.00  0.00     0.240 C 
ATOM     44  O5  non d ame     -32.340   8.603  26.717  0.00  0.00    -0.271 OA
ATOM     45  N6  non d ame     -33.646  10.344  27.530  0.00  0.00    -0.355 N 
ATOM     46  H46 non d ame     -34.257  11.117  27.310  0.00  0.00     0.162 HD
BRANCH  45  47
ATOM     47  C20 non d ame     -33.326  10.040  28.941  0.00  0.00     0.013 C 
ATOM     48  H30 non d ame     -33.140   8.969  29.020  0.00  0.00     0.072 H 
BRANCH  47  49
ATOM     49  C21 non d ame     -34.500  10.425  29.814  0.00  0.00    -0.038 C 
ATOM     50  H31 non d ame     -34.075  10.981  30.650  0.00  0.00     0.036 H 
ATOM     51  H32 non d ame     -35.217  10.905  29.147  0.00  0.00     0.036 H 
BRANCH  49  52
ATOM     52  C22 non d ame     -35.221   9.203  30.423  0.00  0.00     0.018 C 
ATOM     53  H33 non d ame     -34.437   8.589  30.866  0.00  0.00     0.048 H 
ATOM     54  H34 non d ame     -36.014   9.611  31.051  0.00  0.00     0.048 H 
BRANCH  52  55
ATOM     55  C23 non d ame     -35.926   8.303  29.371  0.00  0.00     0.259 C 
ATOM     56  O7  non d ame     -36.299   8.760  28.339  0.00  0.00    -0.265 OA
BRANCH  55  57
ATOM     57  O8  non d ame     -36.135   6.926  29.660  0.00  0.00    -0.317 OA
BRANCH  57  58
ATOM     58  C29 non d ame     -35.415   6.036  28.803  0.00  0.00     0.052 C 
ATOM     59  H47 non d ame     -36.162   5.360  28.385  0.00  0.00     0.082 H 
ATOM     60  H48 non d ame     -34.827   6.673  28.143  0.00  0.00     0.082 H 
BRANCH  58  61
ATOM     61  C35 non d ame     -34.441   5.208  29.682  0.00  0.00    -0.034 A 
ATOM     62  C30 non d ame     -34.603   5.178  31.064  0.00  0.00    -0.075 A 
ATOM     63  C31 non d ame     -33.728   4.435  31.854  0.00  0.00    -0.082 A 
ATOM     64  H49 non d ame     -35.416   5.739  31.527  0.00  0.00     0.084 H 
ATOM     65  C32 non d ame     -32.686   3.720  31.258  0.00  0.00    -0.083 A 
ATOM     66  H50 non d ame     -33.859   4.413  32.936  0.00  0.00     0.083 H 
ATOM     67  C33 non d ame     -32.526   3.755  29.879  0.00  0.00    -0.082 A 
ATOM     68  H51 non d ame     -31.997   3.136  31.868  0.00  0.00     0.083 H 
ATOM     69  C34 non d ame     -33.399   4.495  29.086  0.00  0.00    -0.075 A 
ATOM     70  H52 non d ame     -31.710   3.198  29.417  0.00  0.00     0.083 H 
ATOM     71  H53 non d ame     -33.268   4.517  28.003  0.00  0.00     0.084 H 
ENDBRANCH  58  61
ENDBRANCH  57  58
ENDBRANCH  55  57
ENDBRANCH  52  55
ENDBRANCH  49  52
ENDBRANCH  47  49
BRANCH  47  72
ATOM     72  C24 non d ame     -32.090  10.826  29.372  0.00  0.00    -0.039 C 
ATOM     73  H35 non d ame     -31.600  10.207  30.124  0.00  0.00     0.036 H 
ATOM     74  H36 non d ame     -31.569  11.077  28.448  0.00  0.00     0.036 H 
BRANCH  72  75
ATOM     75  C25 non d ame     -32.485  12.208  30.082  0.00  0.00    -0.001 C 
ATOM     76  C26 non d ame     -32.431  13.434  28.988  0.00  0.00    -0.035 C 
ATOM     77  C27 non d ame     -31.673  14.437  29.493  0.00  0.00     0.085 C 
ATOM     78  H38 non d ame     -31.880  13.121  28.102  0.00  0.00     0.036 H 
ATOM     79  H39 non d ame     -33.417  13.887  28.884  0.00  0.00     0.036 H 
ATOM     80  N5  non d ame     -30.939  13.877  30.687  0.00  0.00    -0.049 N 
ATOM     81  H40 non d ame     -30.952  14.679  28.713  0.00  0.00     0.075 H 
ATOM     82  H41 non d ame     -32.381  15.192  29.834  0.00  0.00     0.075 H 
ATOM     83  C28 non d ame     -31.674  12.485  31.048  0.00  0.00     0.193 C 
ATOM     84  H42 non d ame     -30.000  13.673  30.376  0.00  0.00     0.280 HD
ATOM     85  H43 non d ame     -31.090  14.526  31.446  0.00  0.00     0.280 HD
ATOM     86  H44 non d ame     -32.351  12.421  31.899  0.00  0.00     0.129 H 
ATOM     87  H37 non d ame     -33.389  12.119  30.684  0.00  0.00     0.046 H 
BRANCH  83  88
ATOM     88  O6  non d ame     -30.706  11.455  31.252  0.00  0.00    -0.369 OA
ATOM     89  H45 non d ame     -31.121  10.706  31.686  0.00  0.00     0.212 HD
ENDBRANCH  83  88
ENDBRANCH  72  75
ENDBRANCH  47  72
ENDBRANCH  45  47
ENDBRANCH   1  43
BRANCH   1  90
ATOM     90  C16 non d ame     -32.117  10.230  24.229  0.00  0.00    -0.035 C 
ATOM     91  H21 non d ame     -32.305  11.245  23.879  0.00  0.00     0.037 H 
ATOM     92  H22 non d ame     -31.307  10.038  24.933  0.00  0.00     0.037 H 
BRANCH  90  93
ATOM     93  C17 non d ame     -31.811   9.375  22.959  0.00  0.00    -0.059 C 
ATOM     94  H23 non d ame     -32.504   9.685  22.177  0.00  0.00     0.038 H 
BRANCH  93  95
ATOM     95  C18 non d ame     -30.360   9.607  22.428  0.00  0.00    -0.073 C 
ATOM     96  H24 non d ame     -29.758  10.074  23.207  0.00  0.00     0.028 H 
ATOM     97  H25 non d ame     -29.917   8.650  22.152  0.00  0.00     0.028 H 
ATOM     98  H26 non d ame     -30.392  10.257  21.554  0.00  0.00     0.028 H 
ENDBRANCH  93  95
BRANCH  93  99
ATOM     99  C19 non d ame     -32.063   7.889  23.226  0.00  0.00    -0.073 C 
ATOM    100  H27 non d ame     -31.932   7.684  24.289  0.00  0.00     0.028 H 
ATOM    101  H28 non d ame     -33.080   7.633  22.929  0.00  0.00     0.028 H 
ATOM    102  H29 non d ame     -31.356   7.291  22.651  0.00  0.00     0.028 H 
ENDBRANCH  93  99
ENDBRANCH  90  93
ENDBRANCH   1  90
TORSDOF 26
ENDMDL
MODEL 6
REMARK VINA RESULT:      -6.2      3.298      7.143
REMARK  26 active torsions:
REMARK  status: ('A' for Active; 'I' for Inactive)
REMARK    1  A    between atoms: C2_2  and  C3_3 
REMARK    2  A    between atoms: C4_6  and  C5_7 
REMARK       I    between atoms: C5_7  and  N2_9 
REMARK    3  A    between atoms: N2_9  and  C6_10 
REMARK    4  A    between atoms: C6_10  and  C7_11 
REMARK    5  A    between atoms: C6_10  and  C8_13 
REMARK       I    between atoms: C7_11  and  N3_14 
REMARK    6  A    between atoms: N3_14  and  C9_15 
REMARK    7  A    between atoms: C9_15  and  C10_16 
REMARK    8  A    between atoms: C9_15  and  C11_18 
REMARK       I    between atoms: C10_16  and  N4_21 
REMARK    9  A    between atoms: C11_18  and  C12_19 
REMARK   10  A    between atoms: C11_18  and  C13_20 
REMARK   11  A    between atoms: N4_21  and  C14_22 
REMARK   12  A    between atoms: C14_22  and  C15_23 
REMARK   13  A    between atoms: C14_22  and  C16_25 
REMARK       I    between atoms: C15_23  and  N6_40 
REMARK   14  A    between atoms: C16_25  and  C17_26 
REMARK   15  A    between atoms: C17_26  and  C18_27 
REMARK   16  A    between atoms: C17_26  and  C19_28 
REMARK   17  A    between atoms: C20_29  and  C21_30 
REMARK   18  A    between atoms: C20_29  and  C24_33 
REMARK   19  A    between atoms: C20_29  and  N6_40 
REMARK   20  A    between atoms: C21_30  and  C22_31 
REMARK   21  A    between atoms: C22_31  and  C23_32 
REMARK   22  A    between atoms: C23_32  and  O8_43 
REMARK   23  A    between atoms: C24_33  and  C25_34 
REMARK   24  A    between atoms: C28_38  and  O6_39 
REMARK   25  A    between atoms: C29_42  and  O8_43 
REMARK   26  A    between atoms: C29_42  and  C35_49 
ROOT
ATOM      1  C14 non d ame     -36.346  13.057  25.827  0.00  0.00     0.089 C 
ATOM      2  H20 non d ame     -37.018  13.546  26.532  0.00  0.00     0.087 H 
ENDROOT
BRANCH   1   3
ATOM      3  N4  non d ame     -35.294  14.006  25.493  0.00  0.00    -0.346 N 
ATOM      4  C10 non d ame     -35.065  15.223  26.354  0.00  0.00     0.241 C 
ATOM      5  O4  non d ame     -35.741  15.418  27.310  0.00  0.00    -0.271 OA
ATOM      6  H19 non d ame     -34.732  13.823  24.674  0.00  0.00     0.163 HD
BRANCH   4   7
ATOM      7  C9  non d ame     -33.969  16.192  25.996  0.00  0.00     0.092 C 
ATOM      8  H11 non d ame     -33.306  16.316  26.853  0.00  0.00     0.088 H 
BRANCH   7   9
ATOM      9  N3  non d ame     -33.164  15.638  24.903  0.00  0.00    -0.346 N 
ATOM     10  C7  non d ame     -31.761  15.959  24.808  0.00  0.00     0.240 C 
ATOM     11  O3  non d ame     -31.264  16.662  25.601  0.00  0.00    -0.271 OA
ATOM     12  H10 non d ame     -33.579  15.032  24.211  0.00  0.00     0.163 HD
BRANCH  10  13
ATOM     13  C6  non d ame     -30.910  15.370  23.640  0.00  0.00     0.086 C 
ATOM     14  H6  non d ame     -29.839  15.400  23.841  0.00  0.00     0.086 H 
BRANCH  13  15
ATOM     15  N2  non d ame     -31.260  13.970  23.461  0.00  0.00    -0.343 N 
ATOM     16  C5  non d ame     -31.138  13.047  24.591  0.00  0.00     0.273 C 
ATOM     17  O2  non d ame     -30.755  13.438  25.638  0.00  0.00    -0.266 OA
ATOM     18  H5  non d ame     -31.584  13.644  22.562  0.00  0.00     0.163 HD
BRANCH  16  19
ATOM     19  C4  non d ame     -31.507  11.565  24.417  0.00  0.00     0.154 A 
ATOM     20  C1  non d ame     -30.934  10.634  23.493  0.00  0.00    -0.017 A 
ATOM     21  C2  non d ame     -31.613   9.419  23.733  0.00  0.00     0.077 A 
ATOM     22  H1  non d ame     -30.147  10.814  22.760  0.00  0.00     0.091 H 
ATOM     23  O1  non d ame     -32.471   9.637  24.686  0.00  0.00    -0.218 OA
ATOM     24  N1  non d ame     -32.428  10.881  25.101  0.00  0.00    -0.123 NA
BRANCH  21  25
ATOM     25  C3  non d ame     -31.382   8.099  23.010  0.00  0.00    -0.029 C 
ATOM     26  H2  non d ame     -32.124   7.371  23.336  0.00  0.00     0.036 H 
ATOM     27  H3  non d ame     -31.472   8.253  21.935  0.00  0.00     0.036 H 
ATOM     28  H4  non d ame     -30.383   7.728  23.241  0.00  0.00     0.036 H 
ENDBRANCH  21  25
ENDBRANCH  16  19
ENDBRANCH  13  15
BRANCH  13  29
ATOM     29  C8  non d ame     -31.189  16.138  22.373  0.00  0.00    -0.049 C 
ATOM     30  H7  non d ame     -32.110  15.770  21.921  0.00  0.00     0.030 H 
ATOM     31  H8  non d ame     -31.298  17.197  22.607  0.00  0.00     0.030 H 
ATOM     32  H9  non d ame     -30.363  16.002  21.676  0.00  0.00     0.030 H 
ENDBRANCH  13  29
ENDBRANCH  10  13
ENDBRANCH   7   9
BRANCH   7  33
ATOM     33  C11 non d ame     -34.598  17.541  25.542  0.00  0.00    -0.033 C 
ATOM     34  H12 non d ame     -34.047  17.882  24.665  0.00  0.00     0.042 H 
BRANCH  33  35
ATOM     35  C12 non d ame     -36.088  17.360  25.118  0.00  0.00    -0.071 C 
ATOM     36  H13 non d ame     -36.132  16.974  24.099  0.00  0.00     0.028 H 
ATOM     37  H14 non d ame     -36.575  16.657  25.794  0.00  0.00     0.028 H 
ATOM     38  H15 non d ame     -36.599  18.321  25.164  0.00  0.00     0.028 H 
ENDBRANCH  33  35
BRANCH  33  39
ATOM     39  C13 non d ame     -34.454  18.628  26.655  0.00  0.00    -0.071 C 
ATOM     40  H16 non d ame     -33.868  18.227  27.482  0.00  0.00     0.028 H 
ATOM     41  H17 non d ame     -33.951  19.505  26.245  0.00  0.00     0.028 H 
ATOM     42  H18 non d ame     -35.442  18.914  27.014  0.00  0.00     0.028 H 
ENDBRANCH  33  39
ENDBRANCH   7  33
ENDBRANCH   4   7
ENDBRANCH   1   3
BRANCH   1  43
ATOM     43  C15 non d ame     -35.688  11.782  26.429  0.00  0.00     0.240 C 
ATOM     44  O5  non d ame     -35.819  10.735  25.882  0.00  0.00    -0.271 OA
ATOM     45  N6  non d ame     -34.889  11.868  27.684  0.00  0.00    -0.355 N 
ATOM     46  H46 non d ame     -34.766  12.753  28.155  0.00  0.00     0.162 HD
BRANCH  45  47
ATOM     47  C20 non d ame     -34.269  10.647  28.243  0.00  0.00     0.013 C 
ATOM     48  H30 non d ame     -34.189   9.914  27.441  0.00  0.00     0.072 H 
BRANCH  47  49
ATOM     49  C21 non d ame     -35.143  10.106  29.352  0.00  0.00    -0.038 C 
ATOM     50  H31 non d ame     -34.844  10.643  30.252  0.00  0.00     0.036 H 
ATOM     51  H32 non d ame     -36.167  10.185  28.984  0.00  0.00     0.036 H 
BRANCH  49  52
ATOM     52  C22 non d ame     -34.895   8.608  29.634  0.00  0.00     0.018 C 
ATOM     53  H33 non d ame     -35.761   8.084  29.233  0.00  0.00     0.048 H 
ATOM     54  H34 non d ame     -33.899   8.395  29.243  0.00  0.00     0.048 H 
BRANCH  52  55
ATOM     55  C23 non d ame     -34.845   8.256  31.147  0.00  0.00     0.259 C 
ATOM     56  O7  non d ame     -34.239   8.940  31.906  0.00  0.00    -0.265 OA
BRANCH  55  57
ATOM     57  O8  non d ame     -35.522   7.096  31.615  0.00  0.00    -0.317 OA
BRANCH  57  58
ATOM     58  C29 non d ame     -35.753   6.109  30.605  0.00  0.00     0.052 C 
ATOM     59  H47 non d ame     -36.613   5.533  30.946  0.00  0.00     0.082 H 
ATOM     60  H48 non d ame     -35.802   6.656  29.664  0.00  0.00     0.082 H 
BRANCH  58  61
ATOM     61  C35 non d ame     -34.518   5.170  30.564  0.00  0.00    -0.034 A 
ATOM     62  C30 non d ame     -33.922   4.856  29.346  0.00  0.00    -0.075 A 
ATOM     63  C31 non d ame     -32.813   4.012  29.308  0.00  0.00    -0.082 A 
ATOM     64  H49 non d ame     -34.324   5.271  28.422  0.00  0.00     0.084 H 
ATOM     65  C32 non d ame     -32.301   3.479  30.495  0.00  0.00    -0.083 A 
ATOM     66  H50 non d ame     -32.347   3.770  28.353  0.00  0.00     0.083 H 
ATOM     67  C33 non d ame     -32.902   3.792  31.707  0.00  0.00    -0.082 A 
ATOM     68  H51 non d ame     -31.434   2.819  30.474  0.00  0.00     0.083 H 
ATOM     69  C34 non d ame     -34.009   4.637  31.749  0.00  0.00    -0.075 A 
ATOM     70  H52 non d ame     -32.501   3.372  32.630  0.00  0.00     0.083 H 
ATOM     71  H53 non d ame     -34.474   4.879  32.705  0.00  0.00     0.084 H 
ENDBRANCH  58  61
ENDBRANCH  57  58
ENDBRANCH  55  57
ENDBRANCH  52  55
ENDBRANCH  49  52
ENDBRANCH  47  49
BRANCH  47  72
ATOM     72  C24 non d ame     -32.886  10.978  28.800  0.00  0.00    -0.039 C 
ATOM     73  H35 non d ame     -32.645  10.163  29.483  0.00  0.00     0.036 H 
ATOM     74  H36 non d ame     -32.258  11.161  27.928  0.00  0.00     0.036 H 
BRANCH  72  75
ATOM     75  C25 non d ame     -32.902  12.328  29.662  0.00  0.00    -0.001 C 
ATOM     76  C26 non d ame     -31.934  13.455  28.956  0.00  0.00    -0.035 C 
ATOM     77  C27 non d ame     -31.079  13.941  29.888  0.00  0.00     0.085 C 
ATOM     78  H38 non d ame     -31.276  12.980  28.229  0.00  0.00     0.036 H 
ATOM     79  H39 non d ame     -32.522  14.327  28.671  0.00  0.00     0.036 H 
ATOM     80  N5  non d ame     -31.153  13.018  31.080  0.00  0.00    -0.049 N 
ATOM     81  H40 non d ame     -30.088  13.864  29.440  0.00  0.00     0.075 H 
ATOM     82  H41 non d ame     -31.477  14.915  30.168  0.00  0.00     0.075 H 
ATOM     83  C28 non d ame     -32.478  12.120  30.864  0.00  0.00     0.193 C 
ATOM     84  H42 non d ame     -30.345  12.415  31.027  0.00  0.00     0.280 HD
ATOM     85  H43 non d ame     -31.292  13.607  31.889  0.00  0.00     0.280 HD
ATOM     86  H44 non d ame     -33.385  12.326  31.433  0.00  0.00     0.129 H 
ATOM     87  H37 non d ame     -33.913  12.638  29.926  0.00  0.00     0.046 H 
BRANCH  83  88
ATOM     88  O6  non d ame     -32.183  10.742  31.101  0.00  0.00    -0.369 OA
ATOM     89  H45 non d ame     -32.955  10.210  30.894  0.00  0.00     0.212 HD
ENDBRANCH  83  88
ENDBRANCH  72  75
ENDBRANCH  47  72
ENDBRANCH  45  47
ENDBRANCH   1  43
BRANCH   1  90
ATOM     90  C16 non d ame     -37.105  12.692  24.561  0.00  0.00    -0.035 C 
ATOM     91  H21 non d ame     -36.407  12.104  23.965  0.00  0.00     0.037 H 
ATOM     92  H22 non d ame     -38.039  12.245  24.904  0.00  0.00     0.037 H 
BRANCH  90  93
ATOM     93  C17 non d ame     -37.499  13.926  23.689  0.00  0.00    -0.059 C 
ATOM     94  H23 non d ame     -36.643  14.600  23.664  0.00  0.00     0.038 H 
BRANCH  93  95
ATOM     95  C18 non d ame     -37.832  13.524  22.216  0.00  0.00    -0.073 C 
ATOM     96  H24 non d ame     -37.331  14.206  21.531  0.00  0.00     0.028 H 
ATOM     97  H25 non d ame     -37.489  12.506  22.030  0.00  0.00     0.028 H 
ATOM     98  H26 non d ame     -38.909  13.578  22.060  0.00  0.00     0.028 H 
ENDBRANCH  93  95
BRANCH  93  99
ATOM     99  C19 non d ame     -38.664  14.692  24.321  0.00  0.00    -0.073 C 
ATOM    100  H27 non d ame     -39.400  14.933  23.553  0.00  0.00     0.028 H 
ATOM    101  H28 non d ame     -39.130  14.076  25.090  0.00  0.00     0.028 H 
ATOM    102  H29 non d ame     -38.292  15.613  24.770  0.00  0.00     0.028 H 
ENDBRANCH  93  99
ENDBRANCH  90  93
ENDBRANCH   1  90
TORSDOF 26
ENDMDL
MODEL 7
REMARK VINA RESULT:      -6.1      2.506      6.236
REMARK  26 active torsions:
REMARK  status: ('A' for Active; 'I' for Inactive)
REMARK    1  A    between atoms: C2_2  and  C3_3 
REMARK    2  A    between atoms: C4_6  and  C5_7 
REMARK       I    between atoms: C5_7  and  N2_9 
REMARK    3  A    between atoms: N2_9  and  C6_10 
REMARK    4  A    between atoms: C6_10  and  C7_11 
REMARK    5  A    between atoms: C6_10  and  C8_13 
REMARK       I    between atoms: C7_11  and  N3_14 
REMARK    6  A    between atoms: N3_14  and  C9_15 
REMARK    7  A    between atoms: C9_15  and  C10_16 
REMARK    8  A    between atoms: C9_15  and  C11_18 
REMARK       I    between atoms: C10_16  and  N4_21 
REMARK    9  A    between atoms: C11_18  and  C12_19 
REMARK   10  A    between atoms: C11_18  and  C13_20 
REMARK   11  A    between atoms: N4_21  and  C14_22 
REMARK   12  A    between atoms: C14_22  and  C15_23 
REMARK   13  A    between atoms: C14_22  and  C16_25 
REMARK       I    between atoms: C15_23  and  N6_40 
REMARK   14  A    between atoms: C16_25  and  C17_26 
REMARK   15  A    between atoms: C17_26  and  C18_27 
REMARK   16  A    between atoms: C17_26  and  C19_28 
REMARK   17  A    between atoms: C20_29  and  C21_30 
REMARK   18  A    between atoms: C20_29  and  C24_33 
REMARK   19  A    between atoms: C20_29  and  N6_40 
REMARK   20  A    between atoms: C21_30  and  C22_31 
REMARK   21  A    between atoms: C22_31  and  C23_32 
REMARK   22  A    between atoms: C23_32  and  O8_43 
REMARK   23  A    between atoms: C24_33  and  C25_34 
REMARK   24  A    between atoms: C28_38  and  O6_39 
REMARK   25  A    between atoms: C29_42  and  O8_43 
REMARK   26  A    between atoms: C29_42  and  C35_49 
ROOT
ATOM      1  C14 non d ame     -36.643  13.789  26.712  0.00  0.00     0.089 C 
ATOM      2  H20 non d ame     -37.147  13.911  27.671  0.00  0.00     0.087 H 
ENDROOT
BRANCH   1   3
ATOM      3  N4  non d ame     -36.299  15.116  26.225  0.00  0.00    -0.346 N 
ATOM      4  C10 non d ame     -37.020  16.331  26.753  0.00  0.00     0.241 C 
ATOM      5  O4  non d ame     -37.875  16.215  27.568  0.00  0.00    -0.271 OA
ATOM      6  H19 non d ame     -35.570  15.194  25.530  0.00  0.00     0.163 HD
BRANCH   4   7
ATOM      7  C9  non d ame     -36.647  17.698  26.242  0.00  0.00     0.092 C 
ATOM      8  H11 non d ame     -37.060  18.455  26.909  0.00  0.00     0.088 H 
BRANCH   7   9
ATOM      9  N3  non d ame     -35.189  17.849  26.265  0.00  0.00    -0.346 N 
ATOM     10  C7  non d ame     -34.516  18.158  27.502  0.00  0.00     0.240 C 
ATOM     11  O3  non d ame     -35.132  18.290  28.489  0.00  0.00    -0.271 OA
ATOM     12  H10 non d ame     -34.645  17.739  25.421  0.00  0.00     0.163 HD
BRANCH  10  13
ATOM     13  C6  non d ame     -32.964  18.319  27.519  0.00  0.00     0.086 C 
ATOM     14  H6  non d ame     -32.497  17.811  28.363  0.00  0.00     0.086 H 
BRANCH  13  15
ATOM     15  N2  non d ame     -32.414  17.719  26.315  0.00  0.00    -0.343 N 
ATOM     16  C5  non d ame     -32.019  16.308  26.329  0.00  0.00     0.273 C 
ATOM     17  O2  non d ame     -32.145  15.667  27.314  0.00  0.00    -0.266 OA
ATOM     18  H5  non d ame     -32.308  18.275  25.479  0.00  0.00     0.163 HD
BRANCH  16  19
ATOM     19  C4  non d ame     -31.438  15.660  25.063  0.00  0.00     0.154 A 
ATOM     20  C1  non d ame     -31.120  14.278  24.867  0.00  0.00    -0.017 A 
ATOM     21  C2  non d ame     -30.622  14.204  23.547  0.00  0.00     0.077 A 
ATOM     22  H1  non d ame     -31.234  13.456  25.574  0.00  0.00     0.091 H 
ATOM     23  O1  non d ame     -30.655  15.406  23.052  0.00  0.00    -0.218 OA
ATOM     24  N1  non d ame     -31.127  16.273  23.917  0.00  0.00    -0.123 NA
BRANCH  21  25
ATOM     25  C3  non d ame     -30.137  12.947  22.836  0.00  0.00    -0.029 C 
ATOM     26  H2  non d ame     -30.133  13.116  21.760  0.00  0.00     0.036 H 
ATOM     27  H3  non d ame     -29.126  12.709  23.169  0.00  0.00     0.036 H 
ATOM     28  H4  non d ame     -30.802  12.117  23.072  0.00  0.00     0.036 H 
ENDBRANCH  21  25
ENDBRANCH  16  19
ENDBRANCH  13  15
BRANCH  13  29
ATOM     29  C8  non d ame     -32.609  19.783  27.575  0.00  0.00    -0.049 C 
ATOM     30  H7  non d ame     -33.522  20.379  27.578  0.00  0.00     0.030 H 
ATOM     31  H8  non d ame     -32.041  19.985  28.482  0.00  0.00     0.030 H 
ATOM     32  H9  non d ame     -32.008  20.045  26.703  0.00  0.00     0.030 H 
ENDBRANCH  13  29
ENDBRANCH  10  13
ENDBRANCH   7   9
BRANCH   7  33
ATOM     33  C11 non d ame     -37.161  17.863  24.781  0.00  0.00    -0.033 C 
ATOM     34  H12 non d ame     -36.543  17.231  24.143  0.00  0.00     0.042 H 
BRANCH  33  35
ATOM     35  C12 non d ame     -38.636  17.376  24.639  0.00  0.00    -0.071 C 
ATOM     36  H13 non d ame     -38.653  16.416  24.123  0.00  0.00     0.028 H 
ATOM     37  H14 non d ame     -39.079  17.266  25.628  0.00  0.00     0.028 H 
ATOM     38  H15 non d ame     -39.206  18.106  24.064  0.00  0.00     0.028 H 
ENDBRANCH  33  35
BRANCH  33  39
ATOM     39  C13 non d ame     -37.003  19.340  24.297  0.00  0.00    -0.071 C 
ATOM     40  H16 non d ame     -36.088  19.763  24.712  0.00  0.00     0.028 H 
ATOM     41  H17 non d ame     -36.951  19.362  23.208  0.00  0.00     0.028 H 
ATOM     42  H18 non d ame     -37.859  19.926  24.631  0.00  0.00     0.028 H 
ENDBRANCH  33  39
ENDBRANCH   7  33
ENDBRANCH   4   7
ENDBRANCH   1   3
BRANCH   1  43
ATOM     43  C15 non d ame     -35.336  12.954  26.839  0.00  0.00     0.240 C 
ATOM     44  O5  non d ame     -34.344  13.324  26.299  0.00  0.00    -0.271 OA
ATOM     45  N6  non d ame     -35.319  11.698  27.641  0.00  0.00    -0.355 N 
ATOM     46  H46 non d ame     -36.154  11.376  28.109  0.00  0.00     0.162 HD
BRANCH  45  47
ATOM     47  C20 non d ame     -34.069  10.917  27.753  0.00  0.00     0.013 C 
ATOM     48  H30 non d ame     -33.304  11.421  27.163  0.00  0.00     0.072 H 
BRANCH  47  49
ATOM     49  C21 non d ame     -34.300   9.523  27.214  0.00  0.00    -0.038 C 
ATOM     50  H31 non d ame     -35.350   9.302  27.409  0.00  0.00     0.036 H 
ATOM     51  H32 non d ame     -33.927   9.538  26.190  0.00  0.00     0.036 H 
BRANCH  49  52
ATOM     52  C22 non d ame     -33.482   8.448  27.962  0.00  0.00     0.018 C 
ATOM     53  H33 non d ame     -32.551   8.345  27.406  0.00  0.00     0.048 H 
ATOM     54  H34 non d ame     -33.462   8.764  29.005  0.00  0.00     0.048 H 
BRANCH  52  55
ATOM     55  C23 non d ame     -34.142   7.041  27.955  0.00  0.00     0.259 C 
ATOM     56  O7  non d ame     -34.411   6.506  26.928  0.00  0.00    -0.265 OA
BRANCH  55  57
ATOM     57  O8  non d ame     -34.435   6.402  29.191  0.00  0.00    -0.317 OA
BRANCH  57  58
ATOM     58  C29 non d ame     -35.804   6.508  29.592  0.00  0.00     0.052 C 
ATOM     59  H47 non d ame     -36.375   6.600  28.669  0.00  0.00     0.082 H 
ATOM     60  H48 non d ame     -35.981   5.667  30.262  0.00  0.00     0.082 H 
BRANCH  58  61
ATOM     61  C35 non d ame     -35.965   7.822  30.402  0.00  0.00    -0.034 A 
ATOM     62  C30 non d ame     -36.791   8.836  29.928  0.00  0.00    -0.075 A 
ATOM     63  C31 non d ame     -36.935  10.017  30.655  0.00  0.00    -0.082 A 
ATOM     64  H49 non d ame     -37.324   8.706  28.986  0.00  0.00     0.084 H 
ATOM     65  C32 non d ame     -36.248  10.182  31.860  0.00  0.00    -0.083 A 
ATOM     66  H50 non d ame     -37.585  10.809  30.281  0.00  0.00     0.083 H 
ATOM     67  C33 non d ame     -35.422   9.169  32.328  0.00  0.00    -0.082 A 
ATOM     68  H51 non d ame     -36.356  11.102  32.436  0.00  0.00     0.083 H 
ATOM     69  C34 non d ame     -35.276   7.987  31.606  0.00  0.00    -0.075 A 
ATOM     70  H52 non d ame     -34.885   9.302  33.268  0.00  0.00     0.083 H 
ATOM     71  H53 non d ame     -34.627   7.195  31.980  0.00  0.00     0.084 H 
ENDBRANCH  58  61
ENDBRANCH  57  58
ENDBRANCH  55  57
ENDBRANCH  52  55
ENDBRANCH  49  52
ENDBRANCH  47  49
BRANCH  47  72
ATOM     72  C24 non d ame     -33.641  10.833  29.217  0.00  0.00    -0.039 C 
ATOM     73  H35 non d ame     -34.569  10.799  29.789  0.00  0.00     0.036 H 
ATOM     74  H36 non d ame     -32.940  10.000  29.267  0.00  0.00     0.036 H 
BRANCH  72  75
ATOM     75  C25 non d ame     -32.849  12.146  29.679  0.00  0.00    -0.001 C 
ATOM     76  C26 non d ame     -31.704  12.531  28.563  0.00  0.00    -0.035 C 
ATOM     77  C27 non d ame     -30.516  12.693  29.194  0.00  0.00     0.085 C 
ATOM     78  H38 non d ame     -31.527  11.684  27.901  0.00  0.00     0.036 H 
ATOM     79  H39 non d ame     -31.906  13.517  28.144  0.00  0.00     0.036 H 
ATOM     80  N5  non d ame     -30.677  12.136  30.587  0.00  0.00    -0.049 N 
ATOM     81  H40 non d ame     -29.807  12.076  28.643  0.00  0.00     0.075 H 
ATOM     82  H41 non d ame     -30.365  13.770  29.258  0.00  0.00     0.075 H 
ATOM     83  C28 non d ame     -32.266  11.965  30.817  0.00  0.00     0.193 C 
ATOM     84  H42 non d ame     -30.253  11.219  30.580  0.00  0.00     0.280 HD
ATOM     85  H43 non d ame     -30.335  12.845  31.220  0.00  0.00     0.280 HD
ATOM     86  H44 non d ame     -32.815  12.675  31.436  0.00  0.00     0.129 H 
ATOM     87  H37 non d ame     -33.521  12.944  29.995  0.00  0.00     0.046 H 
BRANCH  83  88
ATOM     88  O6  non d ame     -32.549  10.678  31.368  0.00  0.00    -0.369 OA
ATOM     89  H45 non d ame     -33.496  10.587  31.498  0.00  0.00     0.212 HD
ENDBRANCH  83  88
ENDBRANCH  72  75
ENDBRANCH  47  72
ENDBRANCH  45  47
ENDBRANCH   1  43
BRANCH   1  90
ATOM     90  C16 non d ame     -37.580  13.123  25.718  0.00  0.00    -0.035 C 
ATOM     91  H21 non d ame     -37.867  12.178  26.179  0.00  0.00     0.037 H 
ATOM     92  H22 non d ame     -38.340  13.871  25.492  0.00  0.00     0.037 H 
BRANCH  90  93
ATOM     93  C17 non d ame     -36.899  12.761  24.360  0.00  0.00    -0.059 C 
ATOM     94  H23 non d ame     -35.842  13.012  24.443  0.00  0.00     0.038 H 
BRANCH  93  95
ATOM     95  C18 non d ame     -37.003  11.236  24.036  0.00  0.00    -0.073 C 
ATOM     96  H24 non d ame     -37.122  11.099  22.962  0.00  0.00     0.028 H 
ATOM     97  H25 non d ame     -36.096  10.731  24.368  0.00  0.00     0.028 H 
ATOM     98  H26 non d ame     -37.864  10.813  24.554  0.00  0.00     0.028 H 
ENDBRANCH  93  95
BRANCH  93  99
ATOM     99  C19 non d ame     -37.477  13.600  23.218  0.00  0.00    -0.073 C 
ATOM    100  H27 non d ame     -37.950  14.494  23.626  0.00  0.00     0.028 H 
ATOM    101  H28 non d ame     -36.675  13.893  22.539  0.00  0.00     0.028 H 
ATOM    102  H29 non d ame     -38.216  13.014  22.673  0.00  0.00     0.028 H 
ENDBRANCH  93  99
ENDBRANCH  90  93
ENDBRANCH   1  90
TORSDOF 26
ENDMDL
MODEL 8
REMARK VINA RESULT:      -6.0      3.129      6.484
REMARK  26 active torsions:
REMARK  status: ('A' for Active; 'I' for Inactive)
REMARK    1  A    between atoms: C2_2  and  C3_3 
REMARK    2  A    between atoms: C4_6  and  C5_7 
REMARK       I    between atoms: C5_7  and  N2_9 
REMARK    3  A    between atoms: N2_9  and  C6_10 
REMARK    4  A    between atoms: C6_10  and  C7_11 
REMARK    5  A    between atoms: C6_10  and  C8_13 
REMARK       I    between atoms: C7_11  and  N3_14 
REMARK    6  A    between atoms: N3_14  and  C9_15 
REMARK    7  A    between atoms: C9_15  and  C10_16 
REMARK    8  A    between atoms: C9_15  and  C11_18 
REMARK       I    between atoms: C10_16  and  N4_21 
REMARK    9  A    between atoms: C11_18  and  C12_19 
REMARK   10  A    between atoms: C11_18  and  C13_20 
REMARK   11  A    between atoms: N4_21  and  C14_22 
REMARK   12  A    between atoms: C14_22  and  C15_23 
REMARK   13  A    between atoms: C14_22  and  C16_25 
REMARK       I    between atoms: C15_23  and  N6_40 
REMARK   14  A    between atoms: C16_25  and  C17_26 
REMARK   15  A    between atoms: C17_26  and  C18_27 
REMARK   16  A    between atoms: C17_26  and  C19_28 
REMARK   17  A    between atoms: C20_29  and  C21_30 
REMARK   18  A    between atoms: C20_29  and  C24_33 
REMARK   19  A    between atoms: C20_29  and  N6_40 
REMARK   20  A    between atoms: C21_30  and  C22_31 
REMARK   21  A    between atoms: C22_31  and  C23_32 
REMARK   22  A    between atoms: C23_32  and  O8_43 
REMARK   23  A    between atoms: C24_33  and  C25_34 
REMARK   24  A    between atoms: C28_38  and  O6_39 
REMARK   25  A    between atoms: C29_42  and  O8_43 
REMARK   26  A    between atoms: C29_42  and  C35_49 
ROOT
ATOM      1  C14 non d ame     -36.567  15.705  26.692  0.00  0.00     0.089 C 
ATOM      2  H20 non d ame     -37.102  16.103  27.555  0.00  0.00     0.087 H 
ENDROOT
BRANCH   1   3
ATOM      3  N4  non d ame     -35.144  15.892  26.935  0.00  0.00    -0.346 N 
ATOM      4  C10 non d ame     -34.663  17.012  27.822  0.00  0.00     0.241 C 
ATOM      5  O4  non d ame     -35.440  17.753  28.328  0.00  0.00    -0.271 OA
ATOM      6  H19 non d ame     -34.499  15.252  26.493  0.00  0.00     0.163 HD
BRANCH   4   7
ATOM      7  C9  non d ame     -33.187  17.187  28.067  0.00  0.00     0.092 C 
ATOM      8  H11 non d ame     -33.042  17.811  28.948  0.00  0.00     0.088 H 
BRANCH   7   9
ATOM      9  N3  non d ame     -32.581  15.883  28.353  0.00  0.00    -0.346 N 
ATOM     10  C7  non d ame     -31.772  15.709  29.534  0.00  0.00     0.240 C 
ATOM     11  O3  non d ame     -31.597  16.607  30.264  0.00  0.00    -0.271 OA
ATOM     12  H10 non d ame     -32.722  15.099  27.732  0.00  0.00     0.163 HD
BRANCH  10  13
ATOM     13  C6  non d ame     -31.127  14.320  29.832  0.00  0.00     0.086 C 
ATOM     14  H6  non d ame     -30.538  14.316  30.749  0.00  0.00     0.086 H 
BRANCH  13  15
ATOM     15  N2  non d ame     -32.184  13.338  30.013  0.00  0.00    -0.343 N 
ATOM     16  C5  non d ame     -31.881  12.065  30.670  0.00  0.00     0.273 C 
ATOM     17  O2  non d ame     -30.784  11.838  31.046  0.00  0.00    -0.266 OA
ATOM     18  H5  non d ame     -33.118  13.539  29.685  0.00  0.00     0.163 HD
BRANCH  16  19
ATOM     19  C4  non d ame     -32.989  11.019  30.869  0.00  0.00     0.154 A 
ATOM     20  C1  non d ame     -34.049  11.054  31.829  0.00  0.00    -0.017 A 
ATOM     21  C2  non d ame     -34.787   9.871  31.599  0.00  0.00     0.077 A 
ATOM     22  H1  non d ame     -34.252  11.821  32.577  0.00  0.00     0.091 H 
ATOM     23  O1  non d ame     -34.210   9.239  30.620  0.00  0.00    -0.218 OA
ATOM     24  N1  non d ame     -33.159   9.889  30.177  0.00  0.00    -0.123 NA
BRANCH  21  25
ATOM     25  C3  non d ame     -36.028   9.422  32.359  0.00  0.00    -0.029 C 
ATOM     26  H2  non d ame     -35.985   8.345  32.520  0.00  0.00     0.036 H 
ATOM     27  H3  non d ame     -36.070   9.931  33.321  0.00  0.00     0.036 H 
ATOM     28  H4  non d ame     -36.918   9.667  31.779  0.00  0.00     0.036 H 
ENDBRANCH  21  25
ENDBRANCH  16  19
ENDBRANCH  13  15
BRANCH  13  29
ATOM     29  C8  non d ame     -30.240  13.918  28.682  0.00  0.00    -0.049 C 
ATOM     30  H7  non d ame     -30.008  12.855  28.756  0.00  0.00     0.030 H 
ATOM     31  H8  non d ame     -30.754  14.112  27.741  0.00  0.00     0.030 H 
ATOM     32  H9  non d ame     -29.315  14.494  28.717  0.00  0.00     0.030 H 
ENDBRANCH  13  29
ENDBRANCH  10  13
ENDBRANCH   7   9
BRANCH   7  33
ATOM     33  C11 non d ame     -32.521  17.799  26.800  0.00  0.00    -0.033 C 
ATOM     34  H12 non d ame     -31.605  18.297  27.118  0.00  0.00     0.042 H 
BRANCH  33  35
ATOM     35  C12 non d ame     -32.120  16.690  25.777  0.00  0.00    -0.071 C 
ATOM     36  H13 non d ame     -31.871  17.151  24.821  0.00  0.00     0.028 H 
ATOM     37  H14 non d ame     -31.256  16.144  26.153  0.00  0.00     0.028 H 
ATOM     38  H15 non d ame     -32.955  16.002  25.641  0.00  0.00     0.028 H 
ENDBRANCH  33  35
BRANCH  33  39
ATOM     39  C13 non d ame     -33.449  18.869  26.141  0.00  0.00    -0.071 C 
ATOM     40  H16 non d ame     -33.552  19.723  26.811  0.00  0.00     0.028 H 
ATOM     41  H17 non d ame     -33.012  19.197  25.197  0.00  0.00     0.028 H 
ATOM     42  H18 non d ame     -34.430  18.433  25.953  0.00  0.00     0.028 H 
ENDBRANCH  33  39
ENDBRANCH   7  33
ENDBRANCH   4   7
ENDBRANCH   1   3
BRANCH   1  43
ATOM     43  C15 non d ame     -36.839  14.188  26.481  0.00  0.00     0.240 C 
ATOM     44  O5  non d ame     -37.846  13.835  25.959  0.00  0.00    -0.271 OA
ATOM     45  N6  non d ame     -35.838  13.175  26.922  0.00  0.00    -0.355 N 
ATOM     46  H46 non d ame     -34.976  13.463  27.362  0.00  0.00     0.162 HD
BRANCH  45  47
ATOM     47  C20 non d ame     -36.111  11.737  26.712  0.00  0.00     0.013 C 
ATOM     48  H30 non d ame     -37.041  11.650  26.151  0.00  0.00     0.072 H 
BRANCH  47  49
ATOM     49  C21 non d ame     -36.251  11.054  28.054  0.00  0.00    -0.038 C 
ATOM     50  H31 non d ame     -35.291  11.185  28.553  0.00  0.00     0.036 H 
ATOM     51  H32 non d ame     -37.158  11.464  28.499  0.00  0.00     0.036 H 
BRANCH  49  52
ATOM     52  C22 non d ame     -36.475   9.531  27.931  0.00  0.00     0.018 C 
ATOM     53  H33 non d ame     -36.970   9.382  26.972  0.00  0.00     0.048 H 
ATOM     54  H34 non d ame     -35.504   9.073  28.121  0.00  0.00     0.048 H 
BRANCH  52  55
ATOM     55  C23 non d ame     -37.439   8.952  29.004  0.00  0.00     0.259 C 
ATOM     56  O7  non d ame     -38.163   9.669  29.615  0.00  0.00    -0.265 OA
BRANCH  55  57
ATOM     57  O8  non d ame     -37.439   7.552  29.257  0.00  0.00    -0.317 OA
BRANCH  57  58
ATOM     58  C29 non d ame     -36.462   6.825  28.508  0.00  0.00     0.052 C 
ATOM     59  H47 non d ame     -37.021   6.094  27.924  0.00  0.00     0.082 H 
ATOM     60  H48 non d ame     -35.857   7.578  28.002  0.00  0.00     0.082 H 
BRANCH  58  61
ATOM     61  C35 non d ame     -35.557   6.063  29.513  0.00  0.00    -0.034 A 
ATOM     62  C30 non d ame     -34.489   5.301  29.050  0.00  0.00    -0.075 A 
ATOM     63  C31 non d ame     -33.677   4.616  29.952  0.00  0.00    -0.082 A 
ATOM     64  H49 non d ame     -34.288   5.241  27.980  0.00  0.00     0.084 H 
ATOM     65  C32 non d ame     -33.938   4.693  31.323  0.00  0.00    -0.083 A 
ATOM     66  H50 non d ame     -32.839   4.022  29.586  0.00  0.00     0.083 H 
ATOM     67  C33 non d ame     -35.007   5.451  31.780  0.00  0.00    -0.082 A 
ATOM     68  H51 non d ame     -33.307   4.161  32.036  0.00  0.00     0.083 H 
ATOM     69  C34 non d ame     -35.820   6.139  30.882  0.00  0.00    -0.075 A 
ATOM     70  H52 non d ame     -35.210   5.507  32.850  0.00  0.00     0.083 H 
ATOM     71  H53 non d ame     -36.658   6.733  31.248  0.00  0.00     0.084 H 
ENDBRANCH  58  61
ENDBRANCH  57  58
ENDBRANCH  55  57
ENDBRANCH  52  55
ENDBRANCH  49  52
ENDBRANCH  47  49
BRANCH  47  72
ATOM     72  C24 non d ame     -34.960  11.101  25.935  0.00  0.00    -0.039 C 
ATOM     73  H35 non d ame     -35.190  10.036  25.895  0.00  0.00     0.036 H 
ATOM     74  H36 non d ame     -34.881  11.675  25.011  0.00  0.00     0.036 H 
BRANCH  72  75
ATOM     75  C25 non d ame     -33.566  11.255  26.708  0.00  0.00    -0.001 C 
ATOM     76  C26 non d ame     -32.648  12.410  25.982  0.00  0.00    -0.035 C 
ATOM     77  C27 non d ame     -31.418  11.899  25.735  0.00  0.00     0.085 C 
ATOM     78  H38 non d ame     -33.038  12.627  24.988  0.00  0.00     0.036 H 
ATOM     79  H39 non d ame     -32.450  13.224  26.680  0.00  0.00     0.036 H 
ATOM     80  N5  non d ame     -31.514  10.405  25.927  0.00  0.00    -0.049 N 
ATOM     81  H40 non d ame     -31.220  12.111  24.684  0.00  0.00     0.075 H 
ATOM     82  H41 non d ame     -30.770  12.315  26.506  0.00  0.00     0.075 H 
ATOM     83  C28 non d ame     -32.905  10.146  26.705  0.00  0.00     0.193 C 
ATOM     84  H42 non d ame     -31.583  10.001  25.003  0.00  0.00     0.280 HD
ATOM     85  H43 non d ame     -30.751  10.145  26.536  0.00  0.00     0.280 HD
ATOM     86  H44 non d ame     -32.908   9.911  27.770  0.00  0.00     0.129 H 
ATOM     87  H37 non d ame     -33.698  11.333  27.787  0.00  0.00     0.046 H 
BRANCH  83  88
ATOM     88  O6  non d ame     -33.631   9.087  26.078  0.00  0.00    -0.369 OA
ATOM     89  H45 non d ame     -33.015   8.481  25.659  0.00  0.00     0.212 HD
ENDBRANCH  83  88
ENDBRANCH  72  75
ENDBRANCH  47  72
ENDBRANCH  45  47
ENDBRANCH   1  43
BRANCH   1  90
ATOM     90  C16 non d ame     -36.962  16.474  25.442  0.00  0.00    -0.035 C 
ATOM     91  H21 non d ame     -36.140  17.164  25.255  0.00  0.00     0.037 H 
ATOM     92  H22 non d ame     -37.214  15.714  24.702  0.00  0.00     0.037 H 
BRANCH  90  93
ATOM     93  C17 non d ame     -38.241  17.353  25.624  0.00  0.00    -0.059 C 
ATOM     94  H23 non d ame     -37.976  18.379  25.371  0.00  0.00     0.038 H 
BRANCH  93  95
ATOM     95  C18 non d ame     -39.400  16.911  24.674  0.00  0.00    -0.073 C 
ATOM     96  H24 non d ame     -40.354  17.231  25.091  0.00  0.00     0.028 H 
ATOM     97  H25 non d ame     -39.261  17.369  23.695  0.00  0.00     0.028 H 
ATOM     98  H26 non d ame     -39.392  15.826  24.572  0.00  0.00     0.028 H 
ENDBRANCH  93  95
BRANCH  93  99
ATOM     99  C19 non d ame     -38.703  17.349  27.084  0.00  0.00    -0.073 C 
ATOM    100  H27 non d ame     -38.108  18.063  27.655  0.00  0.00     0.028 H 
ATOM    101  H28 non d ame     -39.755  17.631  27.133  0.00  0.00     0.028 H 
ATOM    102  H29 non d ame     -38.574  16.352  27.503  0.00  0.00     0.028 H 
ENDBRANCH  93  99
ENDBRANCH  90  93
ENDBRANCH   1  90
TORSDOF 26
ENDMDL
MODEL 9
REMARK VINA RESULT:      -5.9      3.975      7.769
REMARK  26 active torsions:
REMARK  status: ('A' for Active; 'I' for Inactive)
REMARK    1  A    between atoms: C2_2  and  C3_3 
REMARK    2  A    between atoms: C4_6  and  C5_7 
REMARK       I    between atoms: C5_7  and  N2_9 
REMARK    3  A    between atoms: N2_9  and  C6_10 
REMARK    4  A    between atoms: C6_10  and  C7_11 
REMARK    5  A    between atoms: C6_10  and  C8_13 
REMARK       I    between atoms: C7_11  and  N3_14 
REMARK    6  A    between atoms: N3_14  and  C9_15 
REMARK    7  A    between atoms: C9_15  and  C10_16 
REMARK    8  A    between atoms: C9_15  and  C11_18 
REMARK       I    between atoms: C10_16  and  N4_21 
REMARK    9  A    between atoms: C11_18  and  C12_19 
REMARK   10  A    between atoms: C11_18  and  C13_20 
REMARK   11  A    between atoms: N4_21  and  C14_22 
REMARK   12  A    between atoms: C14_22  and  C15_23 
REMARK   13  A    between atoms: C14_22  and  C16_25 
REMARK       I    between atoms: C15_23  and  N6_40 
REMARK   14  A    between atoms: C16_25  and  C17_26 
REMARK   15  A    between atoms: C17_26  and  C18_27 
REMARK   16  A    between atoms: C17_26  and  C19_28 
REMARK   17  A    between atoms: C20_29  and  C21_30 
REMARK   18  A    between atoms: C20_29  and  C24_33 
REMARK   19  A    between atoms: C20_29  and  N6_40 
REMARK   20  A    between atoms: C21_30  and  C22_31 
REMARK   21  A    between atoms: C22_31  and  C23_32 
REMARK   22  A    between atoms: C23_32  and  O8_43 
REMARK   23  A    between atoms: C24_33  and  C25_34 
REMARK   24  A    between atoms: C28_38  and  O6_39 
REMARK   25  A    between atoms: C29_42  and  O8_43 
REMARK   26  A    between atoms: C29_42  and  C35_49 
ROOT
ATOM      1  C14 non d ame     -35.141   7.787  30.309  0.00  0.00     0.089 C 
ATOM      2  H20 non d ame     -35.026   7.972  31.377  0.00  0.00     0.087 H 
ENDROOT
BRANCH   1   3
ATOM      3  N4  non d ame     -34.227   8.677  29.609  0.00  0.00    -0.346 N 
ATOM      4  C10 non d ame     -33.589   9.836  30.332  0.00  0.00     0.241 C 
ATOM      5  O4  non d ame     -33.829  10.035  31.477  0.00  0.00    -0.271 OA
ATOM      6  H19 non d ame     -34.037   8.492  28.634  0.00  0.00     0.163 HD
BRANCH   4   7
ATOM      7  C9  non d ame     -32.640  10.744  29.594  0.00  0.00     0.092 C 
ATOM      8  H11 non d ame     -31.774  10.168  29.267  0.00  0.00     0.088 H 
BRANCH   7   9
ATOM      9  N3  non d ame     -33.296  11.260  28.389  0.00  0.00    -0.346 N 
ATOM     10  C7  non d ame     -33.041  10.645  27.109  0.00  0.00     0.240 C 
ATOM     11  O3  non d ame     -32.309   9.735  27.031  0.00  0.00    -0.271 OA
ATOM     12  H10 non d ame     -33.928  12.046  28.440  0.00  0.00     0.163 HD
BRANCH  10  13
ATOM     13  C6  non d ame     -33.739  11.202  25.830  0.00  0.00     0.086 C 
ATOM     14  H6  non d ame     -34.574  11.864  26.059  0.00  0.00     0.086 H 
BRANCH  13  15
ATOM     15  N2  non d ame     -32.780  11.989  25.073  0.00  0.00    -0.343 N 
ATOM     16  C5  non d ame     -32.548  13.388  25.437  0.00  0.00     0.273 C 
ATOM     17  O2  non d ame     -33.141  13.872  26.338  0.00  0.00    -0.266 OA
ATOM     18  H5  non d ame     -32.279  11.568  24.303  0.00  0.00     0.163 HD
BRANCH  16  19
ATOM     19  C4  non d ame     -31.536  14.232  24.647  0.00  0.00     0.154 A 
ATOM     20  C1  non d ame     -30.748  13.813  23.528  0.00  0.00    -0.017 A 
ATOM     21  C2  non d ame     -29.989  14.950  23.172  0.00  0.00     0.077 A 
ATOM     22  H1  non d ame     -30.730  12.835  23.048  0.00  0.00     0.091 H 
ATOM     23  O1  non d ame     -30.311  15.905  23.995  0.00  0.00    -0.218 OA
ATOM     24  N1  non d ame     -31.212  15.509  24.865  0.00  0.00    -0.123 NA
BRANCH  21  25
ATOM     25  C3  non d ame     -28.981  15.041  22.034  0.00  0.00    -0.029 C 
ATOM     26  H2  non d ame     -28.384  14.131  22.003  0.00  0.00     0.036 H 
ATOM     27  H3  non d ame     -29.510  15.160  21.089  0.00  0.00     0.036 H 
ATOM     28  H4  non d ame     -28.328  15.899  22.194  0.00  0.00     0.036 H 
ENDBRANCH  21  25
ENDBRANCH  16  19
ENDBRANCH  13  15
BRANCH  13  29
ATOM     29  C8  non d ame     -34.243  10.055  24.990  0.00  0.00    -0.049 C 
ATOM     30  H7  non d ame     -33.872  10.161  23.971  0.00  0.00     0.030 H 
ATOM     31  H8  non d ame     -33.889   9.114  25.410  0.00  0.00     0.030 H 
ATOM     32  H9  non d ame     -35.334  10.063  24.982  0.00  0.00     0.030 H 
ENDBRANCH  13  29
ENDBRANCH  10  13
ENDBRANCH   7   9
BRANCH   7  33
ATOM     33  C11 non d ame     -32.239  11.934  30.514  0.00  0.00    -0.033 C 
ATOM     34  H12 non d ame     -32.835  11.862  31.423  0.00  0.00     0.042 H 
BRANCH  33  35
ATOM     35  C12 non d ame     -30.737  11.850  30.929  0.00  0.00    -0.071 C 
ATOM     36  H13 non d ame     -30.210  12.733  30.567  0.00  0.00     0.028 H 
ATOM     37  H14 non d ame     -30.663  11.803  32.015  0.00  0.00     0.028 H 
ATOM     38  H15 non d ame     -30.289  10.956  30.495  0.00  0.00     0.028 H 
ENDBRANCH  33  35
BRANCH  33  39
ATOM     39  C13 non d ame     -32.562  13.302  29.831  0.00  0.00    -0.071 C 
ATOM     40  H16 non d ame     -32.146  14.113  30.429  0.00  0.00     0.028 H 
ATOM     41  H17 non d ame     -32.124  13.323  28.833  0.00  0.00     0.028 H 
ATOM     42  H18 non d ame     -33.643  13.423  29.754  0.00  0.00     0.028 H 
ENDBRANCH  33  39
ENDBRANCH   7  33
ENDBRANCH   4   7
ENDBRANCH   1   3
BRANCH   1  43
ATOM     43  C15 non d ame     -34.794   6.320  29.926  0.00  0.00     0.240 C 
ATOM     44  O5  non d ame     -34.836   5.468  30.754  0.00  0.00    -0.271 OA
ATOM     45  N6  non d ame     -34.419   5.975  28.526  0.00  0.00    -0.355 N 
ATOM     46  H46 non d ame     -34.384   6.689  27.813  0.00  0.00     0.162 HD
BRANCH  45  47
ATOM     47  C20 non d ame     -34.093   4.575  28.178  0.00  0.00     0.013 C 
ATOM     48  H30 non d ame     -33.841   4.050  29.099  0.00  0.00     0.072 H 
BRANCH  47  49
ATOM     49  C21 non d ame     -32.913   4.556  27.233  0.00  0.00    -0.038 C 
ATOM     50  H31 non d ame     -32.049   4.838  27.835  0.00  0.00     0.036 H 
ATOM     51  H32 non d ame     -32.943   3.582  26.744  0.00  0.00     0.036 H 
BRANCH  49  52
ATOM     52  C22 non d ame     -33.026   5.612  26.112  0.00  0.00     0.018 C 
ATOM     53  H33 non d ame     -34.037   6.012  26.184  0.00  0.00     0.048 H 
ATOM     54  H34 non d ame     -32.168   6.272  26.240  0.00  0.00     0.048 H 
BRANCH  52  55
ATOM     55  C23 non d ame     -32.901   5.020  24.680  0.00  0.00     0.259 C 
ATOM     56  O7  non d ame     -33.372   3.960  24.422  0.00  0.00    -0.265 OA
BRANCH  55  57
ATOM     57  O8  non d ame     -32.206   5.755  23.681  0.00  0.00    -0.317 OA
BRANCH  57  58
ATOM     58  C29 non d ame     -32.420   7.168  23.742  0.00  0.00     0.052 C 
ATOM     59  H47 non d ame     -33.255   7.369  23.072  0.00  0.00     0.082 H 
ATOM     60  H48 non d ame     -32.502   7.409  24.802  0.00  0.00     0.082 H 
BRANCH  58  61
ATOM     61  C35 non d ame     -31.156   7.869  23.176  0.00  0.00    -0.034 A 
ATOM     62  C30 non d ame     -31.169   9.239  22.934  0.00  0.00    -0.075 A 
ATOM     63  C31 non d ame     -30.034   9.869  22.425  0.00  0.00    -0.082 A 
ATOM     64  H49 non d ame     -32.068   9.819  23.142  0.00  0.00     0.084 H 
ATOM     65  C32 non d ame     -28.883   9.123  22.157  0.00  0.00    -0.083 A 
ATOM     66  H50 non d ame     -30.047  10.943  22.238  0.00  0.00     0.083 H 
ATOM     67  C33 non d ame     -28.876   7.756  22.397  0.00  0.00    -0.082 A 
ATOM     68  H51 non d ame     -27.992   9.608  21.760  0.00  0.00     0.083 H 
ATOM     69  C34 non d ame     -30.008   7.123  22.907  0.00  0.00    -0.075 A 
ATOM     70  H52 non d ame     -27.978   7.176  22.184  0.00  0.00     0.083 H 
ATOM     71  H53 non d ame     -29.994   6.048  23.094  0.00  0.00     0.084 H 
ENDBRANCH  58  61
ENDBRANCH  57  58
ENDBRANCH  55  57
ENDBRANCH  52  55
ENDBRANCH  49  52
ENDBRANCH  47  49
BRANCH  47  72
ATOM     72  C24 non d ame     -35.296   3.917  27.504  0.00  0.00    -0.039 C 
ATOM     73  H35 non d ame     -34.936   3.581  26.531  0.00  0.00     0.036 H 
ATOM     74  H36 non d ame     -35.671   3.191  28.226  0.00  0.00     0.036 H 
BRANCH  72  75
ATOM     75  C25 non d ame     -36.474   4.969  27.236  0.00  0.00    -0.001 C 
ATOM     76  C26 non d ame     -37.705   4.715  28.296  0.00  0.00    -0.035 C 
ATOM     77  C27 non d ame     -38.864   4.614  27.602  0.00  0.00     0.085 C 
ATOM     78  H38 non d ame     -37.600   3.735  28.761  0.00  0.00     0.036 H 
ATOM     79  H39 non d ame     -37.854   5.600  28.914  0.00  0.00     0.036 H 
ATOM     80  N5  non d ame     -38.495   4.449  26.147  0.00  0.00    -0.049 N 
ATOM     81  H40 non d ame     -39.335   3.697  27.956  0.00  0.00     0.075 H 
ATOM     82  H41 non d ame     -39.367   5.571  27.734  0.00  0.00     0.075 H 
ATOM     83  C28 non d ame     -36.937   4.856  26.036  0.00  0.00     0.193 C 
ATOM     84  H42 non d ame     -38.586   3.465  25.939  0.00  0.00     0.280 HD
ATOM     85  H43 non d ame     -39.042   5.127  25.636  0.00  0.00     0.280 HD
ATOM     86  H44 non d ame     -36.645   5.820  25.618  0.00  0.00     0.129 H 
ATOM     87  H37 non d ame     -36.102   5.990  27.143  0.00  0.00     0.046 H 
BRANCH  83  88
ATOM     88  O6  non d ame     -36.226   3.879  25.273  0.00  0.00    -0.369 OA
ATOM     89  H45 non d ame     -35.612   3.412  25.845  0.00  0.00     0.212 HD
ENDBRANCH  83  88
ENDBRANCH  72  75
ENDBRANCH  47  72
ENDBRANCH  45  47
ENDBRANCH   1  43
BRANCH   1  90
ATOM     90  C16 non d ame     -36.565   8.104  29.882  0.00  0.00    -0.035 C 
ATOM     91  H21 non d ame     -36.939   7.189  29.423  0.00  0.00     0.037 H 
ATOM     92  H22 non d ame     -37.051   8.505  30.771  0.00  0.00     0.037 H 
BRANCH  90  93
ATOM     93  C17 non d ame     -36.659   9.215  28.788  0.00  0.00    -0.059 C 
ATOM     94  H23 non d ame     -35.646   9.550  28.569  0.00  0.00     0.038 H 
BRANCH  93  95
ATOM     95  C18 non d ame     -37.283   8.683  27.458  0.00  0.00    -0.073 C 
ATOM     96  H24 non d ame     -37.285   9.478  26.714  0.00  0.00     0.028 H 
ATOM     97  H25 non d ame     -36.693   7.844  27.091  0.00  0.00     0.028 H 
ATOM     98  H26 non d ame     -38.305   8.354  27.643  0.00  0.00     0.028 H 
ENDBRANCH  93  95
BRANCH  93  99
ATOM     99  C19 non d ame     -37.437  10.428  29.307  0.00  0.00    -0.073 C 
ATOM    100  H27 non d ame     -37.013  11.339  28.885  0.00  0.00     0.028 H 
ATOM    101  H28 non d ame     -38.483  10.343  29.011  0.00  0.00     0.028 H 
ATOM    102  H29 non d ame     -37.369  10.465  30.394  0.00  0.00     0.028 H 
ENDBRANCH  93  99
ENDBRANCH  90  93
ENDBRANCH   1  90
TORSDOF 26
ENDMDL
MODEL 10
REMARK VINA RESULT:      -5.9      3.292      9.167
REMARK  26 active torsions:
REMARK  status: ('A' for Active; 'I' for Inactive)
REMARK    1  A    between atoms: C2_2  and  C3_3 
REMARK    2  A    between atoms: C4_6  and  C5_7 
REMARK       I    between atoms: C5_7  and  N2_9 
REMARK    3  A    between atoms: N2_9  and  C6_10 
REMARK    4  A    between atoms: C6_10  and  C7_11 
REMARK    5  A    between atoms: C6_10  and  C8_13 
REMARK       I    between atoms: C7_11  and  N3_14 
REMARK    6  A    between atoms: N3_14  and  C9_15 
REMARK    7  A    between atoms: C9_15  and  C10_16 
REMARK    8  A    between atoms: C9_15  and  C11_18 
REMARK       I    between atoms: C10_16  and  N4_21 
REMARK    9  A    between atoms: C11_18  and  C12_19 
REMARK   10  A    between atoms: C11_18  and  C13_20 
REMARK   11  A    between atoms: N4_21  and  C14_22 
REMARK   12  A    between atoms: C14_22  and  C15_23 
REMARK   13  A    between atoms: C14_22  and  C16_25 
REMARK       I    between atoms: C15_23  and  N6_40 
REMARK   14  A    between atoms: C16_25  and  C17_26 
REMARK   15  A    between atoms: C17_26  and  C18_27 
REMARK   16  A    between atoms: C17_26  and  C19_28 
REMARK   17  A    between atoms: C20_29  and  C21_30 
REMARK   18  A    between atoms: C20_29  and  C24_33 
REMARK   19  A    between atoms: C20_29  and  N6_40 
REMARK   20  A    between atoms: C21_30  and  C22_31 
REMARK   21  A    between atoms: C22_31  and  C23_32 
REMARK   22  A    between atoms: C23_32  and  O8_43 
REMARK   23  A    between atoms: C24_33  and  C25_34 
REMARK   24  A    between atoms: C28_38  and  O6_39 
REMARK   25  A    between atoms: C29_42  and  O8_43 
REMARK   26  A    between atoms: C29_42  and  C35_49 
ROOT
ATOM      1  C14 non d ame     -32.565  10.644  26.612  0.00  0.00     0.089 C 
ATOM      2  H20 non d ame     -33.582  10.706  26.223  0.00  0.00     0.087 H 
ENDROOT
BRANCH   1   3
ATOM      3  N4  non d ame     -31.896   9.554  25.918  0.00  0.00    -0.346 N 
ATOM      4  C10 non d ame     -32.230   9.248  24.480  0.00  0.00     0.241 C 
ATOM      5  O4  non d ame     -33.043   9.891  23.902  0.00  0.00    -0.271 OA
ATOM      6  H19 non d ame     -31.209   9.016  26.428  0.00  0.00     0.163 HD
BRANCH   4   7
ATOM      7  C9  non d ame     -31.524   8.119  23.775  0.00  0.00     0.092 C 
ATOM      8  H11 non d ame     -30.586   7.907  24.288  0.00  0.00     0.088 H 
BRANCH   7   9
ATOM      9  N3  non d ame     -32.344   6.906  23.852  0.00  0.00    -0.346 N 
ATOM     10  C7  non d ame     -32.287   6.072  25.028  0.00  0.00     0.240 C 
ATOM     11  O3  non d ame     -31.588   6.361  25.920  0.00  0.00    -0.271 OA
ATOM     12  H10 non d ame     -32.951   6.642  23.089  0.00  0.00     0.163 HD
BRANCH  10  13
ATOM     13  C6  non d ame     -33.160   4.780  25.102  0.00  0.00     0.086 C 
ATOM     14  H6  non d ame     -32.642   3.949  25.580  0.00  0.00     0.086 H 
BRANCH  13  15
ATOM     15  N2  non d ame     -34.338   5.053  25.907  0.00  0.00    -0.343 N 
ATOM     16  C5  non d ame     -34.326   4.734  27.336  0.00  0.00     0.273 C 
ATOM     17  O2  non d ame     -33.364   4.254  27.828  0.00  0.00    -0.266 OA
ATOM     18  H5  non d ame     -35.157   5.460  25.478  0.00  0.00     0.163 HD
BRANCH  16  19
ATOM     19  C4  non d ame     -35.565   5.018  28.200  0.00  0.00     0.154 A 
ATOM     20  C1  non d ame     -35.623   5.801  29.396  0.00  0.00    -0.017 A 
ATOM     21  C2  non d ame     -36.977   5.752  29.797  0.00  0.00     0.077 A 
ATOM     22  H1  non d ame     -34.809   6.325  29.897  0.00  0.00     0.091 H 
ATOM     23  O1  non d ame     -37.613   5.025  28.926  0.00  0.00    -0.218 OA
ATOM     24  N1  non d ame     -36.810   4.585  27.984  0.00  0.00    -0.123 NA
BRANCH  21  25
ATOM     25  C3  non d ame     -37.580   6.426  31.022  0.00  0.00    -0.029 C 
ATOM     26  H2  non d ame     -37.151   5.992  31.925  0.00  0.00     0.036 H 
ATOM     27  H3  non d ame     -37.361   7.493  30.994  0.00  0.00     0.036 H 
ATOM     28  H4  non d ame     -38.660   6.277  31.025  0.00  0.00     0.036 H 
ENDBRANCH  21  25
ENDBRANCH  16  19
ENDBRANCH  13  15
BRANCH  13  29
ATOM     29  C8  non d ame     -33.568   4.365  23.712  0.00  0.00    -0.049 C 
ATOM     30  H7  non d ame     -34.070   3.399  23.754  0.00  0.00     0.030 H 
ATOM     31  H8  non d ame     -34.247   5.109  23.296  0.00  0.00     0.030 H 
ATOM     32  H9  non d ame     -32.683   4.288  23.080  0.00  0.00     0.030 H 
ENDBRANCH  13  29
ENDBRANCH  10  13
ENDBRANCH   7   9
BRANCH   7  33
ATOM     33  C11 non d ame     -31.302   8.498  22.282  0.00  0.00    -0.033 C 
ATOM     34  H12 non d ame     -31.850   9.421  22.092  0.00  0.00     0.042 H 
BRANCH  33  35
ATOM     35  C12 non d ame     -29.796   8.777  21.984  0.00  0.00    -0.071 C 
ATOM     36  H13 non d ame     -29.226   8.722  22.911  0.00  0.00     0.028 H 
ATOM     37  H14 non d ame     -29.421   8.033  21.282  0.00  0.00     0.028 H 
ATOM     38  H15 non d ame     -29.690   9.772  21.551  0.00  0.00     0.028 H 
ENDBRANCH  33  35
BRANCH  33  39
ATOM     39  C13 non d ame     -31.872   7.394  21.334  0.00  0.00    -0.071 C 
ATOM     40  H16 non d ame     -31.985   6.462  21.888  0.00  0.00     0.028 H 
ATOM     41  H17 non d ame     -32.843   7.709  20.951  0.00  0.00     0.028 H 
ATOM     42  H18 non d ame     -31.186   7.241  20.501  0.00  0.00     0.028 H 
ENDBRANCH  33  39
ENDBRANCH   7  33
ENDBRANCH   4   7
ENDBRANCH   1   3
BRANCH   1  43
ATOM     43  C15 non d ame     -31.762  11.953  26.367  0.00  0.00     0.240 C 
ATOM     44  O5  non d ame     -31.019  12.356  27.203  0.00  0.00    -0.271 OA
ATOM     45  N6  non d ame     -31.912  12.701  25.086  0.00  0.00    -0.355 N 
ATOM     46  H46 non d ame     -32.535  12.366  24.367  0.00  0.00     0.162 HD
BRANCH  45  47
ATOM     47  C20 non d ame     -31.140  13.943  24.868  0.00  0.00     0.013 C 
ATOM     48  H30 non d ame     -30.393  14.017  25.658  0.00  0.00     0.072 H 
BRANCH  47  49
ATOM     49  C21 non d ame     -32.075  15.130  24.929  0.00  0.00    -0.038 C 
ATOM     50  H31 non d ame     -31.732  15.816  24.155  0.00  0.00     0.036 H 
ATOM     51  H32 non d ame     -33.081  14.714  24.882  0.00  0.00     0.036 H 
BRANCH  49  52
ATOM     52  C22 non d ame     -31.982  15.898  26.266  0.00  0.00     0.018 C 
ATOM     53  H33 non d ame     -32.467  15.263  27.006  0.00  0.00     0.048 H 
ATOM     54  H34 non d ame     -30.931  16.165  26.380  0.00  0.00     0.048 H 
BRANCH  52  55
ATOM     55  C23 non d ame     -32.767  17.239  26.273  0.00  0.00     0.259 C 
ATOM     56  O7  non d ame     -32.197  18.273  26.137  0.00  0.00    -0.265 OA
BRANCH  55  57
ATOM     57  O8  non d ame     -34.177  17.220  26.457  0.00  0.00    -0.317 OA
BRANCH  57  58
ATOM     58  C29 non d ame     -34.621  17.907  27.631  0.00  0.00     0.052 C 
ATOM     59  H47 non d ame     -35.204  17.180  28.196  0.00  0.00     0.082 H 
ATOM     60  H48 non d ame     -33.726  18.348  28.071  0.00  0.00     0.082 H 
BRANCH  58  61
ATOM     61  C35 non d ame     -35.565  19.055  27.186  0.00  0.00    -0.034 A 
ATOM     62  C30 non d ame     -36.154  19.881  28.138  0.00  0.00    -0.075 A 
ATOM     63  C31 non d ame     -37.003  20.912  27.738  0.00  0.00    -0.082 A 
ATOM     64  H49 non d ame     -35.951  19.721  29.197  0.00  0.00     0.084 H 
ATOM     65  C32 non d ame     -37.264  21.115  26.380  0.00  0.00    -0.083 A 
ATOM     66  H50 non d ame     -37.462  21.559  28.486  0.00  0.00     0.083 H 
ATOM     67  C33 non d ame     -36.677  20.286  25.434  0.00  0.00    -0.082 A 
ATOM     68  H51 non d ame     -37.926  21.919  26.059  0.00  0.00     0.083 H 
ATOM     69  C34 non d ame     -35.826  19.255  25.829  0.00  0.00    -0.075 A 
ATOM     70  H52 non d ame     -36.884  20.444  24.376  0.00  0.00     0.083 H 
ATOM     71  H53 non d ame     -35.368  18.609  25.080  0.00  0.00     0.084 H 
ENDBRANCH  58  61
ENDBRANCH  57  58
ENDBRANCH  55  57
ENDBRANCH  52  55
ENDBRANCH  49  52
ENDBRANCH  47  49
BRANCH  47  72
ATOM     72  C24 non d ame     -30.463  13.898  23.500  0.00  0.00    -0.039 C 
ATOM     73  H35 non d ame     -29.418  13.658  23.701  0.00  0.00     0.036 H 
ATOM     74  H36 non d ame     -31.070  13.222  22.898  0.00  0.00     0.036 H 
BRANCH  72  75
ATOM     75  C25 non d ame     -30.489  15.327  22.778  0.00  0.00    -0.001 C 
ATOM     76  C26 non d ame     -31.346  15.231  21.377  0.00  0.00    -0.035 C 
ATOM     77  C27 non d ame     -30.600  15.748  20.372  0.00  0.00     0.085 C 
ATOM     78  H38 non d ame     -31.475  14.188  21.089  0.00  0.00     0.036 H 
ATOM     79  H39 non d ame     -32.210  15.895  21.421  0.00  0.00     0.036 H 
ATOM     80  N5  non d ame     -29.191  15.887  20.896  0.00  0.00    -0.049 N 
ATOM     81  H40 non d ame     -30.614  14.996  19.583  0.00  0.00     0.075 H 
ATOM     82  H41 non d ame     -31.009  16.741  20.187  0.00  0.00     0.075 H 
ATOM     83  C28 non d ame     -29.295  15.733  22.499  0.00  0.00     0.193 C 
ATOM     84  H42 non d ame     -28.671  15.103  20.530  0.00  0.00     0.280 HD
ATOM     85  H43 non d ame     -28.899  16.830  20.682  0.00  0.00     0.280 HD
ATOM     86  H44 non d ame     -29.228  16.608  23.146  0.00  0.00     0.129 H 
ATOM     87  H37 non d ame     -30.750  16.132  23.465  0.00  0.00     0.046 H 
BRANCH  83  88
ATOM     88  O6  non d ame     -28.295  14.830  22.974  0.00  0.00    -0.369 OA
ATOM     89  H45 non d ame     -28.230  14.081  22.376  0.00  0.00     0.212 HD
ENDBRANCH  83  88
ENDBRANCH  72  75
ENDBRANCH  47  72
ENDBRANCH  45  47
ENDBRANCH   1  43
BRANCH   1  90
ATOM     90  C16 non d ame     -32.601  10.337  28.100  0.00  0.00    -0.035 C 
ATOM     91  H21 non d ame     -31.663   9.823  28.312  0.00  0.00     0.037 H 
ATOM     92  H22 non d ame     -32.823  11.287  28.586  0.00  0.00     0.037 H 
BRANCH  90  93
ATOM     93  C17 non d ame     -33.743   9.354  28.510  0.00  0.00    -0.059 C 
ATOM     94  H23 non d ame     -33.405   8.342  28.287  0.00  0.00     0.038 H 
BRANCH  93  95
ATOM     95  C18 non d ame     -34.062   9.424  30.038  0.00  0.00    -0.073 C 
ATOM     96  H24 non d ame     -33.844   8.461  30.499  0.00  0.00     0.028 H 
ATOM     97  H25 non d ame     -33.448  10.195  30.502  0.00  0.00     0.028 H 
ATOM     98  H26 non d ame     -35.115   9.665  30.179  0.00  0.00     0.028 H 
ENDBRANCH  93  95
BRANCH  93  99
ATOM     99  C19 non d ame     -35.004   9.605  27.679  0.00  0.00    -0.073 C 
ATOM    100  H27 non d ame     -35.251  10.666  27.704  0.00  0.00     0.028 H 
ATOM    101  H28 non d ame     -34.828   9.297  26.648  0.00  0.00     0.028 H 
ATOM    102  H29 non d ame     -35.832   9.029  28.092  0.00  0.00     0.028 H 
ENDBRANCH  93  99
ENDBRANCH  90  93
ENDBRANCH   1  90
TORSDOF 26
ENDMDL
MODEL 11
REMARK VINA RESULT:      -5.9      2.904      6.776
REMARK  26 active torsions:
REMARK  status: ('A' for Active; 'I' for Inactive)
REMARK    1  A    between atoms: C2_2  and  C3_3 
REMARK    2  A    between atoms: C4_6  and  C5_7 
REMARK       I    between atoms: C5_7  and  N2_9 
REMARK    3  A    between atoms: N2_9  and  C6_10 
REMARK    4  A    between atoms: C6_10  and  C7_11 
REMARK    5  A    between atoms: C6_10  and  C8_13 
REMARK       I    between atoms: C7_11  and  N3_14 
REMARK    6  A    between atoms: N3_14  and  C9_15 
REMARK    7  A    between atoms: C9_15  and  C10_16 
REMARK    8  A    between atoms: C9_15  and  C11_18 
REMARK       I    between atoms: C10_16  and  N4_21 
REMARK    9  A    between atoms: C11_18  and  C12_19 
REMARK   10  A    between atoms: C11_18  and  C13_20 
REMARK   11  A    between atoms: N4_21  and  C14_22 
REMARK   12  A    between atoms: C14_22  and  C15_23 
REMARK   13  A    between atoms: C14_22  and  C16_25 
REMARK       I    between atoms: C15_23  and  N6_40 
REMARK   14  A    between atoms: C16_25  and  C17_26 
REMARK   15  A    between atoms: C17_26  and  C18_27 
REMARK   16  A    between atoms: C17_26  and  C19_28 
REMARK   17  A    between atoms: C20_29  and  C21_30 
REMARK   18  A    between atoms: C20_29  and  C24_33 
REMARK   19  A    between atoms: C20_29  and  N6_40 
REMARK   20  A    between atoms: C21_30  and  C22_31 
REMARK   21  A    between atoms: C22_31  and  C23_32 
REMARK   22  A    between atoms: C23_32  and  O8_43 
REMARK   23  A    between atoms: C24_33  and  C25_34 
REMARK   24  A    between atoms: C28_38  and  O6_39 
REMARK   25  A    between atoms: C29_42  and  O8_43 
REMARK   26  A    between atoms: C29_42  and  C35_49 
ROOT
ATOM      1  C14 non d ame     -36.027  13.171  26.168  0.00  0.00     0.089 C 
ATOM      2  H20 non d ame     -36.769  12.991  26.947  0.00  0.00     0.087 H 
ENDROOT
BRANCH   1   3
ATOM      3  N4  non d ame     -35.794  14.606  26.108  0.00  0.00    -0.346 N 
ATOM      4  C10 non d ame     -36.886  15.572  26.494  0.00  0.00     0.241 C 
ATOM      5  O4  non d ame     -37.945  15.171  26.847  0.00  0.00    -0.271 OA
ATOM      6  H19 non d ame     -34.886  14.928  25.802  0.00  0.00     0.163 HD
BRANCH   4   7
ATOM      7  C9  non d ame     -36.625  17.055  26.431  0.00  0.00     0.092 C 
ATOM      8  H11 non d ame     -36.892  17.506  27.386  0.00  0.00     0.088 H 
BRANCH   7   9
ATOM      9  N3  non d ame     -35.193  17.291  26.226  0.00  0.00    -0.346 N 
ATOM     10  C7  non d ame     -34.367  17.713  27.330  0.00  0.00     0.240 C 
ATOM     11  O3  non d ame     -34.838  17.868  28.390  0.00  0.00    -0.271 OA
ATOM     12  H10 non d ame     -34.772  17.163  25.317  0.00  0.00     0.163 HD
BRANCH  10  13
ATOM     13  C6  non d ame     -32.844  17.966  27.105  0.00  0.00     0.086 C 
ATOM     14  H6  non d ame     -32.220  17.484  27.858  0.00  0.00     0.086 H 
BRANCH  13  15
ATOM     15  N2  non d ame     -32.457  17.402  25.822  0.00  0.00    -0.343 N 
ATOM     16  C5  non d ame     -31.809  16.090  25.777  0.00  0.00     0.273 C 
ATOM     17  O2  non d ame     -31.601  15.496  26.778  0.00  0.00    -0.266 OA
ATOM     18  H5  non d ame     -32.636  17.918  24.972  0.00  0.00     0.163 HD
BRANCH  16  19
ATOM     19  C4  non d ame     -31.396  15.481  24.428  0.00  0.00     0.154 A 
ATOM     20  C1  non d ame     -31.401  16.127  23.150  0.00  0.00    -0.017 A 
ATOM     21  C2  non d ame     -30.938  15.146  22.246  0.00  0.00     0.077 A 
ATOM     22  H1  non d ame     -31.695  17.150  22.916  0.00  0.00     0.091 H 
ATOM     23  O1  non d ame     -30.697  14.068  22.933  0.00  0.00    -0.218 OA
ATOM     24  N1  non d ame     -30.957  14.239  24.208  0.00  0.00    -0.123 NA
BRANCH  21  25
ATOM     25  C3  non d ame     -30.754  15.319  20.744  0.00  0.00    -0.029 C 
ATOM     26  H2  non d ame     -29.927  16.003  20.555  0.00  0.00     0.036 H 
ATOM     27  H3  non d ame     -30.536  14.352  20.291  0.00  0.00     0.036 H 
ATOM     28  H4  non d ame     -31.668  15.726  20.310  0.00  0.00     0.036 H 
ENDBRANCH  21  25
ENDBRANCH  16  19
ENDBRANCH  13  15
BRANCH  13  29
ATOM     29  C8  non d ame     -32.570  19.448  27.122  0.00  0.00    -0.049 C 
ATOM     30  H7  non d ame     -32.053  19.733  26.205  0.00  0.00     0.030 H 
ATOM     31  H8  non d ame     -33.512  19.991  27.191  0.00  0.00     0.030 H 
ATOM     32  H9  non d ame     -31.945  19.693  27.982  0.00  0.00     0.030 H 
ENDBRANCH  13  29
ENDBRANCH  10  13
ENDBRANCH   7   9
BRANCH   7  33
ATOM     33  C11 non d ame     -37.424  17.672  25.246  0.00  0.00    -0.033 C 
ATOM     34  H12 non d ame     -38.453  17.809  25.580  0.00  0.00     0.042 H 
BRANCH  33  35
ATOM     35  C12 non d ame     -36.867  19.076  24.855  0.00  0.00    -0.071 C 
ATOM     36  H13 non d ame     -36.877  19.182  23.770  0.00  0.00     0.028 H 
ATOM     37  H14 non d ame     -37.490  19.851  25.301  0.00  0.00     0.028 H 
ATOM     38  H15 non d ame     -35.845  19.176  25.220  0.00  0.00     0.028 H 
ENDBRANCH  33  35
BRANCH  33  39
ATOM     39  C13 non d ame     -37.439  16.706  24.018  0.00  0.00    -0.071 C 
ATOM     40  H16 non d ame     -38.468  16.544  23.696  0.00  0.00     0.028 H 
ATOM     41  H17 non d ame     -36.868  17.148  23.201  0.00  0.00     0.028 H 
ATOM     42  H18 non d ame     -36.992  15.754  24.299  0.00  0.00     0.028 H 
ENDBRANCH  33  39
ENDBRANCH   7  33
ENDBRANCH   4   7
ENDBRANCH   1   3
BRANCH   1  43
ATOM     43  C15 non d ame     -34.676  12.462  26.469  0.00  0.00     0.240 C 
ATOM     44  O5  non d ame     -33.658  12.941  26.084  0.00  0.00    -0.271 OA
ATOM     45  N6  non d ame     -34.649  11.189  27.245  0.00  0.00    -0.355 N 
ATOM     46  H46 non d ame     -35.507  10.776  27.581  0.00  0.00     0.162 HD
BRANCH  45  47
ATOM     47  C20 non d ame     -33.356  10.528  27.524  0.00  0.00     0.013 C 
ATOM     48  H30 non d ame     -32.578  11.076  26.994  0.00  0.00     0.072 H 
BRANCH  47  49
ATOM     49  C21 non d ame     -33.409   9.100  27.031  0.00  0.00    -0.038 C 
ATOM     50  H31 non d ame     -32.722   9.054  26.185  0.00  0.00     0.036 H 
ATOM     51  H32 non d ame     -33.234   8.479  27.909  0.00  0.00     0.036 H 
BRANCH  49  52
ATOM     52  C22 non d ame     -34.799   8.704  26.486  0.00  0.00     0.018 C 
ATOM     53  H33 non d ame     -35.313   9.643  26.280  0.00  0.00     0.048 H 
ATOM     54  H34 non d ame     -34.609   7.997  25.678  0.00  0.00     0.048 H 
BRANCH  52  55
ATOM     55  C23 non d ame     -35.684   7.949  27.517  0.00  0.00     0.259 C 
ATOM     56  O7  non d ame     -36.494   8.535  28.160  0.00  0.00    -0.265 OA
BRANCH  55  57
ATOM     57  O8  non d ame     -35.506   6.549  27.695  0.00  0.00    -0.317 OA
BRANCH  57  58
ATOM     58  C29 non d ame     -36.071   6.039  28.905  0.00  0.00     0.052 C 
ATOM     59  H47 non d ame     -36.379   6.914  29.479  0.00  0.00     0.082 H 
ATOM     60  H48 non d ame     -36.812   5.302  28.598  0.00  0.00     0.082 H 
BRANCH  58  61
ATOM     61  C35 non d ame     -34.948   5.309  29.689  0.00  0.00    -0.034 A 
ATOM     62  C30 non d ame     -33.934   4.651  29.000  0.00  0.00    -0.075 A 
ATOM     63  C31 non d ame     -32.925   3.995  29.704  0.00  0.00    -0.082 A 
ATOM     64  H49 non d ame     -33.929   4.649  27.910  0.00  0.00     0.084 H 
ATOM     65  C32 non d ame     -32.934   3.996  31.101  0.00  0.00    -0.083 A 
ATOM     66  H50 non d ame     -32.130   3.481  29.161  0.00  0.00     0.083 H 
ATOM     67  C33 non d ame     -33.950   4.651  31.783  0.00  0.00    -0.082 A 
ATOM     68  H51 non d ame     -32.148   3.486  31.659  0.00  0.00     0.083 H 
ATOM     69  C34 non d ame     -34.959   5.310  31.085  0.00  0.00    -0.075 A 
ATOM     70  H52 non d ame     -33.955   4.648  32.874  0.00  0.00     0.083 H 
ATOM     71  H53 non d ame     -35.753   5.823  31.628  0.00  0.00     0.084 H 
ENDBRANCH  58  61
ENDBRANCH  57  58
ENDBRANCH  55  57
ENDBRANCH  52  55
ENDBRANCH  49  52
ENDBRANCH  47  49
BRANCH  47  72
ATOM     72  C24 non d ame     -33.084  10.539  29.026  0.00  0.00    -0.039 C 
ATOM     73  H35 non d ame     -34.046  10.335  29.497  0.00  0.00     0.036 H 
ATOM     74  H36 non d ame     -32.249   9.855  29.175  0.00  0.00     0.036 H 
BRANCH  72  75
ATOM     75  C25 non d ame     -32.607  11.983  29.532  0.00  0.00    -0.001 C 
ATOM     76  C26 non d ame     -31.300  12.476  28.664  0.00  0.00    -0.035 C 
ATOM     77  C27 non d ame     -30.324  12.855  29.524  0.00  0.00     0.085 C 
ATOM     78  H38 non d ame     -30.861  11.630  28.136  0.00  0.00     0.036 H 
ATOM     79  H39 non d ame     -31.535  13.394  28.125  0.00  0.00     0.036 H 
ATOM     80  N5  non d ame     -30.723  12.357  30.892  0.00  0.00    -0.049 N 
ATOM     81  H40 non d ame     -29.429  12.323  29.199  0.00  0.00     0.075 H 
ATOM     82  H41 non d ame     -30.341  13.944  29.523  0.00  0.00     0.075 H 
ATOM     83  C28 non d ame     -32.283  11.957  30.781  0.00  0.00     0.193 C 
ATOM     84  H42 non d ame     -30.187  11.518  31.059  0.00  0.00     0.280 HD
ATOM     85  H43 non d ame     -30.637  13.145  31.518  0.00  0.00     0.280 HD
ATOM     86  H44 non d ame     -33.053  12.607  31.199  0.00  0.00     0.129 H 
ATOM     87  H37 non d ame     -33.437  12.684  29.620  0.00  0.00     0.046 H 
BRANCH  83  88
ATOM     88  O6  non d ame     -32.506  10.674  31.370  0.00  0.00    -0.369 OA
ATOM     89  H45 non d ame     -32.253  10.699  32.296  0.00  0.00     0.212 HD
ENDBRANCH  83  88
ENDBRANCH  72  75
ENDBRANCH  47  72
ENDBRANCH  45  47
ENDBRANCH   1  43
BRANCH   1  90
ATOM     90  C16 non d ame     -36.565  12.699  24.826  0.00  0.00    -0.035 C 
ATOM     91  H21 non d ame     -37.014  13.581  24.369  0.00  0.00     0.037 H 
ATOM     92  H22 non d ame     -35.727  12.200  24.339  0.00  0.00     0.037 H 
BRANCH  90  93
ATOM     93  C17 non d ame     -37.703  11.637  24.946  0.00  0.00    -0.059 C 
ATOM     94  H23 non d ame     -38.482  11.904  24.232  0.00  0.00     0.038 H 
BRANCH  93  95
ATOM     95  C18 non d ame     -37.206  10.198  24.592  0.00  0.00    -0.073 C 
ATOM     96  H24 non d ame     -37.874   9.463  25.038  0.00  0.00     0.028 H 
ATOM     97  H25 non d ame     -37.198  10.072  23.510  0.00  0.00     0.028 H 
ATOM     98  H26 non d ame     -36.198  10.056  24.981  0.00  0.00     0.028 H 
ENDBRANCH  93  95
BRANCH  93  99
ATOM     99  C19 non d ame     -38.334  11.667  26.340  0.00  0.00    -0.073 C 
ATOM    100  H27 non d ame     -37.938  10.845  26.937  0.00  0.00     0.028 H 
ATOM    101  H28 non d ame     -38.099  12.614  26.826  0.00  0.00     0.028 H 
ATOM    102  H29 non d ame     -39.415  11.563  26.252  0.00  0.00     0.028 H 
ENDBRANCH  93  99
ENDBRANCH  90  93
ENDBRANCH   1  90
TORSDOF 26
ENDMDL
MODEL 12
REMARK VINA RESULT:      -5.9      3.298      8.094
REMARK  26 active torsions:
REMARK  status: ('A' for Active; 'I' for Inactive)
REMARK    1  A    between atoms: C2_2  and  C3_3 
REMARK    2  A    between atoms: C4_6  and  C5_7 
REMARK       I    between atoms: C5_7  and  N2_9 
REMARK    3  A    between atoms: N2_9  and  C6_10 
REMARK    4  A    between atoms: C6_10  and  C7_11 
REMARK    5  A    between atoms: C6_10  and  C8_13 
REMARK       I    between atoms: C7_11  and  N3_14 
REMARK    6  A    between atoms: N3_14  and  C9_15 
REMARK    7  A    between atoms: C9_15  and  C10_16 
REMARK    8  A    between atoms: C9_15  and  C11_18 
REMARK       I    between atoms: C10_16  and  N4_21 
REMARK    9  A    between atoms: C11_18  and  C12_19 
REMARK   10  A    between atoms: C11_18  and  C13_20 
REMARK   11  A    between atoms: N4_21  and  C14_22 
REMARK   12  A    between atoms: C14_22  and  C15_23 
REMARK   13  A    between atoms: C14_22  and  C16_25 
REMARK       I    between atoms: C15_23  and  N6_40 
REMARK   14  A    between atoms: C16_25  and  C17_26 
REMARK   15  A    between atoms: C17_26  and  C18_27 
REMARK   16  A    between atoms: C17_26  and  C19_28 
REMARK   17  A    between atoms: C20_29  and  C21_30 
REMARK   18  A    between atoms: C20_29  and  C24_33 
REMARK   19  A    between atoms: C20_29  and  N6_40 
REMARK   20  A    between atoms: C21_30  and  C22_31 
REMARK   21  A    between atoms: C22_31  and  C23_32 
REMARK   22  A    between atoms: C23_32  and  O8_43 
REMARK   23  A    between atoms: C24_33  and  C25_34 
REMARK   24  A    between atoms: C28_38  and  O6_39 
REMARK   25  A    between atoms: C29_42  and  O8_43 
REMARK   26  A    between atoms: C29_42  and  C35_49 
ROOT
ATOM      1  C14 non d ame     -33.033   9.335  27.657  0.00  0.00     0.089 C 
ATOM      2  H20 non d ame     -32.119   8.752  27.538  0.00  0.00     0.087 H 
ENDROOT
BRANCH   1   3
ATOM      3  N4  non d ame     -32.656  10.642  28.173  0.00  0.00    -0.346 N 
ATOM      4  C10 non d ame     -31.593  11.457  27.479  0.00  0.00     0.241 C 
ATOM      5  O4  non d ame     -31.053  11.037  26.509  0.00  0.00    -0.271 OA
ATOM      6  H19 non d ame     -33.126  10.980  29.001  0.00  0.00     0.163 HD
BRANCH   4   7
ATOM      7  C9  non d ame     -31.219  12.810  28.024  0.00  0.00     0.092 C 
ATOM      8  H11 non d ame     -30.133  12.901  28.043  0.00  0.00     0.088 H 
BRANCH   7   9
ATOM      9  N3  non d ame     -31.726  13.855  27.128  0.00  0.00    -0.346 N 
ATOM     10  C7  non d ame     -33.139  13.946  26.856  0.00  0.00     0.240 C 
ATOM     11  O3  non d ame     -33.882  13.188  27.348  0.00  0.00    -0.271 OA
ATOM     12  H10 non d ame     -31.097  14.515  26.695  0.00  0.00     0.163 HD
BRANCH  10  13
ATOM     13  C6  non d ame     -33.672  15.058  25.900  0.00  0.00     0.086 C 
ATOM     14  H6  non d ame     -33.528  16.062  26.298  0.00  0.00     0.086 H 
BRANCH  13  15
ATOM     15  N2  non d ame     -32.935  14.997  24.649  0.00  0.00    -0.343 N 
ATOM     16  C5  non d ame     -31.720  15.800  24.488  0.00  0.00     0.273 C 
ATOM     17  O2  non d ame     -31.347  16.493  25.370  0.00  0.00    -0.266 OA
ATOM     18  H5  non d ame     -33.262  14.404  23.900  0.00  0.00     0.163 HD
BRANCH  16  19
ATOM     19  C4  non d ame     -30.929  15.745  23.172  0.00  0.00     0.154 A 
ATOM     20  C1  non d ame     -31.439  15.936  21.848  0.00  0.00    -0.017 A 
ATOM     21  C2  non d ame     -30.318  15.785  21.002  0.00  0.00     0.077 A 
ATOM     22  H1  non d ame     -32.464  16.152  21.548  0.00  0.00     0.091 H 
ATOM     23  O1  non d ame     -29.290  15.537  21.760  0.00  0.00    -0.218 OA
ATOM     24  N1  non d ame     -29.622  15.508  23.030  0.00  0.00    -0.123 NA
BRANCH  21  25
ATOM     25  C3  non d ame     -30.314  15.893  19.483  0.00  0.00    -0.029 C 
ATOM     26  H2  non d ame     -31.272  16.285  19.144  0.00  0.00     0.036 H 
ATOM     27  H3  non d ame     -29.516  16.565  19.168  0.00  0.00     0.036 H 
ATOM     28  H4  non d ame     -30.151  14.907  19.048  0.00  0.00     0.036 H 
ENDBRANCH  21  25
ENDBRANCH  16  19
ENDBRANCH  13  15
BRANCH  13  29
ATOM     29  C8  non d ame     -35.142  14.842  25.643  0.00  0.00    -0.049 C 
ATOM     30  H7  non d ame     -35.725  15.411  26.368  0.00  0.00     0.030 H 
ATOM     31  H8  non d ame     -35.388  15.177  24.636  0.00  0.00     0.030 H 
ATOM     32  H9  non d ame     -35.376  13.782  25.742  0.00  0.00     0.030 H 
ENDBRANCH  13  29
ENDBRANCH  10  13
ENDBRANCH   7   9
BRANCH   7  33
ATOM     33  C11 non d ame     -31.847  12.993  29.436  0.00  0.00    -0.033 C 
ATOM     34  H12 non d ame     -32.891  12.687  29.374  0.00  0.00     0.042 H 
BRANCH  33  35
ATOM     35  C12 non d ame     -31.152  12.076  30.490  0.00  0.00    -0.071 C 
ATOM     36  H13 non d ame     -31.828  11.269  30.773  0.00  0.00     0.028 H 
ATOM     37  H14 non d ame     -30.243  11.654  30.062  0.00  0.00     0.028 H 
ATOM     38  H15 non d ame     -30.899  12.663  31.373  0.00  0.00     0.028 H 
ENDBRANCH  33  35
BRANCH  33  39
ATOM     39  C13 non d ame     -31.808  14.492  29.876  0.00  0.00    -0.071 C 
ATOM     40  H16 non d ame     -32.759  14.760  30.336  0.00  0.00     0.028 H 
ATOM     41  H17 non d ame     -31.002  14.638  30.596  0.00  0.00     0.028 H 
ATOM     42  H18 non d ame     -31.635  15.122  29.004  0.00  0.00     0.028 H 
ENDBRANCH  33  39
ENDBRANCH   7  33
ENDBRANCH   4   7
ENDBRANCH   1   3
BRANCH   1  43
ATOM     43  C15 non d ame     -33.783   9.532  26.308  0.00  0.00     0.240 C 
ATOM     44  O5  non d ame     -34.644  10.347  26.224  0.00  0.00    -0.271 OA
ATOM     45  N6  non d ame     -33.421   8.710  25.118  0.00  0.00    -0.355 N 
ATOM     46  H46 non d ame     -32.688   8.018  25.176  0.00  0.00     0.162 HD
BRANCH  45  47
ATOM     47  C20 non d ame     -34.143   8.910  23.843  0.00  0.00     0.013 C 
ATOM     48  H30 non d ame     -34.797   9.773  23.960  0.00  0.00     0.072 H 
BRANCH  47  49
ATOM     49  C21 non d ame     -34.963   7.678  23.534  0.00  0.00    -0.038 C 
ATOM     50  H31 non d ame     -35.650   7.973  22.741  0.00  0.00     0.036 H 
ATOM     51  H32 non d ame     -34.241   6.880  23.361  0.00  0.00     0.036 H 
BRANCH  49  52
ATOM     52  C22 non d ame     -35.837   7.226  24.724  0.00  0.00     0.018 C 
ATOM     53  H33 non d ame     -35.719   7.995  25.486  0.00  0.00     0.048 H 
ATOM     54  H34 non d ame     -36.822   7.019  24.305  0.00  0.00     0.048 H 
BRANCH  52  55
ATOM     55  C23 non d ame     -35.364   5.899  25.379  0.00  0.00     0.259 C 
ATOM     56  O7  non d ame     -35.711   4.851  24.939  0.00  0.00    -0.265 OA
BRANCH  55  57
ATOM     57  O8  non d ame     -34.518   5.949  26.522  0.00  0.00    -0.317 OA
BRANCH  57  58
ATOM     58  C29 non d ame     -34.549   4.763  27.321  0.00  0.00     0.052 C 
ATOM     59  H47 non d ame     -35.330   4.136  26.890  0.00  0.00     0.082 H 
ATOM     60  H48 non d ame     -33.520   4.404  27.357  0.00  0.00     0.082 H 
BRANCH  58  61
ATOM     61  C35 non d ame     -34.978   5.164  28.758  0.00  0.00    -0.034 A 
ATOM     62  C30 non d ame     -34.085   5.026  29.816  0.00  0.00    -0.075 A 
ATOM     63  C31 non d ame     -34.471   5.386  31.106  0.00  0.00    -0.082 A 
ATOM     64  H49 non d ame     -33.083   4.637  29.634  0.00  0.00     0.084 H 
ATOM     65  C32 non d ame     -35.757   5.883  31.337  0.00  0.00    -0.083 A 
ATOM     66  H50 non d ame     -33.768   5.279  31.933  0.00  0.00     0.083 H 
ATOM     67  C33 non d ame     -36.645   6.015  30.279  0.00  0.00    -0.082 A 
ATOM     68  H51 non d ame     -36.066   6.167  32.343  0.00  0.00     0.083 H 
ATOM     69  C34 non d ame     -36.263   5.658  28.987  0.00  0.00    -0.075 A 
ATOM     70  H52 non d ame     -37.649   6.400  30.463  0.00  0.00     0.083 H 
ATOM     71  H53 non d ame     -36.967   5.766  28.161  0.00  0.00     0.084 H 
ENDBRANCH  58  61
ENDBRANCH  57  58
ENDBRANCH  55  57
ENDBRANCH  52  55
ENDBRANCH  49  52
ENDBRANCH  47  49
BRANCH  47  72
ATOM     72  C24 non d ame     -33.141   9.152  22.715  0.00  0.00    -0.039 C 
ATOM     73  H35 non d ame     -33.441   8.480  21.911  0.00  0.00     0.036 H 
ATOM     74  H36 non d ame     -33.142  10.230  22.553  0.00  0.00     0.036 H 
BRANCH  72  75
ATOM     75  C25 non d ame     -31.654   8.740  23.145  0.00  0.00    -0.001 C 
ATOM     76  C26 non d ame     -30.675  10.060  23.111  0.00  0.00    -0.035 C 
ATOM     77  C27 non d ame     -29.573   9.767  22.379  0.00  0.00     0.085 C 
ATOM     78  H38 non d ame     -31.149  10.863  22.546  0.00  0.00     0.036 H 
ATOM     79  H39 non d ame     -30.275  10.256  24.106  0.00  0.00     0.036 H 
ATOM     80  N5  non d ame     -29.861   8.482  21.642  0.00  0.00    -0.049 N 
ATOM     81  H40 non d ame     -29.478  10.578  21.658  0.00  0.00     0.075 H 
ATOM     82  H41 non d ame     -28.780   9.589  23.106  0.00  0.00     0.075 H 
ATOM     83  C28 non d ame     -31.167   7.848  22.348  0.00  0.00     0.193 C 
ATOM     84  H42 non d ame     -30.102   8.743  20.696  0.00  0.00     0.280 HD
ATOM     85  H43 non d ame     -29.075   7.872  21.813  0.00  0.00     0.280 HD
ATOM     86  H44 non d ame     -31.072   7.003  23.030  0.00  0.00     0.129 H 
ATOM     87  H37 non d ame     -31.639   8.135  24.052  0.00  0.00     0.046 H 
BRANCH  83  88
ATOM     88  O6  non d ame     -32.112   7.436  21.359  0.00  0.00    -0.369 OA
ATOM     89  H45 non d ame     -31.658   7.287  20.525  0.00  0.00     0.212 HD
ENDBRANCH  83  88
ENDBRANCH  72  75
ENDBRANCH  47  72
ENDBRANCH  45  47
ENDBRANCH   1  43
BRANCH   1  90
ATOM     90  C16 non d ame     -33.952   8.653  28.658  0.00  0.00    -0.035 C 
ATOM     91  H21 non d ame     -34.740   8.195  28.061  0.00  0.00     0.037 H 
ATOM     92  H22 non d ame     -33.301   8.030  29.270  0.00  0.00     0.037 H 
BRANCH  90  93
ATOM     93  C17 non d ame     -34.660   9.645  29.635  0.00  0.00    -0.059 C 
ATOM     94  H23 non d ame     -34.243  10.636  29.460  0.00  0.00     0.038 H 
BRANCH  93  95
ATOM     95  C18 non d ame     -36.200   9.724  29.381  0.00  0.00    -0.073 C 
ATOM     96  H24 non d ame     -36.618   8.719  29.367  0.00  0.00     0.028 H 
ATOM     97  H25 non d ame     -36.670  10.302  30.176  0.00  0.00     0.028 H 
ATOM     98  H26 non d ame     -36.385  10.208  28.422  0.00  0.00     0.028 H 
ENDBRANCH  93  95
BRANCH  93  99
ATOM     99  C19 non d ame     -34.367   9.279  31.092  0.00  0.00    -0.073 C 
ATOM    100  H27 non d ame     -33.714   8.407  31.124  0.00  0.00     0.028 H 
ATOM    101  H28 non d ame     -33.877  10.118  31.587  0.00  0.00     0.028 H 
ATOM    102  H29 non d ame     -35.301   9.052  31.605  0.00  0.00     0.028 H 
ENDBRANCH  93  99
ENDBRANCH  90  93
ENDBRANCH   1  90
TORSDOF 26
ENDMDL
MODEL 13
REMARK VINA RESULT:      -5.9      1.875      4.774
REMARK  26 active torsions:
REMARK  status: ('A' for Active; 'I' for Inactive)
REMARK    1  A    between atoms: C2_2  and  C3_3 
REMARK    2  A    between atoms: C4_6  and  C5_7 
REMARK       I    between atoms: C5_7  and  N2_9 
REMARK    3  A    between atoms: N2_9  and  C6_10 
REMARK    4  A    between atoms: C6_10  and  C7_11 
REMARK    5  A    between atoms: C6_10  and  C8_13 
REMARK       I    between atoms: C7_11  and  N3_14 
REMARK    6  A    between atoms: N3_14  and  C9_15 
REMARK    7  A    between atoms: C9_15  and  C10_16 
REMARK    8  A    between atoms: C9_15  and  C11_18 
REMARK       I    between atoms: C10_16  and  N4_21 
REMARK    9  A    between atoms: C11_18  and  C12_19 
REMARK   10  A    between atoms: C11_18  and  C13_20 
REMARK   11  A    between atoms: N4_21  and  C14_22 
REMARK   12  A    between atoms: C14_22  and  C15_23 
REMARK   13  A    between atoms: C14_22  and  C16_25 
REMARK       I    between atoms: C15_23  and  N6_40 
REMARK   14  A    between atoms: C16_25  and  C17_26 
REMARK   15  A    between atoms: C17_26  and  C18_27 
REMARK   16  A    between atoms: C17_26  and  C19_28 
REMARK   17  A    between atoms: C20_29  and  C21_30 
REMARK   18  A    between atoms: C20_29  and  C24_33 
REMARK   19  A    between atoms: C20_29  and  N6_40 
REMARK   20  A    between atoms: C21_30  and  C22_31 
REMARK   21  A    between atoms: C22_31  and  C23_32 
REMARK   22  A    between atoms: C23_32  and  O8_43 
REMARK   23  A    between atoms: C24_33  and  C25_34 
REMARK   24  A    between atoms: C28_38  and  O6_39 
REMARK   25  A    between atoms: C29_42  and  O8_43 
REMARK   26  A    between atoms: C29_42  and  C35_49 
ROOT
ATOM      1  C14 non d ame     -36.140  13.830  26.303  0.00  0.00     0.089 C 
ATOM      2  H20 non d ame     -36.981  13.728  26.990  0.00  0.00     0.087 H 
ENDROOT
BRANCH   1   3
ATOM      3  N4  non d ame     -36.035  15.236  25.945  0.00  0.00    -0.346 N 
ATOM      4  C10 non d ame     -37.001  16.242  26.519  0.00  0.00     0.241 C 
ATOM      5  O4  non d ame     -37.856  15.896  27.265  0.00  0.00    -0.271 OA
ATOM      6  H19 non d ame     -35.302  15.510  25.306  0.00  0.00     0.163 HD
BRANCH   4   7
ATOM      7  C9  non d ame     -36.874  17.695  26.141  0.00  0.00     0.092 C 
ATOM      8  H11 non d ame     -37.178  18.313  26.986  0.00  0.00     0.088 H 
BRANCH   7   9
ATOM      9  N3  non d ame     -35.469  18.007  25.859  0.00  0.00    -0.346 N 
ATOM     10  C7  non d ame     -34.540  18.189  26.947  0.00  0.00     0.240 C 
ATOM     11  O3  non d ame     -34.905  18.090  28.055  0.00  0.00    -0.271 OA
ATOM     12  H10 non d ame     -35.140  18.097  24.909  0.00  0.00     0.163 HD
BRANCH  10  13
ATOM     13  C6  non d ame     -33.047  18.523  26.641  0.00  0.00     0.086 C 
ATOM     14  H6  non d ame     -32.401  18.405  27.511  0.00  0.00     0.086 H 
BRANCH  13  15
ATOM     15  N2  non d ame     -32.555  17.602  25.630  0.00  0.00    -0.343 N 
ATOM     16  C5  non d ame     -31.950  16.334  26.044  0.00  0.00     0.273 C 
ATOM     17  O2  non d ame     -31.861  16.065  27.191  0.00  0.00    -0.266 OA
ATOM     18  H5  non d ame     -32.632  17.840  24.652  0.00  0.00     0.163 HD
BRANCH  16  19
ATOM     19  C4  non d ame     -31.427  15.349  24.986  0.00  0.00     0.154 A 
ATOM     20  C1  non d ame     -30.695  15.665  23.798  0.00  0.00    -0.017 A 
ATOM     21  C2  non d ame     -30.455  14.419  23.176  0.00  0.00     0.077 A 
ATOM     22  H1  non d ame     -30.384  16.648  23.441  0.00  0.00     0.091 H 
ATOM     23  O1  non d ame     -30.990  13.502  23.928  0.00  0.00    -0.218 OA
ATOM     24  N1  non d ame     -31.564  14.020  24.989  0.00  0.00    -0.123 NA
BRANCH  21  25
ATOM     25  C3  non d ame     -29.708  14.193  21.869  0.00  0.00    -0.029 C 
ATOM     26  H2  non d ame     -29.454  15.155  21.424  0.00  0.00     0.036 H 
ATOM     27  H3  non d ame     -28.795  13.631  22.065  0.00  0.00     0.036 H 
ATOM     28  H4  non d ame     -30.340  13.630  21.182  0.00  0.00     0.036 H 
ENDBRANCH  21  25
ENDBRANCH  16  19
ENDBRANCH  13  15
BRANCH  13  29
ATOM     29  C8  non d ame     -32.939  19.942  26.143  0.00  0.00    -0.049 C 
ATOM     30  H7  non d ame     -33.466  20.035  25.194  0.00  0.00     0.030 H 
ATOM     31  H8  non d ame     -33.383  20.618  26.873  0.00  0.00     0.030 H 
ATOM     32  H9  non d ame     -31.888  20.199  26.002  0.00  0.00     0.030 H 
ENDBRANCH  13  29
ENDBRANCH  10  13
ENDBRANCH   7   9
BRANCH   7  33
ATOM     33  C11 non d ame     -37.730  17.977  24.872  0.00  0.00    -0.033 C 
ATOM     34  H12 non d ame     -37.607  17.130  24.197  0.00  0.00     0.042 H 
BRANCH  33  35
ATOM     35  C12 non d ame     -39.247  18.083  25.221  0.00  0.00    -0.071 C 
ATOM     36  H13 non d ame     -39.605  17.117  25.578  0.00  0.00     0.028 H 
ATOM     37  H14 non d ame     -39.390  18.834  25.997  0.00  0.00     0.028 H 
ATOM     38  H15 non d ame     -39.806  18.369  24.330  0.00  0.00     0.028 H 
ENDBRANCH  33  35
BRANCH  33  39
ATOM     39  C13 non d ame     -37.228  19.260  24.133  0.00  0.00    -0.071 C 
ATOM     40  H16 non d ame     -37.887  20.095  24.368  0.00  0.00     0.028 H 
ATOM     41  H17 non d ame     -36.214  19.493  24.458  0.00  0.00     0.028 H 
ATOM     42  H18 non d ame     -37.232  19.084  23.057  0.00  0.00     0.028 H 
ENDBRANCH  33  39
ENDBRANCH   7  33
ENDBRANCH   4   7
ENDBRANCH   1   3
BRANCH   1  43
ATOM     43  C15 non d ame     -34.797  13.381  26.948  0.00  0.00     0.240 C 
ATOM     44  O5  non d ame     -34.205  14.128  27.658  0.00  0.00    -0.271 OA
ATOM     45  N6  non d ame     -34.254  12.018  26.687  0.00  0.00    -0.355 N 
ATOM     46  H46 non d ame     -34.751  11.373  26.090  0.00  0.00     0.162 HD
BRANCH  45  47
ATOM     47  C20 non d ame     -32.977  11.606  27.309  0.00  0.00     0.013 C 
ATOM     48  H30 non d ame     -32.355  12.494  27.416  0.00  0.00     0.072 H 
BRANCH  47  49
ATOM     49  C21 non d ame     -32.290  10.597  26.417  0.00  0.00    -0.038 C 
ATOM     50  H31 non d ame     -32.517  10.903  25.396  0.00  0.00     0.036 H 
ATOM     51  H32 non d ame     -31.255  10.561  26.758  0.00  0.00     0.036 H 
BRANCH  49  52
ATOM     52  C22 non d ame     -32.854   9.170  26.581  0.00  0.00     0.018 C 
ATOM     53  H33 non d ame     -31.992   8.531  26.773  0.00  0.00     0.048 H 
ATOM     54  H34 non d ame     -33.649   9.250  27.323  0.00  0.00     0.048 H 
BRANCH  52  55
ATOM     55  C23 non d ame     -33.523   8.609  25.295  0.00  0.00     0.259 C 
ATOM     56  O7  non d ame     -33.960   7.504  25.275  0.00  0.00    -0.265 OA
BRANCH  55  57
ATOM     57  O8  non d ame     -33.597   9.429  24.135  0.00  0.00    -0.317 OA
BRANCH  57  58
ATOM     58  C29 non d ame     -33.285   8.745  22.918  0.00  0.00     0.052 C 
ATOM     59  H47 non d ame     -33.693   7.740  23.031  0.00  0.00     0.082 H 
ATOM     60  H48 non d ame     -33.641   9.391  22.116  0.00  0.00     0.082 H 
BRANCH  58  61
ATOM     61  C35 non d ame     -31.740   8.637  22.812  0.00  0.00    -0.034 A 
ATOM     62  C30 non d ame     -30.963   9.791  22.767  0.00  0.00    -0.075 A 
ATOM     63  C31 non d ame     -29.576   9.695  22.671  0.00  0.00    -0.082 A 
ATOM     64  H49 non d ame     -31.441  10.770  22.805  0.00  0.00     0.084 H 
ATOM     65  C32 non d ame     -28.965   8.439  22.619  0.00  0.00    -0.083 A 
ATOM     66  H50 non d ame     -28.970  10.600  22.637  0.00  0.00     0.083 H 
ATOM     67  C33 non d ame     -29.745   7.291  22.661  0.00  0.00    -0.082 A 
ATOM     68  H51 non d ame     -27.881   8.354  22.545  0.00  0.00     0.083 H 
ATOM     69  C34 non d ame     -31.132   7.382  22.759  0.00  0.00    -0.075 A 
ATOM     70  H52 non d ame     -29.266   6.312  22.618  0.00  0.00     0.083 H 
ATOM     71  H53 non d ame     -31.737   6.476  22.793  0.00  0.00     0.084 H 
ENDBRANCH  58  61
ENDBRANCH  57  58
ENDBRANCH  55  57
ENDBRANCH  52  55
ENDBRANCH  49  52
ENDBRANCH  47  49
BRANCH  47  72
ATOM     72  C24 non d ame     -33.246  10.979  28.676  0.00  0.00    -0.039 C 
ATOM     73  H35 non d ame     -34.331  10.893  28.746  0.00  0.00     0.036 H 
ATOM     74  H36 non d ame     -32.625  10.085  28.712  0.00  0.00     0.036 H 
BRANCH  72  75
ATOM     75  C25 non d ame     -32.770  11.935  29.870  0.00  0.00    -0.001 C 
ATOM     76  C26 non d ame     -31.350  12.662  29.473  0.00  0.00    -0.035 C 
ATOM     77  C27 non d ame     -30.466  12.473  30.481  0.00  0.00     0.085 C 
ATOM     78  H38 non d ame     -30.889  12.147  28.630  0.00  0.00     0.036 H 
ATOM     79  H39 non d ame     -31.478  13.744  29.446  0.00  0.00     0.036 H 
ATOM     80  N5  non d ame     -31.044  11.409  31.382  0.00  0.00    -0.049 N 
ATOM     81  H40 non d ame     -29.563  12.086  30.008  0.00  0.00     0.075 H 
ATOM     82  H41 non d ame     -30.435  13.418  31.023  0.00  0.00     0.075 H 
ATOM     83  C28 non d ame     -32.597  11.267  30.962  0.00  0.00     0.193 C 
ATOM     84  H42 non d ame     -30.569  10.548  31.151  0.00  0.00     0.280 HD
ATOM     85  H43 non d ame     -30.997  11.774  32.323  0.00  0.00     0.280 HD
ATOM     86  H44 non d ame     -33.380  11.699  31.585  0.00  0.00     0.129 H 
ATOM     87  H37 non d ame     -33.573  12.578  30.230  0.00  0.00     0.046 H 
BRANCH  83  88
ATOM     88  O6  non d ame     -32.943   9.889  30.812  0.00  0.00    -0.369 OA
ATOM     89  H45 non d ame     -33.415   9.591  31.593  0.00  0.00     0.212 HD
ENDBRANCH  83  88
ENDBRANCH  72  75
ENDBRANCH  47  72
ENDBRANCH  45  47
ENDBRANCH   1  43
BRANCH   1  90
ATOM     90  C16 non d ame     -36.400  13.015  25.046  0.00  0.00    -0.035 C 
ATOM     91  H21 non d ame     -36.077  13.648  24.220  0.00  0.00     0.037 H 
ATOM     92  H22 non d ame     -35.915  12.054  25.219  0.00  0.00     0.037 H 
BRANCH  90  93
ATOM     93  C17 non d ame     -37.912  12.708  24.800  0.00  0.00    -0.059 C 
ATOM     94  H23 non d ame     -37.977  11.735  24.313  0.00  0.00     0.038 H 
BRANCH  93  95
ATOM     95  C18 non d ame     -38.722  12.629  26.134  0.00  0.00    -0.073 C 
ATOM     96  H24 non d ame     -39.663  12.110  25.957  0.00  0.00     0.028 H 
ATOM     97  H25 non d ame     -38.143  12.085  26.879  0.00  0.00     0.028 H 
ATOM     98  H26 non d ame     -38.925  13.636  26.496  0.00  0.00     0.028 H 
ENDBRANCH  93  95
BRANCH  93  99
ATOM     99  C19 non d ame     -38.530  13.735  23.847  0.00  0.00    -0.073 C 
ATOM    100  H27 non d ame     -39.573  13.902  24.119  0.00  0.00     0.028 H 
ATOM    101  H28 non d ame     -37.982  14.675  23.919  0.00  0.00     0.028 H 
ATOM    102  H29 non d ame     -38.476  13.361  22.825  0.00  0.00     0.028 H 
ENDBRANCH  93  99
ENDBRANCH  90  93
ENDBRANCH   1  90
TORSDOF 26
ENDMDL
MODEL 14
REMARK VINA RESULT:      -5.9      3.663      8.898
REMARK  26 active torsions:
REMARK  status: ('A' for Active; 'I' for Inactive)
REMARK    1  A    between atoms: C2_2  and  C3_3 
REMARK    2  A    between atoms: C4_6  and  C5_7 
REMARK       I    between atoms: C5_7  and  N2_9 
REMARK    3  A    between atoms: N2_9  and  C6_10 
REMARK    4  A    between atoms: C6_10  and  C7_11 
REMARK    5  A    between atoms: C6_10  and  C8_13 
REMARK       I    between atoms: C7_11  and  N3_14 
REMARK    6  A    between atoms: N3_14  and  C9_15 
REMARK    7  A    between atoms: C9_15  and  C10_16 
REMARK    8  A    between atoms: C9_15  and  C11_18 
REMARK       I    between atoms: C10_16  and  N4_21 
REMARK    9  A    between atoms: C11_18  and  C12_19 
REMARK   10  A    between atoms: C11_18  and  C13_20 
REMARK   11  A    between atoms: N4_21  and  C14_22 
REMARK   12  A    between atoms: C14_22  and  C15_23 
REMARK   13  A    between atoms: C14_22  and  C16_25 
REMARK       I    between atoms: C15_23  and  N6_40 
REMARK   14  A    between atoms: C16_25  and  C17_26 
REMARK   15  A    between atoms: C17_26  and  C18_27 
REMARK   16  A    between atoms: C17_26  and  C19_28 
REMARK   17  A    between atoms: C20_29  and  C21_30 
REMARK   18  A    between atoms: C20_29  and  C24_33 
REMARK   19  A    between atoms: C20_29  and  N6_40 
REMARK   20  A    between atoms: C21_30  and  C22_31 
REMARK   21  A    between atoms: C22_31  and  C23_32 
REMARK   22  A    between atoms: C23_32  and  O8_43 
REMARK   23  A    between atoms: C24_33  and  C25_34 
REMARK   24  A    between atoms: C28_38  and  O6_39 
REMARK   25  A    between atoms: C29_42  and  O8_43 
REMARK   26  A    between atoms: C29_42  and  C35_49 
ROOT
ATOM      1  C14 non d ame     -32.800  10.206  25.555  0.00  0.00     0.089 C 
ATOM      2  H20 non d ame     -33.433  10.199  24.668  0.00  0.00     0.087 H 
ENDROOT
BRANCH   1   3
ATOM      3  N4  non d ame     -32.133   8.914  25.627  0.00  0.00    -0.346 N 
ATOM      4  C10 non d ame     -32.770   7.693  25.014  0.00  0.00     0.241 C 
ATOM      5  O4  non d ame     -33.822   7.773  24.470  0.00  0.00    -0.271 OA
ATOM      6  H19 non d ame     -31.240   8.866  26.096  0.00  0.00     0.163 HD
BRANCH   4   7
ATOM      7  C9  non d ame     -32.063   6.365  25.092  0.00  0.00     0.092 C 
ATOM      8  H11 non d ame     -31.128   6.489  25.640  0.00  0.00     0.088 H 
BRANCH   7   9
ATOM      9  N3  non d ame     -32.886   5.416  25.848  0.00  0.00    -0.346 N 
ATOM     10  C7  non d ame     -32.852   5.423  27.290  0.00  0.00     0.240 C 
ATOM     11  O3  non d ame     -32.166   6.183  27.858  0.00  0.00    -0.271 OA
ATOM     12  H10 non d ame     -33.481   4.753  25.372  0.00  0.00     0.163 HD
BRANCH  10  13
ATOM     13  C6  non d ame     -33.728   4.408  28.089  0.00  0.00     0.086 C 
ATOM     14  H6  non d ame     -33.213   4.000  28.959  0.00  0.00     0.086 H 
BRANCH  13  15
ATOM     15  N2  non d ame     -34.907   5.095  28.589  0.00  0.00    -0.343 N 
ATOM     16  C5  non d ame     -35.015   5.396  30.018  0.00  0.00     0.273 C 
ATOM     17  O2  non d ame     -34.150   5.078  30.758  0.00  0.00    -0.266 OA
ATOM     18  H5  non d ame     -35.643   5.361  27.950  0.00  0.00     0.163 HD
BRANCH  16  19
ATOM     19  C4  non d ame     -36.256   6.123  30.560  0.00  0.00     0.154 A 
ATOM     20  C1  non d ame     -36.504   7.532  30.553  0.00  0.00    -0.017 A 
ATOM     21  C2  non d ame     -37.770   7.681  31.160  0.00  0.00     0.077 A 
ATOM     22  H1  non d ame     -35.863   8.325  30.167  0.00  0.00     0.091 H 
ATOM     23  O1  non d ame     -38.192   6.492  31.474  0.00  0.00    -0.218 OA
ATOM     24  N1  non d ame     -37.326   5.566  31.134  0.00  0.00    -0.123 NA
BRANCH  21  25
ATOM     25  C3  non d ame     -38.506   8.993  31.402  0.00  0.00    -0.029 C 
ATOM     26  H2  non d ame     -37.800   9.748  31.747  0.00  0.00     0.036 H 
ATOM     27  H3  non d ame     -38.967   9.327  30.472  0.00  0.00     0.036 H 
ATOM     28  H4  non d ame     -39.277   8.844  32.157  0.00  0.00     0.036 H 
ENDBRANCH  21  25
ENDBRANCH  16  19
ENDBRANCH  13  15
BRANCH  13  29
ATOM     29  C8  non d ame     -34.136   3.272  27.186  0.00  0.00    -0.049 C 
ATOM     30  H7  non d ame     -34.305   3.652  26.179  0.00  0.00     0.030 H 
ATOM     31  H8  non d ame     -33.344   2.524  27.164  0.00  0.00     0.030 H 
ATOM     32  H9  non d ame     -35.053   2.820  27.563  0.00  0.00     0.030 H 
ENDBRANCH  13  29
ENDBRANCH  10  13
ENDBRANCH   7   9
BRANCH   7  33
ATOM     33  C11 non d ame     -31.831   5.815  23.654  0.00  0.00    -0.033 C 
ATOM     34  H12 non d ame     -31.030   5.078  23.710  0.00  0.00     0.042 H 
BRANCH  33  35
ATOM     35  C12 non d ame     -33.101   5.089  23.112  0.00  0.00    -0.071 C 
ATOM     36  H13 non d ame     -32.875   4.633  22.148  0.00  0.00     0.028 H 
ATOM     37  H14 non d ame     -33.406   4.316  23.816  0.00  0.00     0.028 H 
ATOM     38  H15 non d ame     -33.908   5.811  22.991  0.00  0.00     0.028 H 
ENDBRANCH  33  35
BRANCH  33  39
ATOM     39  C13 non d ame     -31.373   6.954  22.687  0.00  0.00    -0.071 C 
ATOM     40  H16 non d ame     -32.092   7.051  21.874  0.00  0.00     0.028 H 
ATOM     41  H17 non d ame     -31.314   7.895  23.236  0.00  0.00     0.028 H 
ATOM     42  H18 non d ame     -30.392   6.711  22.279  0.00  0.00     0.028 H 
ENDBRANCH  33  39
ENDBRANCH   7  33
ENDBRANCH   4   7
ENDBRANCH   1   3
BRANCH   1  43
ATOM     43  C15 non d ame     -31.717  11.320  25.496  0.00  0.00     0.240 C 
ATOM     44  O5  non d ame     -30.704  11.193  26.104  0.00  0.00    -0.271 OA
ATOM     45  N6  non d ame     -31.939  12.544  24.673  0.00  0.00    -0.355 N 
ATOM     46  H46 non d ame     -32.794  12.661  24.149  0.00  0.00     0.162 HD
BRANCH  45  47
ATOM     47  C20 non d ame     -30.899  13.594  24.626  0.00  0.00     0.013 C 
ATOM     48  H30 non d ame     -30.090  13.295  25.294  0.00  0.00     0.072 H 
BRANCH  47  49
ATOM     49  C21 non d ame     -31.492  14.906  25.088  0.00  0.00    -0.038 C 
ATOM     50  H31 non d ame     -30.658  15.481  25.491  0.00  0.00     0.036 H 
ATOM     51  H32 non d ame     -32.058  15.288  24.238  0.00  0.00     0.036 H 
BRANCH  49  52
ATOM     52  C22 non d ame     -32.501  14.733  26.243  0.00  0.00     0.018 C 
ATOM     53  H33 non d ame     -32.569  13.660  26.419  0.00  0.00     0.048 H 
ATOM     54  H34 non d ame     -32.156  15.395  27.038  0.00  0.00     0.048 H 
BRANCH  52  55
ATOM     55  C23 non d ame     -33.941  15.201  25.892  0.00  0.00     0.259 C 
ATOM     56  O7  non d ame     -34.315  15.208  24.764  0.00  0.00    -0.265 OA
BRANCH  55  57
ATOM     57  O8  non d ame     -34.807  15.634  26.934  0.00  0.00    -0.317 OA
BRANCH  57  58
ATOM     58  C29 non d ame     -34.134  16.276  28.021  0.00  0.00     0.052 C 
ATOM     59  H47 non d ame     -34.839  16.264  28.853  0.00  0.00     0.082 H 
ATOM     60  H48 non d ame     -33.173  15.769  28.114  0.00  0.00     0.082 H 
BRANCH  58  61
ATOM     61  C35 non d ame     -33.873  17.752  27.619  0.00  0.00    -0.034 A 
ATOM     62  C30 non d ame     -34.940  18.585  27.296  0.00  0.00    -0.075 A 
ATOM     63  C31 non d ame     -34.706  19.910  26.935  0.00  0.00    -0.082 A 
ATOM     64  H49 non d ame     -35.959  18.199  27.326  0.00  0.00     0.084 H 
ATOM     65  C32 non d ame     -33.398  20.402  26.894  0.00  0.00    -0.083 A 
ATOM     66  H50 non d ame     -35.544  20.561  26.684  0.00  0.00     0.083 H 
ATOM     67  C33 non d ame     -32.337  19.567  27.213  0.00  0.00    -0.082 A 
ATOM     68  H51 non d ame     -33.207  21.438  26.612  0.00  0.00     0.083 H 
ATOM     69  C34 non d ame     -32.566  18.241  27.577  0.00  0.00    -0.075 A 
ATOM     70  H52 non d ame     -31.318  19.953  27.178  0.00  0.00     0.083 H 
ATOM     71  H53 non d ame     -31.728  17.592  27.828  0.00  0.00     0.084 H 
ENDBRANCH  58  61
ENDBRANCH  57  58
ENDBRANCH  55  57
ENDBRANCH  52  55
ENDBRANCH  49  52
ENDBRANCH  47  49
BRANCH  47  72
ATOM     72  C24 non d ame     -30.380  13.743  23.198  0.00  0.00    -0.039 C 
ATOM     73  H35 non d ame     -29.378  13.313  23.207  0.00  0.00     0.036 H 
ATOM     74  H36 non d ame     -31.152  13.311  22.562  0.00  0.00     0.036 H 
BRANCH  72  75
ATOM     75  C25 non d ame     -30.230  15.282  22.780  0.00  0.00    -0.001 C 
ATOM     76  C26 non d ame     -31.321  15.653  21.606  0.00  0.00    -0.035 C 
ATOM     77  C27 non d ame     -30.670  16.249  20.578  0.00  0.00     0.085 C 
ATOM     78  H38 non d ame     -31.716  14.740  21.162  0.00  0.00     0.036 H 
ATOM     79  H39 non d ame     -32.002  16.426  21.960  0.00  0.00     0.036 H 
ATOM     80  N5  non d ame     -29.194  16.025  20.800  0.00  0.00    -0.049 N 
ATOM     81  H40 non d ame     -30.982  15.709  19.684  0.00  0.00     0.075 H 
ATOM     82  H41 non d ame     -30.886  17.312  20.675  0.00  0.00     0.075 H 
ATOM     83  C28 non d ame     -29.045  15.531  22.330  0.00  0.00     0.193 C 
ATOM     84  H42 non d ame     -28.925  15.266  20.190  0.00  0.00     0.280 HD
ATOM     85  H43 non d ame     -28.751  16.928  20.709  0.00  0.00     0.280 HD
ATOM     86  H44 non d ame     -28.681  16.213  23.099  0.00  0.00     0.129 H 
ATOM     87  H37 non d ame     -30.189  15.943  23.645  0.00  0.00     0.046 H 
BRANCH  83  88
ATOM     88  O6  non d ame     -28.191  14.388  22.398  0.00  0.00    -0.369 OA
ATOM     89  H45 non d ame     -28.367  13.905  23.210  0.00  0.00     0.212 HD
ENDBRANCH  83  88
ENDBRANCH  72  75
ENDBRANCH  47  72
ENDBRANCH  45  47
ENDBRANCH   1  43
BRANCH   1  90
ATOM     90  C16 non d ame     -33.657  10.391  26.797  0.00  0.00    -0.035 C 
ATOM     91  H21 non d ame     -33.788   9.391  27.210  0.00  0.00     0.037 H 
ATOM     92  H22 non d ame     -33.154  11.160  27.383  0.00  0.00     0.037 H 
BRANCH  90  93
ATOM     93  C17 non d ame     -35.090  10.933  26.495  0.00  0.00    -0.059 C 
ATOM     94  H23 non d ame     -35.117  11.982  26.792  0.00  0.00     0.038 H 
BRANCH  93  95
ATOM     95  C18 non d ame     -35.439  10.861  24.974  0.00  0.00    -0.073 C 
ATOM     96  H24 non d ame     -36.429  11.283  24.807  0.00  0.00     0.028 H 
ATOM     97  H25 non d ame     -34.703  11.427  24.404  0.00  0.00     0.028 H 
ATOM     98  H26 non d ame     -35.428   9.821  24.648  0.00  0.00     0.028 H 
ENDBRANCH  93  95
BRANCH  93  99
ATOM     99  C19 non d ame     -36.141  10.198  27.330  0.00  0.00    -0.073 C 
ATOM    100  H27 non d ame     -37.137  10.438  26.956  0.00  0.00     0.028 H 
ATOM    101  H28 non d ame     -35.976   9.122  27.258  0.00  0.00     0.028 H 
ATOM    102  H29 non d ame     -36.059  10.507  28.372  0.00  0.00     0.028 H 
ENDBRANCH  93  99
ENDBRANCH  90  93
ENDBRANCH   1  90
TORSDOF 26
ENDMDL
MODEL 15
REMARK VINA RESULT:      -5.8      3.032      6.418
REMARK  26 active torsions:
REMARK  status: ('A' for Active; 'I' for Inactive)
REMARK    1  A    between atoms: C2_2  and  C3_3 
REMARK    2  A    between atoms: C4_6  and  C5_7 
REMARK       I    between atoms: C5_7  and  N2_9 
REMARK    3  A    between atoms: N2_9  and  C6_10 
REMARK    4  A    between atoms: C6_10  and  C7_11 
REMARK    5  A    between atoms: C6_10  and  C8_13 
REMARK       I    between atoms: C7_11  and  N3_14 
REMARK    6  A    between atoms: N3_14  and  C9_15 
REMARK    7  A    between atoms: C9_15  and  C10_16 
REMARK    8  A    between atoms: C9_15  and  C11_18 
REMARK       I    between atoms: C10_16  and  N4_21 
REMARK    9  A    between atoms: C11_18  and  C12_19 
REMARK   10  A    between atoms: C11_18  and  C13_20 
REMARK   11  A    between atoms: N4_21  and  C14_22 
REMARK   12  A    between atoms: C14_22  and  C15_23 
REMARK   13  A    between atoms: C14_22  and  C16_25 
REMARK       I    between atoms: C15_23  and  N6_40 
REMARK   14  A    between atoms: C16_25  and  C17_26 
REMARK   15  A    between atoms: C17_26  and  C18_27 
REMARK   16  A    between atoms: C17_26  and  C19_28 
REMARK   17  A    between atoms: C20_29  and  C21_30 
REMARK   18  A    between atoms: C20_29  and  C24_33 
REMARK   19  A    between atoms: C20_29  and  N6_40 
REMARK   20  A    between atoms: C21_30  and  C22_31 
REMARK   21  A    between atoms: C22_31  and  C23_32 
REMARK   22  A    between atoms: C23_32  and  O8_43 
REMARK   23  A    between atoms: C24_33  and  C25_34 
REMARK   24  A    between atoms: C28_38  and  O6_39 
REMARK   25  A    between atoms: C29_42  and  O8_43 
REMARK   26  A    between atoms: C29_42  and  C35_49 
ROOT
ATOM      1  C14 non d ame     -34.303   6.580  28.514  0.00  0.00     0.089 C 
ATOM      2  H20 non d ame     -33.971   5.622  28.914  0.00  0.00     0.087 H 
ENDROOT
BRANCH   1   3
ATOM      3  N4  non d ame     -34.140   7.574  29.564  0.00  0.00    -0.346 N 
ATOM      4  C10 non d ame     -34.375   9.035  29.274  0.00  0.00     0.241 C 
ATOM      5  O4  non d ame     -34.693   9.387  28.186  0.00  0.00    -0.271 OA
ATOM      6  H19 non d ame     -33.866   7.255  30.483  0.00  0.00     0.163 HD
BRANCH   4   7
ATOM      7  C9  non d ame     -34.206  10.050  30.374  0.00  0.00     0.092 C 
ATOM      8  H11 non d ame     -33.421   9.716  31.052  0.00  0.00     0.088 H 
BRANCH   7   9
ATOM      9  N3  non d ame     -33.771  11.326  29.800  0.00  0.00    -0.346 N 
ATOM     10  C7  non d ame     -32.408  11.767  29.975  0.00  0.00     0.240 C 
ATOM     11  O3  non d ame     -31.650  11.107  30.575  0.00  0.00    -0.271 OA
ATOM     12  H10 non d ame     -34.413  11.907  29.281  0.00  0.00     0.163 HD
BRANCH  10  13
ATOM     13  C6  non d ame     -31.951  13.128  29.364  0.00  0.00     0.086 C 
ATOM     14  H6  non d ame     -31.502  13.017  28.377  0.00  0.00     0.086 H 
BRANCH  13  15
ATOM     15  N2  non d ame     -33.113  13.985  29.199  0.00  0.00    -0.343 N 
ATOM     16  C5  non d ame     -33.124  14.988  28.132  0.00  0.00     0.273 C 
ATOM     17  O2  non d ame     -32.192  15.099  27.413  0.00  0.00    -0.266 OA
ATOM     18  H5  non d ame     -33.904  13.884  29.819  0.00  0.00     0.163 HD
BRANCH  16  19
ATOM     19  C4  non d ame     -34.347  15.899  27.944  0.00  0.00     0.154 A 
ATOM     20  C1  non d ame     -35.562  15.586  27.257  0.00  0.00    -0.017 A 
ATOM     21  C2  non d ame     -36.355  16.749  27.371  0.00  0.00     0.077 A 
ATOM     22  H1  non d ame     -35.828  14.656  26.752  0.00  0.00     0.091 H 
ATOM     23  O1  non d ame     -35.668  17.622  28.048  0.00  0.00    -0.218 OA
ATOM     24  N1  non d ame     -34.492  17.149  28.393  0.00  0.00    -0.123 NA
BRANCH  21  25
ATOM     25  C3  non d ame     -37.757  16.944  26.807  0.00  0.00    -0.029 C 
ATOM     26  H2  non d ame     -37.693  17.435  25.837  0.00  0.00     0.036 H 
ATOM     27  H3  non d ame     -38.240  15.974  26.692  0.00  0.00     0.036 H 
ATOM     28  H4  non d ame     -38.340  17.561  27.490  0.00  0.00     0.036 H 
ENDBRANCH  21  25
ENDBRANCH  16  19
ENDBRANCH  13  15
BRANCH  13  29
ATOM     29  C8  non d ame     -30.952  13.784  30.283  0.00  0.00    -0.049 C 
ATOM     30  H7  non d ame     -30.612  13.062  31.025  0.00  0.00     0.030 H 
ATOM     31  H8  non d ame     -30.100  14.135  29.702  0.00  0.00     0.030 H 
ATOM     32  H9  non d ame     -31.422  14.629  30.787  0.00  0.00     0.030 H 
ENDBRANCH  13  29
ENDBRANCH  10  13
ENDBRANCH   7   9
BRANCH   7  33
ATOM     33  C11 non d ame     -35.565  10.251  31.107  0.00  0.00    -0.033 C 
ATOM     34  H12 non d ame     -35.639  11.304  31.379  0.00  0.00     0.042 H 
BRANCH  33  35
ATOM     35  C12 non d ame     -36.770   9.923  30.171  0.00  0.00    -0.071 C 
ATOM     36  H13 non d ame     -36.443   9.959  29.131  0.00  0.00     0.028 H 
ATOM     37  H14 non d ame     -37.146   8.926  30.399  0.00  0.00     0.028 H 
ATOM     38  H15 non d ame     -37.562  10.655  30.327  0.00  0.00     0.028 H 
ENDBRANCH  33  35
BRANCH  33  39
ATOM     39  C13 non d ame     -35.623   9.407  32.421  0.00  0.00    -0.071 C 
ATOM     40  H16 non d ame     -35.595  10.074  33.283  0.00  0.00     0.028 H 
ATOM     41  H17 non d ame     -36.546   8.826  32.440  0.00  0.00     0.028 H 
ATOM     42  H18 non d ame     -34.769   8.731  32.456  0.00  0.00     0.028 H 
ENDBRANCH  33  39
ENDBRANCH   7  33
ENDBRANCH   4   7
ENDBRANCH   1   3
BRANCH   1  43
ATOM     43  C15 non d ame     -33.468   7.023  27.279  0.00  0.00     0.240 C 
ATOM     44  O5  non d ame     -32.283   6.937  27.306  0.00  0.00    -0.271 OA
ATOM     45  N6  non d ame     -34.146   7.545  26.058  0.00  0.00    -0.355 N 
ATOM     46  H46 non d ame     -35.152   7.618  26.022  0.00  0.00     0.162 HD
BRANCH  45  47
ATOM     47  C20 non d ame     -33.338   7.960  24.892  0.00  0.00     0.013 C 
ATOM     48  H30 non d ame     -32.322   7.594  25.040  0.00  0.00     0.072 H 
BRANCH  47  49
ATOM     49  C21 non d ame     -33.335   9.469  24.797  0.00  0.00    -0.038 C 
ATOM     50  H31 non d ame     -33.501   9.699  23.745  0.00  0.00     0.036 H 
ATOM     51  H32 non d ame     -34.045   9.812  25.549  0.00  0.00     0.036 H 
BRANCH  49  52
ATOM     52  C22 non d ame     -31.971  10.090  25.169  0.00  0.00     0.018 C 
ATOM     53  H33 non d ame     -32.195  10.908  25.853  0.00  0.00     0.048 H 
ATOM     54  H34 non d ame     -31.348   9.259  25.499  0.00  0.00     0.048 H 
BRANCH  52  55
ATOM     55  C23 non d ame     -31.226  10.733  23.966  0.00  0.00     0.259 C 
ATOM     56  O7  non d ame     -31.298  10.247  22.883  0.00  0.00    -0.265 OA
BRANCH  55  57
ATOM     57  O8  non d ame     -30.445  11.903  24.174  0.00  0.00    -0.317 OA
BRANCH  57  58
ATOM     58  C29 non d ame     -31.217  13.091  24.367  0.00  0.00     0.052 C 
ATOM     59  H47 non d ame     -32.256  12.795  24.221  0.00  0.00     0.082 H 
ATOM     60  H48 non d ame     -30.897  13.499  25.326  0.00  0.00     0.082 H 
BRANCH  58  61
ATOM     61  C35 non d ame     -30.832  14.100  23.252  0.00  0.00    -0.034 A 
ATOM     62  C30 non d ame     -31.409  15.365  23.228  0.00  0.00    -0.075 A 
ATOM     63  C31 non d ame     -31.063  16.271  22.226  0.00  0.00    -0.082 A 
ATOM     64  H49 non d ame     -32.131  15.648  23.993  0.00  0.00     0.084 H 
ATOM     65  C32 non d ame     -30.139  15.905  21.243  0.00  0.00    -0.083 A 
ATOM     66  H50 non d ame     -31.516  17.263  22.210  0.00  0.00     0.083 H 
ATOM     67  C33 non d ame     -29.569  14.640  21.269  0.00  0.00    -0.082 A 
ATOM     68  H51 non d ame     -29.863  16.608  20.456  0.00  0.00     0.083 H 
ATOM     69  C34 non d ame     -29.910  13.733  22.270  0.00  0.00    -0.075 A 
ATOM     70  H52 non d ame     -28.850  14.357  20.500  0.00  0.00     0.083 H 
ATOM     71  H53 non d ame     -29.457  12.741  22.285  0.00  0.00     0.084 H 
ENDBRANCH  58  61
ENDBRANCH  57  58
ENDBRANCH  55  57
ENDBRANCH  52  55
ENDBRANCH  49  52
ENDBRANCH  47  49
BRANCH  47  72
ATOM     72  C24 non d ame     -33.933   7.370  23.615  0.00  0.00    -0.039 C 
ATOM     73  H35 non d ame     -34.657   6.627  23.949  0.00  0.00     0.036 H 
ATOM     74  H36 non d ame     -34.262   8.226  23.026  0.00  0.00     0.036 H 
BRANCH  72  75
ATOM     75  C25 non d ame     -32.829   6.598  22.748  0.00  0.00    -0.001 C 
ATOM     76  C26 non d ame     -31.422   6.498  23.594  0.00  0.00    -0.035 C 
ATOM     77  C27 non d ame     -30.411   6.948  22.814  0.00  0.00     0.085 C 
ATOM     78  H38 non d ame     -31.435   7.202  24.426  0.00  0.00     0.036 H 
ATOM     79  H39 non d ame     -31.164   5.453  23.769  0.00  0.00     0.036 H 
ATOM     80  N5  non d ame     -31.041   7.649  21.635  0.00  0.00    -0.049 N 
ATOM     81  H40 non d ame     -29.878   7.680  23.421  0.00  0.00     0.075 H 
ATOM     82  H41 non d ame     -29.895   6.055  22.462  0.00  0.00     0.075 H 
ATOM     83  C28 non d ame     -32.595   7.210  21.636  0.00  0.00     0.193 C 
ATOM     84  H42 non d ame     -30.986   8.639  21.828  0.00  0.00     0.280 HD
ATOM     85  H43 non d ame     -30.600   7.271  20.809  0.00  0.00     0.280 HD
ATOM     86  H44 non d ame     -32.962   6.472  20.922  0.00  0.00     0.129 H 
ATOM     87  H37 non d ame     -33.214   5.674  22.317  0.00  0.00     0.046 H 
BRANCH  83  88
ATOM     88  O6  non d ame     -33.431   8.356  21.465  0.00  0.00    -0.369 OA
ATOM     89  H45 non d ame     -34.213   8.110  20.966  0.00  0.00     0.212 HD
ENDBRANCH  83  88
ENDBRANCH  72  75
ENDBRANCH  47  72
ENDBRANCH  45  47
ENDBRANCH   1  43
BRANCH   1  90
ATOM     90  C16 non d ame     -35.773   6.498  28.134  0.00  0.00    -0.035 C 
ATOM     91  H21 non d ame     -36.186   7.479  28.364  0.00  0.00     0.037 H 
ATOM     92  H22 non d ame     -35.786   6.128  27.109  0.00  0.00     0.037 H 
BRANCH  90  93
ATOM     93  C17 non d ame     -36.583   5.468  28.985  0.00  0.00    -0.059 C 
ATOM     94  H23 non d ame     -35.872   4.766  29.420  0.00  0.00     0.038 H 
BRANCH  93  95
ATOM     95  C18 non d ame     -37.356   6.152  30.158  0.00  0.00    -0.073 C 
ATOM     96  H24 non d ame     -38.108   6.828  29.753  0.00  0.00     0.028 H 
ATOM     97  H25 non d ame     -37.844   5.390  30.765  0.00  0.00     0.028 H 
ATOM     98  H26 non d ame     -36.656   6.715  30.775  0.00  0.00     0.028 H 
ENDBRANCH  93  95
BRANCH  93  99
ATOM     99  C19 non d ame     -37.537   4.660  28.102  0.00  0.00    -0.073 C 
ATOM    100  H27 non d ame     -38.310   4.205  28.722  0.00  0.00     0.028 H 
ATOM    101  H28 non d ame     -38.002   5.320  27.369  0.00  0.00     0.028 H 
ATOM    102  H29 non d ame     -36.981   3.880  27.584  0.00  0.00     0.028 H 
ENDBRANCH  93  99
ENDBRANCH  90  93
ENDBRANCH   1  90
TORSDOF 26
ENDMDL
MODEL 16
REMARK VINA RESULT:      -5.8      3.084      8.395
REMARK  26 active torsions:
REMARK  status: ('A' for Active; 'I' for Inactive)
REMARK    1  A    between atoms: C2_2  and  C3_3 
REMARK    2  A    between atoms: C4_6  and  C5_7 
REMARK       I    between atoms: C5_7  and  N2_9 
REMARK    3  A    between atoms: N2_9  and  C6_10 
REMARK    4  A    between atoms: C6_10  and  C7_11 
REMARK    5  A    between atoms: C6_10  and  C8_13 
REMARK       I    between atoms: C7_11  and  N3_14 
REMARK    6  A    between atoms: N3_14  and  C9_15 
REMARK    7  A    between atoms: C9_15  and  C10_16 
REMARK    8  A    between atoms: C9_15  and  C11_18 
REMARK       I    between atoms: C10_16  and  N4_21 
REMARK    9  A    between atoms: C11_18  and  C12_19 
REMARK   10  A    between atoms: C11_18  and  C13_20 
REMARK   11  A    between atoms: N4_21  and  C14_22 
REMARK   12  A    between atoms: C14_22  and  C15_23 
REMARK   13  A    between atoms: C14_22  and  C16_25 
REMARK       I    between atoms: C15_23  and  N6_40 
REMARK   14  A    between atoms: C16_25  and  C17_26 
REMARK   15  A    between atoms: C17_26  and  C18_27 
REMARK   16  A    between atoms: C17_26  and  C19_28 
REMARK   17  A    between atoms: C20_29  and  C21_30 
REMARK   18  A    between atoms: C20_29  and  C24_33 
REMARK   19  A    between atoms: C20_29  and  N6_40 
REMARK   20  A    between atoms: C21_30  and  C22_31 
REMARK   21  A    between atoms: C22_31  and  C23_32 
REMARK   22  A    between atoms: C23_32  and  O8_43 
REMARK   23  A    between atoms: C24_33  and  C25_34 
REMARK   24  A    between atoms: C28_38  and  O6_39 
REMARK   25  A    between atoms: C29_42  and  O8_43 
REMARK   26  A    between atoms: C29_42  and  C35_49 
ROOT
ATOM      1  C14 non d ame     -32.569   8.846  25.355  0.00  0.00     0.089 C 
ATOM      2  H20 non d ame     -31.585   8.377  25.389  0.00  0.00     0.087 H 
ENDROOT
BRANCH   1   3
ATOM      3  N4  non d ame     -33.489   7.988  26.086  0.00  0.00    -0.346 N 
ATOM      4  C10 non d ame     -32.974   6.789  26.843  0.00  0.00     0.241 C 
ATOM      5  O4  non d ame     -31.815   6.535  26.847  0.00  0.00    -0.271 OA
ATOM      6  H19 non d ame     -34.472   8.220  26.068  0.00  0.00     0.163 HD
BRANCH   4   7
ATOM      7  C9  non d ame     -33.940   5.915  27.599  0.00  0.00     0.092 C 
ATOM      8  H11 non d ame     -33.394   5.342  28.348  0.00  0.00     0.088 H 
BRANCH   7   9
ATOM      9  N3  non d ame     -34.903   6.756  28.316  0.00  0.00    -0.346 N 
ATOM     10  C7  non d ame     -35.270   6.436  29.673  0.00  0.00     0.240 C 
ATOM     11  O3  non d ame     -34.801   5.504  30.203  0.00  0.00    -0.271 OA
ATOM     12  H10 non d ame     -35.318   7.563  27.870  0.00  0.00     0.163 HD
BRANCH  10  13
ATOM     13  C6  non d ame     -36.299   7.333  30.429  0.00  0.00     0.086 C 
ATOM     14  H6  non d ame     -35.843   7.914  31.230  0.00  0.00     0.086 H 
BRANCH  13  15
ATOM     15  N2  non d ame     -36.867   8.289  29.494  0.00  0.00    -0.343 N 
ATOM     16  C5  non d ame     -36.490   9.701  29.587  0.00  0.00     0.273 C 
ATOM     17  O2  non d ame     -35.730  10.058  30.420  0.00  0.00    -0.266 OA
ATOM     18  H5  non d ame     -37.518   7.976  28.787  0.00  0.00     0.163 HD
BRANCH  16  19
ATOM     19  C4  non d ame     -37.082  10.723  28.604  0.00  0.00     0.154 A 
ATOM     20  C1  non d ame     -36.526  11.142  27.353  0.00  0.00    -0.017 A 
ATOM     21  C2  non d ame     -37.447  12.084  26.844  0.00  0.00     0.077 A 
ATOM     22  H1  non d ame     -35.597  10.813  26.887  0.00  0.00     0.091 H 
ATOM     23  O1  non d ame     -38.415  12.185  27.707  0.00  0.00    -0.218 OA
ATOM     24  N1  non d ame     -38.224  11.401  28.742  0.00  0.00    -0.123 NA
BRANCH  21  25
ATOM     25  C3  non d ame     -37.329  12.840  25.527  0.00  0.00    -0.029 C 
ATOM     26  H2  non d ame     -38.322  13.001  25.109  0.00  0.00     0.036 H 
ATOM     27  H3  non d ame     -36.848  13.802  25.702  0.00  0.00     0.036 H 
ATOM     28  H4  non d ame     -36.730  12.258  24.826  0.00  0.00     0.036 H 
ENDBRANCH  21  25
ENDBRANCH  16  19
ENDBRANCH  13  15
BRANCH  13  29
ATOM     29  C8  non d ame     -37.389   6.470  31.013  0.00  0.00    -0.049 C 
ATOM     30  H7  non d ame     -37.793   6.949  31.905  0.00  0.00     0.030 H 
ATOM     31  H8  non d ame     -38.183   6.343  30.278  0.00  0.00     0.030 H 
ATOM     32  H9  non d ame     -36.979   5.496  31.278  0.00  0.00     0.030 H 
ENDBRANCH  13  29
ENDBRANCH  10  13
ENDBRANCH   7   9
BRANCH   7  33
ATOM     33  C11 non d ame     -34.701   4.997  26.599  0.00  0.00    -0.033 C 
ATOM     34  H12 non d ame     -34.137   4.990  25.665  0.00  0.00     0.042 H 
BRANCH  33  35
ATOM     35  C12 non d ame     -34.769   3.526  27.116  0.00  0.00    -0.071 C 
ATOM     36  H13 non d ame     -35.374   3.487  28.021  0.00  0.00     0.028 H 
ATOM     37  H14 non d ame     -35.217   2.892  26.351  0.00  0.00     0.028 H 
ATOM     38  H15 non d ame     -33.762   3.172  27.338  0.00  0.00     0.028 H 
ENDBRANCH  33  35
BRANCH  33  39
ATOM     39  C13 non d ame     -36.127   5.558  26.298  0.00  0.00    -0.071 C 
ATOM     40  H16 non d ame     -36.062   6.628  26.099  0.00  0.00     0.028 H 
ATOM     41  H17 non d ame     -36.541   5.051  25.426  0.00  0.00     0.028 H 
ATOM     42  H18 non d ame     -36.774   5.386  27.158  0.00  0.00     0.028 H 
ENDBRANCH  33  39
ENDBRANCH   7  33
ENDBRANCH   4   7
ENDBRANCH   1   3
BRANCH   1  43
ATOM     43  C15 non d ame     -32.572  10.253  26.017  0.00  0.00     0.240 C 
ATOM     44  O5  non d ame     -32.764  10.356  27.186  0.00  0.00    -0.271 OA
ATOM     45  N6  non d ame     -32.326  11.473  25.196  0.00  0.00    -0.355 N 
ATOM     46  H46 non d ame     -32.157  11.398  24.204  0.00  0.00     0.162 HD
BRANCH  45  47
ATOM     47  C20 non d ame     -32.330  12.804  25.841  0.00  0.00     0.013 C 
ATOM     48  H30 non d ame     -32.363  12.653  26.920  0.00  0.00     0.072 H 
BRANCH  47  49
ATOM     49  C21 non d ame     -33.551  13.574  25.390  0.00  0.00    -0.038 C 
ATOM     50  H31 non d ame     -33.187  14.306  24.669  0.00  0.00     0.036 H 
ATOM     51  H32 non d ame     -34.277  12.821  25.084  0.00  0.00     0.036 H 
BRANCH  49  52
ATOM     52  C22 non d ame     -34.210  14.376  26.533  0.00  0.00     0.018 C 
ATOM     53  H33 non d ame     -35.263  14.457  26.268  0.00  0.00     0.048 H 
ATOM     54  H34 non d ame     -33.917  13.872  27.455  0.00  0.00     0.048 H 
BRANCH  52  55
ATOM     55  C23 non d ame     -33.686  15.834  26.657  0.00  0.00     0.259 C 
ATOM     56  O7  non d ame     -34.291  16.735  26.173  0.00  0.00    -0.265 OA
BRANCH  55  57
ATOM     57  O8  non d ame     -32.467  16.080  27.347  0.00  0.00    -0.317 OA
BRANCH  57  58
ATOM     58  C29 non d ame     -32.564  15.947  28.768  0.00  0.00     0.052 C 
ATOM     59  H47 non d ame     -31.872  16.680  29.181  0.00  0.00     0.082 H 
ATOM     60  H48 non d ame     -33.628  16.011  28.998  0.00  0.00     0.082 H 
BRANCH  58  61
ATOM     61  C35 non d ame     -32.064  14.529  29.151  0.00  0.00    -0.034 A 
ATOM     62  C30 non d ame     -32.940  13.611  29.722  0.00  0.00    -0.075 A 
ATOM     63  C31 non d ame     -32.491  12.337  30.066  0.00  0.00    -0.082 A 
ATOM     64  H49 non d ame     -33.979  13.890  29.899  0.00  0.00     0.084 H 
ATOM     65  C32 non d ame     -31.158  11.983  29.841  0.00  0.00    -0.083 A 
ATOM     66  H50 non d ame     -33.181  11.620  30.512  0.00  0.00     0.083 H 
ATOM     67  C33 non d ame     -30.286  12.903  29.275  0.00  0.00    -0.082 A 
ATOM     68  H51 non d ame     -30.798  10.989  30.107  0.00  0.00     0.083 H 
ATOM     69  C34 non d ame     -30.731  14.177  28.927  0.00  0.00    -0.075 A 
ATOM     70  H52 non d ame     -29.246  12.625  29.103  0.00  0.00     0.083 H 
ATOM     71  H53 non d ame     -30.041  14.893  28.482  0.00  0.00     0.084 H 
ENDBRANCH  58  61
ENDBRANCH  57  58
ENDBRANCH  55  57
ENDBRANCH  52  55
ENDBRANCH  49  52
ENDBRANCH  47  49
BRANCH  47  72
ATOM     72  C24 non d ame     -31.069  13.572  25.450  0.00  0.00    -0.039 C 
ATOM     73  H35 non d ame     -31.022  14.419  26.135  0.00  0.00     0.036 H 
ATOM     74  H36 non d ame     -30.269  12.832  25.444  0.00  0.00     0.036 H 
BRANCH  72  75
ATOM     75  C25 non d ame     -31.174  14.167  23.967  0.00  0.00    -0.001 C 
ATOM     76  C26 non d ame     -30.196  13.320  22.953  0.00  0.00    -0.035 C 
ATOM     77  C27 non d ame     -29.413  14.191  22.273  0.00  0.00     0.085 C 
ATOM     78  H38 non d ame     -29.482  12.731  23.528  0.00  0.00     0.036 H 
ATOM     79  H39 non d ame     -30.789  12.846  22.170  0.00  0.00     0.036 H 
ATOM     80  N5  non d ame     -29.536  15.528  22.964  0.00  0.00    -0.049 N 
ATOM     81  H40 non d ame     -28.394  13.821  22.392  0.00  0.00     0.075 H 
ATOM     82  H41 non d ame     -29.853  14.264  21.279  0.00  0.00     0.075 H 
ATOM     83  C28 non d ame     -30.820  15.409  23.936  0.00  0.00     0.193 C 
ATOM     84  H42 non d ame     -28.709  15.632  23.535  0.00  0.00     0.280 HD
ATOM     85  H43 non d ame     -29.740  16.205  22.243  0.00  0.00     0.280 HD
ATOM     86  H44 non d ame     -31.765  15.878  23.663  0.00  0.00     0.129 H 
ATOM     87  H37 non d ame     -32.208  14.313  23.653  0.00  0.00     0.046 H 
BRANCH  83  88
ATOM     88  O6  non d ame     -30.503  15.912  25.235  0.00  0.00    -0.369 OA
ATOM     89  H45 non d ame     -29.624  16.297  25.223  0.00  0.00     0.212 HD
ENDBRANCH  83  88
ENDBRANCH  72  75
ENDBRANCH  47  72
ENDBRANCH  45  47
ENDBRANCH   1  43
BRANCH   1  90
ATOM     90  C16 non d ame     -33.036   8.959  23.912  0.00  0.00    -0.035 C 
ATOM     91  H21 non d ame     -33.879   8.274  23.827  0.00  0.00     0.037 H 
ATOM     92  H22 non d ame     -33.181  10.025  23.739  0.00  0.00     0.037 H 
BRANCH  90  93
ATOM     93  C17 non d ame     -31.974   8.483  22.871  0.00  0.00    -0.059 C 
ATOM     94  H23 non d ame     -32.476   8.385  21.908  0.00  0.00     0.038 H 
BRANCH  93  95
ATOM     95  C18 non d ame     -30.812   9.513  22.700  0.00  0.00    -0.073 C 
ATOM     96  H24 non d ame     -30.208   9.240  21.836  0.00  0.00     0.028 H 
ATOM     97  H25 non d ame     -31.229  10.509  22.551  0.00  0.00     0.028 H 
ATOM     98  H26 non d ame     -30.190   9.510  23.594  0.00  0.00     0.028 H 
ENDBRANCH  93  95
BRANCH  93  99
ATOM     99  C19 non d ame     -31.427   7.102  23.241  0.00  0.00    -0.073 C 
ATOM    100  H27 non d ame     -32.159   6.338  22.976  0.00  0.00     0.028 H 
ATOM    101  H28 non d ame     -30.500   6.920  22.697  0.00  0.00     0.028 H 
ATOM    102  H29 non d ame     -31.232   7.063  24.312  0.00  0.00     0.028 H 
ENDBRANCH  93  99
ENDBRANCH  90  93
ENDBRANCH   1  90
TORSDOF 26
ENDMDL
MODEL 17
REMARK VINA RESULT:      -5.7      3.364      8.407
REMARK  26 active torsions:
REMARK  status: ('A' for Active; 'I' for Inactive)
REMARK    1  A    between atoms: C2_2  and  C3_3 
REMARK    2  A    between atoms: C4_6  and  C5_7 
REMARK       I    between atoms: C5_7  and  N2_9 
REMARK    3  A    between atoms: N2_9  and  C6_10 
REMARK    4  A    between atoms: C6_10  and  C7_11 
REMARK    5  A    between atoms: C6_10  and  C8_13 
REMARK       I    between atoms: C7_11  and  N3_14 
REMARK    6  A    between atoms: N3_14  and  C9_15 
REMARK    7  A    between atoms: C9_15  and  C10_16 
REMARK    8  A    between atoms: C9_15  and  C11_18 
REMARK       I    between atoms: C10_16  and  N4_21 
REMARK    9  A    between atoms: C11_18  and  C12_19 
REMARK   10  A    between atoms: C11_18  and  C13_20 
REMARK   11  A    between atoms: N4_21  and  C14_22 
REMARK   12  A    between atoms: C14_22  and  C15_23 
REMARK   13  A    between atoms: C14_22  and  C16_25 
REMARK       I    between atoms: C15_23  and  N6_40 
REMARK   14  A    between atoms: C16_25  and  C17_26 
REMARK   15  A    between atoms: C17_26  and  C18_27 
REMARK   16  A    between atoms: C17_26  and  C19_28 
REMARK   17  A    between atoms: C20_29  and  C21_30 
REMARK   18  A    between atoms: C20_29  and  C24_33 
REMARK   19  A    between atoms: C20_29  and  N6_40 
REMARK   20  A    between atoms: C21_30  and  C22_31 
REMARK   21  A    between atoms: C22_31  and  C23_32 
REMARK   22  A    between atoms: C23_32  and  O8_43 
REMARK   23  A    between atoms: C24_33  and  C25_34 
REMARK   24  A    between atoms: C28_38  and  O6_39 
REMARK   25  A    between atoms: C29_42  and  O8_43 
REMARK   26  A    between atoms: C29_42  and  C35_49 
ROOT
ATOM      1  C14 non d ame     -32.940   9.320  27.512  0.00  0.00     0.089 C 
ATOM      2  H20 non d ame     -31.885   9.052  27.588  0.00  0.00     0.087 H 
ENDROOT
BRANCH   1   3
ATOM      3  N4  non d ame     -33.049  10.748  27.774  0.00  0.00    -0.346 N 
ATOM      4  C10 non d ame     -31.994  11.698  27.266  0.00  0.00     0.241 C 
ATOM      5  O4  non d ame     -31.064  11.290  26.652  0.00  0.00    -0.271 OA
ATOM      6  H19 non d ame     -33.846  11.074  28.301  0.00  0.00     0.163 HD
BRANCH   4   7
ATOM      7  C9  non d ame     -32.126  13.173  27.542  0.00  0.00     0.092 C 
ATOM      8  H11 non d ame     -31.392  13.716  26.946  0.00  0.00     0.088 H 
BRANCH   7   9
ATOM      9  N3  non d ame     -33.452  13.633  27.120  0.00  0.00    -0.346 N 
ATOM     10  C7  non d ame     -33.573  14.658  26.113  0.00  0.00     0.240 C 
ATOM     11  O3  non d ame     -32.613  15.125  25.633  0.00  0.00    -0.271 OA
ATOM     12  H10 non d ame     -34.289  13.240  27.526  0.00  0.00     0.163 HD
BRANCH  10  13
ATOM     13  C6  non d ame     -34.987  15.146  25.670  0.00  0.00     0.086 C 
ATOM     14  H6  non d ame     -34.949  16.032  25.037  0.00  0.00     0.086 H 
BRANCH  13  15
ATOM     15  N2  non d ame     -35.621  14.100  24.885  0.00  0.00    -0.343 N 
ATOM     16  C5  non d ame     -36.741  14.439  24.004  0.00  0.00     0.273 C 
ATOM     17  O2  non d ame     -37.126  15.554  23.937  0.00  0.00    -0.266 OA
ATOM     18  H5  non d ame     -35.288  13.149  24.950  0.00  0.00     0.163 HD
BRANCH  16  19
ATOM     19  C4  non d ame     -37.420  13.344  23.166  0.00  0.00     0.154 A 
ATOM     20  C1  non d ame     -38.110  12.187  23.650  0.00  0.00    -0.017 A 
ATOM     21  C2  non d ame     -38.544  11.510  22.489  0.00  0.00     0.077 A 
ATOM     22  H1  non d ame     -38.271  11.886  24.686  0.00  0.00     0.091 H 
ATOM     23  O1  non d ame     -38.146  12.205  21.464  0.00  0.00    -0.218 OA
ATOM     24  N1  non d ame     -37.488  13.280  21.833  0.00  0.00    -0.123 NA
BRANCH  21  25
ATOM     25  C3  non d ame     -39.332  10.207  22.446  0.00  0.00    -0.029 C 
ATOM     26  H2  non d ame     -39.756  10.072  21.452  0.00  0.00     0.036 H 
ATOM     27  H3  non d ame     -38.668   9.374  22.674  0.00  0.00     0.036 H 
ATOM     28  H4  non d ame     -40.134  10.244  23.183  0.00  0.00     0.036 H 
ENDBRANCH  21  25
ENDBRANCH  16  19
ENDBRANCH  13  15
BRANCH  13  29
ATOM     29  C8  non d ame     -35.820  15.453  26.889  0.00  0.00    -0.049 C 
ATOM     30  H7  non d ame     -35.284  16.155  27.528  0.00  0.00     0.030 H 
ATOM     31  H8  non d ame     -36.767  15.895  26.579  0.00  0.00     0.030 H 
ATOM     32  H9  non d ame     -36.011  14.532  27.440  0.00  0.00     0.030 H 
ENDBRANCH  13  29
ENDBRANCH  10  13
ENDBRANCH   7   9
BRANCH   7  33
ATOM     33  C11 non d ame     -31.950  13.433  29.067  0.00  0.00    -0.033 C 
ATOM     34  H12 non d ame     -32.832  13.039  29.571  0.00  0.00     0.042 H 
BRANCH  33  35
ATOM     35  C12 non d ame     -30.708  12.677  29.633  0.00  0.00    -0.071 C 
ATOM     36  H13 non d ame     -29.825  13.309  29.541  0.00  0.00     0.028 H 
ATOM     37  H14 non d ame     -30.876  12.439  30.683  0.00  0.00     0.028 H 
ATOM     38  H15 non d ame     -30.556  11.756  29.071  0.00  0.00     0.028 H 
ENDBRANCH  33  35
BRANCH  33  39
ATOM     39  C13 non d ame     -31.867  14.964  29.367  0.00  0.00    -0.071 C 
ATOM     40  H16 non d ame     -31.053  15.153  30.068  0.00  0.00     0.028 H 
ATOM     41  H17 non d ame     -31.681  15.507  28.439  0.00  0.00     0.028 H 
ATOM     42  H18 non d ame     -32.807  15.301  29.802  0.00  0.00     0.028 H 
ENDBRANCH  33  39
ENDBRANCH   7  33
ENDBRANCH   4   7
ENDBRANCH   1   3
BRANCH   1  43
ATOM     43  C15 non d ame     -33.519   9.031  26.098  0.00  0.00     0.240 C 
ATOM     44  O5  non d ame     -34.506   9.586  25.738  0.00  0.00    -0.271 OA
ATOM     45  N6  non d ame     -32.837   8.066  25.188  0.00  0.00    -0.355 N 
ATOM     46  H46 non d ame     -31.995   7.592  25.480  0.00  0.00     0.162 HD
BRANCH  45  47
ATOM     47  C20 non d ame     -33.400   7.803  23.845  0.00  0.00     0.013 C 
ATOM     48  H30 non d ame     -34.464   8.035  23.876  0.00  0.00     0.072 H 
BRANCH  47  49
ATOM     49  C21 non d ame     -33.199   6.346  23.497  0.00  0.00    -0.038 C 
ATOM     50  H31 non d ame     -34.197   5.944  23.323  0.00  0.00     0.036 H 
ATOM     51  H32 non d ame     -32.459   6.334  22.696  0.00  0.00     0.036 H 
BRANCH  49  52
ATOM     52  C22 non d ame     -32.595   5.529  24.660  0.00  0.00     0.018 C 
ATOM     53  H33 non d ame     -32.026   4.726  24.193  0.00  0.00     0.048 H 
ATOM     54  H34 non d ame     -32.092   6.254  25.300  0.00  0.00     0.048 H 
BRANCH  52  55
ATOM     55  C23 non d ame     -33.659   4.834  25.555  0.00  0.00     0.259 C 
ATOM     56  O7  non d ame     -33.935   3.690  25.386  0.00  0.00    -0.265 OA
BRANCH  55  57
ATOM     57  O8  non d ame     -34.310   5.584  26.573  0.00  0.00    -0.317 OA
BRANCH  57  58
ATOM     58  C29 non d ame     -35.474   4.949  27.109  0.00  0.00     0.052 C 
ATOM     59  H47 non d ame     -36.323   5.440  26.635  0.00  0.00     0.082 H 
ATOM     60  H48 non d ame     -35.317   3.879  26.972  0.00  0.00     0.082 H 
BRANCH  58  61
ATOM     61  C35 non d ame     -35.523   5.245  28.632  0.00  0.00    -0.034 A 
ATOM     62  C30 non d ame     -34.396   5.033  29.420  0.00  0.00    -0.075 A 
ATOM     63  C31 non d ame     -34.440   5.300  30.787  0.00  0.00    -0.082 A 
ATOM     64  H49 non d ame     -33.479   4.658  28.966  0.00  0.00     0.084 H 
ATOM     65  C32 non d ame     -35.618   5.778  31.368  0.00  0.00    -0.083 A 
ATOM     66  H50 non d ame     -33.555   5.134  31.402  0.00  0.00     0.083 H 
ATOM     67  C33 non d ame     -36.741   5.984  30.578  0.00  0.00    -0.082 A 
ATOM     68  H51 non d ame     -35.661   5.989  32.436  0.00  0.00     0.083 H 
ATOM     69  C34 non d ame     -36.701   5.722  29.211  0.00  0.00    -0.075 A 
ATOM     70  H52 non d ame     -37.660   6.355  31.035  0.00  0.00     0.083 H 
ATOM     71  H53 non d ame     -37.587   5.888  28.597  0.00  0.00     0.084 H 
ENDBRANCH  58  61
ENDBRANCH  57  58
ENDBRANCH  55  57
ENDBRANCH  52  55
ENDBRANCH  49  52
ENDBRANCH  47  49
BRANCH  47  72
ATOM     72  C24 non d ame     -32.696   8.677  22.810  0.00  0.00    -0.039 C 
ATOM     73  H35 non d ame     -32.640   8.069  21.906  0.00  0.00     0.036 H 
ATOM     74  H36 non d ame     -33.248   9.617  22.800  0.00  0.00     0.036 H 
BRANCH  72  75
ATOM     75  C25 non d ame     -31.192   9.017  23.244  0.00  0.00    -0.001 C 
ATOM     76  C26 non d ame     -31.013  10.642  23.419  0.00  0.00    -0.035 C 
ATOM     77  C27 non d ame     -29.935  11.042  22.703  0.00  0.00     0.085 C 
ATOM     78  H38 non d ame     -31.843  11.163  22.942  0.00  0.00     0.036 H 
ATOM     79  H39 non d ame     -30.738  10.880  24.447  0.00  0.00     0.036 H 
ATOM     80  N5  non d ame     -29.558   9.896  21.796  0.00  0.00    -0.049 N 
ATOM     81  H40 non d ame     -30.283  11.877  22.095  0.00  0.00     0.075 H 
ATOM     82  H41 non d ame     -29.141  11.193  23.432  0.00  0.00     0.075 H 
ATOM     83  C28 non d ame     -30.345   8.604  22.361  0.00  0.00     0.193 C 
ATOM     84  H42 non d ame     -29.924  10.121  20.882  0.00  0.00     0.280 HD
ATOM     85  H43 non d ame     -28.567   9.748  21.920  0.00  0.00     0.280 HD
ATOM     86  H44 non d ame     -29.818   7.841  22.933  0.00  0.00     0.129 H 
ATOM     87  H37 non d ame     -30.848   8.389  24.067  0.00  0.00     0.046 H 
BRANCH  83  88
ATOM     88  O6  non d ame     -30.982   7.907  21.289  0.00  0.00    -0.369 OA
ATOM     89  H45 non d ame     -31.856   7.623  21.566  0.00  0.00     0.212 HD
ENDBRANCH  83  88
ENDBRANCH  72  75
ENDBRANCH  47  72
ENDBRANCH  45  47
ENDBRANCH   1  43
BRANCH   1  90
ATOM     90  C16 non d ame     -33.740   8.561  28.558  0.00  0.00    -0.035 C 
ATOM     91  H21 non d ame     -34.397   7.899  27.994  0.00  0.00     0.037 H 
ATOM     92  H22 non d ame     -33.001   8.144  29.241  0.00  0.00     0.037 H 
BRANCH  90  93
ATOM     93  C17 non d ame     -34.671   9.474  29.419  0.00  0.00    -0.059 C 
ATOM     94  H23 non d ame     -34.388  10.509  29.227  0.00  0.00     0.038 H 
BRANCH  93  95
ATOM     95  C18 non d ame     -36.176   9.312  29.033  0.00  0.00    -0.073 C 
ATOM     96  H24 non d ame     -36.533   8.337  29.364  0.00  0.00     0.028 H 
ATOM     97  H25 non d ame     -36.761  10.095  29.515  0.00  0.00     0.028 H 
ATOM     98  H26 non d ame     -36.284   9.391  27.952  0.00  0.00     0.028 H 
ENDBRANCH  93  95
BRANCH  93  99
ATOM     99  C19 non d ame     -34.460   9.215  30.913  0.00  0.00    -0.073 C 
ATOM    100  H27 non d ame     -35.424   9.032  31.390  0.00  0.00     0.028 H 
ATOM    101  H28 non d ame     -33.819   8.342  31.044  0.00  0.00     0.028 H 
ATOM    102  H29 non d ame     -33.987  10.084  31.369  0.00  0.00     0.028 H 
ENDBRANCH  93  99
ENDBRANCH  90  93
ENDBRANCH   1  90
TORSDOF 26
ENDMDL
MODEL 18
REMARK VINA RESULT:      -5.7      3.349      7.789
REMARK  26 active torsions:
REMARK  status: ('A' for Active; 'I' for Inactive)
REMARK    1  A    between atoms: C2_2  and  C3_3 
REMARK    2  A    between atoms: C4_6  and  C5_7 
REMARK       I    between atoms: C5_7  and  N2_9 
REMARK    3  A    between atoms: N2_9  and  C6_10 
REMARK    4  A    between atoms: C6_10  and  C7_11 
REMARK    5  A    between atoms: C6_10  and  C8_13 
REMARK       I    between atoms: C7_11  and  N3_14 
REMARK    6  A    between atoms: N3_14  and  C9_15 
REMARK    7  A    between atoms: C9_15  and  C10_16 
REMARK    8  A    between atoms: C9_15  and  C11_18 
REMARK       I    between atoms: C10_16  and  N4_21 
REMARK    9  A    between atoms: C11_18  and  C12_19 
REMARK   10  A    between atoms: C11_18  and  C13_20 
REMARK   11  A    between atoms: N4_21  and  C14_22 
REMARK   12  A    between atoms: C14_22  and  C15_23 
REMARK   13  A    between atoms: C14_22  and  C16_25 
REMARK       I    between atoms: C15_23  and  N6_40 
REMARK   14  A    between atoms: C16_25  and  C17_26 
REMARK   15  A    between atoms: C17_26  and  C18_27 
REMARK   16  A    between atoms: C17_26  and  C19_28 
REMARK   17  A    between atoms: C20_29  and  C21_30 
REMARK   18  A    between atoms: C20_29  and  C24_33 
REMARK   19  A    between atoms: C20_29  and  N6_40 
REMARK   20  A    between atoms: C21_30  and  C22_31 
REMARK   21  A    between atoms: C22_31  and  C23_32 
REMARK   22  A    between atoms: C23_32  and  O8_43 
REMARK   23  A    between atoms: C24_33  and  C25_34 
REMARK   24  A    between atoms: C28_38  and  O6_39 
REMARK   25  A    between atoms: C29_42  and  O8_43 
REMARK   26  A    between atoms: C29_42  and  C35_49 
ROOT
ATOM      1  C14 non d ame     -33.301   9.765  27.873  0.00  0.00     0.089 C 
ATOM      2  H20 non d ame     -32.252  10.052  27.954  0.00  0.00     0.087 H 
ENDROOT
BRANCH   1   3
ATOM      3  N4  non d ame     -34.084  10.988  27.777  0.00  0.00    -0.346 N 
ATOM      4  C10 non d ame     -33.642  12.106  26.868  0.00  0.00     0.241 C 
ATOM      5  O4  non d ame     -32.651  12.000  26.224  0.00  0.00    -0.271 OA
ATOM      6  H19 non d ame     -34.924  11.060  28.335  0.00  0.00     0.163 HD
BRANCH   4   7
ATOM      7  C9  non d ame     -34.468  13.363  26.777  0.00  0.00     0.092 C 
ATOM      8  H11 non d ame     -34.844  13.617  27.767  0.00  0.00     0.088 H 
BRANCH   7   9
ATOM      9  N3  non d ame     -33.620  14.475  26.337  0.00  0.00    -0.346 N 
ATOM     10  C7  non d ame     -33.633  15.721  27.062  0.00  0.00     0.240 C 
ATOM     11  O3  non d ame     -34.321  15.847  28.000  0.00  0.00    -0.271 OA
ATOM     12  H10 non d ame     -33.022  14.381  25.528  0.00  0.00     0.163 HD
BRANCH  10  13
ATOM     13  C6  non d ame     -32.731  16.902  26.587  0.00  0.00     0.086 C 
ATOM     14  H6  non d ame     -31.812  16.991  27.168  0.00  0.00     0.086 H 
BRANCH  13  15
ATOM     15  N2  non d ame     -32.331  16.666  25.210  0.00  0.00    -0.343 N 
ATOM     16  C5  non d ame     -31.241  15.731  24.925  0.00  0.00     0.273 C 
ATOM     17  O2  non d ame     -30.690  15.176  25.811  0.00  0.00    -0.266 OA
ATOM     18  H5  non d ame     -32.806  17.147  24.459  0.00  0.00     0.163 HD
BRANCH  16  19
ATOM     19  C4  non d ame     -30.809  15.471  23.474  0.00  0.00     0.154 A 
ATOM     20  C1  non d ame     -31.264  16.153  22.301  0.00  0.00    -0.017 A 
ATOM     21  C2  non d ame     -30.569  15.543  21.233  0.00  0.00     0.077 A 
ATOM     22  H1  non d ame     -31.987  16.966  22.235  0.00  0.00     0.091 H 
ATOM     23  O1  non d ame     -29.806  14.621  21.744  0.00  0.00    -0.218 OA
ATOM     24  N1  non d ame     -29.929  14.559  23.050  0.00  0.00    -0.123 NA
BRANCH  21  25
ATOM     25  C3  non d ame     -30.689  15.900  19.757  0.00  0.00    -0.029 C 
ATOM     26  H2  non d ame     -29.823  15.517  19.219  0.00  0.00     0.036 H 
ATOM     27  H3  non d ame     -31.596  15.455  19.349  0.00  0.00     0.036 H 
ATOM     28  H4  non d ame     -30.736  16.983  19.648  0.00  0.00     0.036 H 
ENDBRANCH  21  25
ENDBRANCH  16  19
ENDBRANCH  13  15
BRANCH  13  29
ATOM     29  C8  non d ame     -33.497  18.197  26.688  0.00  0.00    -0.049 C 
ATOM     30  H7  non d ame     -33.899  18.458  25.709  0.00  0.00     0.030 H 
ATOM     31  H8  non d ame     -34.316  18.079  27.398  0.00  0.00     0.030 H 
ATOM     32  H9  non d ame     -32.831  18.988  27.030  0.00  0.00     0.030 H 
ENDBRANCH  13  29
ENDBRANCH  10  13
ENDBRANCH   7   9
BRANCH   7  33
ATOM     33  C11 non d ame     -35.619  13.154  25.749  0.00  0.00    -0.033 C 
ATOM     34  H12 non d ame     -35.242  13.448  24.769  0.00  0.00     0.042 H 
BRANCH  33  35
ATOM     35  C12 non d ame     -36.035  11.652  25.659  0.00  0.00    -0.071 C 
ATOM     36  H13 non d ame     -35.508  11.178  24.831  0.00  0.00     0.028 H 
ATOM     37  H14 non d ame     -35.778  11.148  26.590  0.00  0.00     0.028 H 
ATOM     38  H15 non d ame     -37.110  11.583  25.493  0.00  0.00     0.028 H 
ENDBRANCH  33  35
BRANCH  33  39
ATOM     39  C13 non d ame     -36.844  14.062  26.088  0.00  0.00    -0.071 C 
ATOM     40  H16 non d ame     -36.672  14.562  27.042  0.00  0.00     0.028 H 
ATOM     41  H17 non d ame     -36.971  14.809  25.304  0.00  0.00     0.028 H 
ATOM     42  H18 non d ame     -37.743  13.450  26.154  0.00  0.00     0.028 H 
ENDBRANCH  33  39
ENDBRANCH   7  33
ENDBRANCH   4   7
ENDBRANCH   1   3
BRANCH   1  43
ATOM     43  C15 non d ame     -33.577   8.900  26.610  0.00  0.00     0.240 C 
ATOM     44  O5  non d ame     -34.690   8.577  26.346  0.00  0.00    -0.271 OA
ATOM     45  N6  non d ame     -32.454   8.481  25.724  0.00  0.00    -0.355 N 
ATOM     46  H46 non d ame     -31.505   8.753  25.935  0.00  0.00     0.162 HD
BRANCH  45  47
ATOM     47  C20 non d ame     -32.733   7.660  24.526  0.00  0.00     0.013 C 
ATOM     48  H30 non d ame     -33.805   7.468  24.493  0.00  0.00     0.072 H 
BRANCH  47  49
ATOM     49  C21 non d ame     -31.977   6.354  24.628  0.00  0.00    -0.038 C 
ATOM     50  H31 non d ame     -31.722   6.081  23.604  0.00  0.00     0.036 H 
ATOM     51  H32 non d ame     -31.187   6.528  25.360  0.00  0.00     0.036 H 
BRANCH  49  52
ATOM     52  C22 non d ame     -32.842   5.203  25.185  0.00  0.00     0.018 C 
ATOM     53  H33 non d ame     -33.846   5.374  24.798  0.00  0.00     0.048 H 
ATOM     54  H34 non d ame     -32.310   4.285  24.934  0.00  0.00     0.048 H 
BRANCH  52  55
ATOM     55  C23 non d ame     -32.974   5.211  26.734  0.00  0.00     0.259 C 
ATOM     56  O7  non d ame     -32.176   5.782  27.404  0.00  0.00    -0.265 OA
BRANCH  55  57
ATOM     57  O8  non d ame     -34.054   4.515  27.345  0.00  0.00    -0.317 OA
BRANCH  57  58
ATOM     58  C29 non d ame     -35.298   5.220  27.303  0.00  0.00     0.052 C 
ATOM     59  H47 non d ame     -35.075   6.187  26.852  0.00  0.00     0.082 H 
ATOM     60  H48 non d ame     -36.004   4.544  26.822  0.00  0.00     0.082 H 
BRANCH  58  61
ATOM     61  C35 non d ame     -35.764   5.456  28.765  0.00  0.00    -0.034 A 
ATOM     62  C30 non d ame     -37.120   5.564  29.055  0.00  0.00    -0.075 A 
ATOM     63  C31 non d ame     -37.538   5.777  30.368  0.00  0.00    -0.082 A 
ATOM     64  H49 non d ame     -37.855   5.484  28.254  0.00  0.00     0.084 H 
ATOM     65  C32 non d ame     -36.594   5.883  31.393  0.00  0.00    -0.083 A 
ATOM     66  H50 non d ame     -38.602   5.860  30.592  0.00  0.00     0.083 H 
ATOM     67  C33 non d ame     -35.241   5.777  31.098  0.00  0.00    -0.082 A 
ATOM     68  H51 non d ame     -36.912   6.048  32.422  0.00  0.00     0.083 H 
ATOM     69  C34 non d ame     -34.819   5.563  29.787  0.00  0.00    -0.075 A 
ATOM     70  H52 non d ame     -34.507   5.863  31.899  0.00  0.00     0.083 H 
ATOM     71  H53 non d ame     -33.755   5.480  29.564  0.00  0.00     0.084 H 
ENDBRANCH  58  61
ENDBRANCH  57  58
ENDBRANCH  55  57
ENDBRANCH  52  55
ENDBRANCH  49  52
ENDBRANCH  47  49
BRANCH  47  72
ATOM     72  C24 non d ame     -32.289   8.409  23.271  0.00  0.00    -0.039 C 
ATOM     73  H35 non d ame     -32.260   7.659  22.481  0.00  0.00     0.036 H 
ATOM     74  H36 non d ame     -32.963   9.262  23.189  0.00  0.00     0.036 H 
BRANCH  72  75
ATOM     75  C25 non d ame     -30.804   8.992  23.423  0.00  0.00    -0.001 C 
ATOM     76  C26 non d ame     -30.840  10.636  23.369  0.00  0.00    -0.035 C 
ATOM     77  C27 non d ame     -29.940  11.062  22.451  0.00  0.00     0.085 C 
ATOM     78  H38 non d ame     -31.794  10.976  22.967  0.00  0.00     0.036 H 
ATOM     79  H39 non d ame     -30.465  11.049  24.305  0.00  0.00     0.036 H 
ATOM     80  N5  non d ame     -29.529   9.855  21.643  0.00  0.00    -0.049 N 
ATOM     81  H40 non d ame     -30.485  11.752  21.808  0.00  0.00     0.075 H 
ATOM     82  H41 non d ame     -29.083  11.413  23.025  0.00  0.00     0.075 H 
ATOM     83  C28 non d ame     -30.036   8.568  22.476  0.00  0.00     0.193 C 
ATOM     84  H42 non d ame     -30.045   9.901  20.776  0.00  0.00     0.280 HD
ATOM     85  H43 non d ame     -28.518   9.851  21.629  0.00  0.00     0.280 HD
ATOM     86  H44 non d ame     -29.331   7.966  23.048  0.00  0.00     0.129 H 
ATOM     87  H37 non d ame     -30.264   8.535  24.253  0.00  0.00     0.046 H 
BRANCH  83  88
ATOM     88  O6  non d ame     -30.706   7.652  21.609  0.00  0.00    -0.369 OA
ATOM     89  H45 non d ame     -30.069   7.252  21.012  0.00  0.00     0.212 HD
ENDBRANCH  83  88
ENDBRANCH  72  75
ENDBRANCH  47  72
ENDBRANCH  45  47
ENDBRANCH   1  43
BRANCH   1  90
ATOM     90  C16 non d ame     -33.724   9.002  29.118  0.00  0.00    -0.035 C 
ATOM     91  H21 non d ame     -34.084   8.039  28.757  0.00  0.00     0.037 H 
ATOM     92  H22 non d ame     -32.866   9.046  29.789  0.00  0.00     0.037 H 
BRANCH  90  93
ATOM     93  C17 non d ame     -34.916   9.660  29.883  0.00  0.00    -0.059 C 
ATOM     94  H23 non d ame     -34.879  10.733  29.692  0.00  0.00     0.038 H 
BRANCH  93  95
ATOM     95  C18 non d ame     -36.299   9.135  29.381  0.00  0.00    -0.073 C 
ATOM     96  H24 non d ame     -36.904   8.831  30.235  0.00  0.00     0.028 H 
ATOM     97  H25 non d ame     -36.814   9.927  28.838  0.00  0.00     0.028 H 
ATOM     98  H26 non d ame     -36.147   8.282  28.721  0.00  0.00     0.028 H 
ENDBRANCH  93  95
BRANCH  93  99
ATOM     99  C19 non d ame     -34.773   9.461  31.394  0.00  0.00    -0.073 C 
ATOM    100  H27 non d ame     -35.757   9.303  31.834  0.00  0.00     0.028 H 
ATOM    101  H28 non d ame     -34.144   8.593  31.588  0.00  0.00     0.028 H 
ATOM    102  H29 non d ame     -34.315  10.346  31.835  0.00  0.00     0.028 H 
ENDBRANCH  93  99
ENDBRANCH  90  93
ENDBRANCH   1  90
TORSDOF 26
ENDMDL
MODEL 19
REMARK VINA RESULT:      -5.7      3.249      8.325
REMARK  26 active torsions:
REMARK  status: ('A' for Active; 'I' for Inactive)
REMARK    1  A    between atoms: C2_2  and  C3_3 
REMARK    2  A    between atoms: C4_6  and  C5_7 
REMARK       I    between atoms: C5_7  and  N2_9 
REMARK    3  A    between atoms: N2_9  and  C6_10 
REMARK    4  A    between atoms: C6_10  and  C7_11 
REMARK    5  A    between atoms: C6_10  and  C8_13 
REMARK       I    between atoms: C7_11  and  N3_14 
REMARK    6  A    between atoms: N3_14  and  C9_15 
REMARK    7  A    between atoms: C9_15  and  C10_16 
REMARK    8  A    between atoms: C9_15  and  C11_18 
REMARK       I    between atoms: C10_16  and  N4_21 
REMARK    9  A    between atoms: C11_18  and  C12_19 
REMARK   10  A    between atoms: C11_18  and  C13_20 
REMARK   11  A    between atoms: N4_21  and  C14_22 
REMARK   12  A    between atoms: C14_22  and  C15_23 
REMARK   13  A    between atoms: C14_22  and  C16_25 
REMARK       I    between atoms: C15_23  and  N6_40 
REMARK   14  A    between atoms: C16_25  and  C17_26 
REMARK   15  A    between atoms: C17_26  and  C18_27 
REMARK   16  A    between atoms: C17_26  and  C19_28 
REMARK   17  A    between atoms: C20_29  and  C21_30 
REMARK   18  A    between atoms: C20_29  and  C24_33 
REMARK   19  A    between atoms: C20_29  and  N6_40 
REMARK   20  A    between atoms: C21_30  and  C22_31 
REMARK   21  A    between atoms: C22_31  and  C23_32 
REMARK   22  A    between atoms: C23_32  and  O8_43 
REMARK   23  A    between atoms: C24_33  and  C25_34 
REMARK   24  A    between atoms: C28_38  and  O6_39 
REMARK   25  A    between atoms: C29_42  and  O8_43 
REMARK   26  A    between atoms: C29_42  and  C35_49 
ROOT
ATOM      1  C14 non d ame     -32.694   7.852  25.724  0.00  0.00     0.089 C 
ATOM      2  H20 non d ame     -31.699   7.410  25.777  0.00  0.00     0.087 H 
ENDROOT
BRANCH   1   3
ATOM      3  N4  non d ame     -33.618   6.929  26.366  0.00  0.00    -0.346 N 
ATOM      4  C10 non d ame     -33.102   5.851  27.285  0.00  0.00     0.241 C 
ATOM      5  O4  non d ame     -31.937   5.743  27.490  0.00  0.00    -0.271 OA
ATOM      6  H19 non d ame     -34.605   7.036  26.177  0.00  0.00     0.163 HD
BRANCH   4   7
ATOM      7  C9  non d ame     -34.072   4.908  27.946  0.00  0.00     0.092 C 
ATOM      8  H11 non d ame     -33.576   4.407  28.777  0.00  0.00     0.088 H 
BRANCH   7   9
ATOM      9  N3  non d ame     -35.192   5.671  28.506  0.00  0.00    -0.346 N 
ATOM     10  C7  non d ame     -35.270   5.897  29.928  0.00  0.00     0.240 C 
ATOM     11  O3  non d ame     -34.441   5.470  30.637  0.00  0.00    -0.271 OA
ATOM     12  H10 non d ame     -35.915   6.044  27.907  0.00  0.00     0.163 HD
BRANCH  10  13
ATOM     13  C6  non d ame     -36.465   6.708  30.519  0.00  0.00     0.086 C 
ATOM     14  H6  non d ame     -36.208   7.224  31.444  0.00  0.00     0.086 H 
BRANCH  13  15
ATOM     15  N2  non d ame     -36.856   7.733  29.565  0.00  0.00    -0.343 N 
ATOM     16  C5  non d ame     -36.354   9.099  29.729  0.00  0.00     0.273 C 
ATOM     17  O2  non d ame     -35.640   9.364  30.632  0.00  0.00    -0.266 OA
ATOM     18  H5  non d ame     -37.469   7.498  28.798  0.00  0.00     0.163 HD
BRANCH  16  19
ATOM     19  C4  non d ame     -36.758  10.192  28.728  0.00  0.00     0.154 A 
ATOM     20  C1  non d ame     -38.070  10.721  28.507  0.00  0.00    -0.017 A 
ATOM     21  C2  non d ame     -37.904  11.692  27.495  0.00  0.00     0.077 A 
ATOM     22  H1  non d ame     -38.999  10.443  29.005  0.00  0.00     0.091 H 
ATOM     23  O1  non d ame     -36.642  11.712  27.179  0.00  0.00    -0.218 OA
ATOM     24  N1  non d ame     -35.953  10.845  27.885  0.00  0.00    -0.123 NA
BRANCH  21  25
ATOM     25  C3  non d ame     -39.001  12.557  26.887  0.00  0.00    -0.029 C 
ATOM     26  H2  non d ame     -38.589  13.527  26.611  0.00  0.00     0.036 H 
ATOM     27  H3  non d ame     -39.399  12.066  25.999  0.00  0.00     0.036 H 
ATOM     28  H4  non d ame     -39.800  12.695  27.615  0.00  0.00     0.036 H 
ENDBRANCH  21  25
ENDBRANCH  16  19
ENDBRANCH  13  15
BRANCH  13  29
ATOM     29  C8  non d ame     -37.623   5.780  30.783  0.00  0.00    -0.049 C 
ATOM     30  H7  non d ame     -37.379   5.123  31.619  0.00  0.00     0.030 H 
ATOM     31  H8  non d ame     -38.509   6.365  31.028  0.00  0.00     0.030 H 
ATOM     32  H9  non d ame     -37.818   5.179  29.894  0.00  0.00     0.030 H 
ENDBRANCH  13  29
ENDBRANCH  10  13
ENDBRANCH   7   9
BRANCH   7  33
ATOM     33  C11 non d ame     -34.613   3.897  26.892  0.00  0.00    -0.033 C 
ATOM     34  H12 non d ame     -34.492   4.352  25.909  0.00  0.00     0.042 H 
BRANCH  33  35
ATOM     35  C12 non d ame     -33.789   2.572  26.900  0.00  0.00    -0.071 C 
ATOM     36  H13 non d ame     -32.772   2.774  26.564  0.00  0.00     0.028 H 
ATOM     37  H14 non d ame     -33.764   2.166  27.911  0.00  0.00     0.028 H 
ATOM     38  H15 non d ame     -34.256   1.850  26.230  0.00  0.00     0.028 H 
ENDBRANCH  33  35
BRANCH  33  39
ATOM     39  C13 non d ame     -36.135   3.620  27.112  0.00  0.00    -0.071 C 
ATOM     40  H16 non d ame     -36.694   4.548  26.994  0.00  0.00     0.028 H 
ATOM     41  H17 non d ame     -36.481   2.891  26.379  0.00  0.00     0.028 H 
ATOM     42  H18 non d ame     -36.291   3.226  28.116  0.00  0.00     0.028 H 
ENDBRANCH  33  39
ENDBRANCH   7  33
ENDBRANCH   4   7
ENDBRANCH   1   3
BRANCH   1  43
ATOM     43  C15 non d ame     -32.769   9.221  26.461  0.00  0.00     0.240 C 
ATOM     44  O5  non d ame     -32.900   9.250  27.642  0.00  0.00    -0.271 OA
ATOM     45  N6  non d ame     -32.669  10.495  25.694  0.00  0.00    -0.355 N 
ATOM     46  H46 non d ame     -32.553  10.483  24.691  0.00  0.00     0.162 HD
BRANCH  45  47
ATOM     47  C20 non d ame     -32.740  11.788  26.409  0.00  0.00     0.013 C 
ATOM     48  H30 non d ame     -33.269  11.623  27.348  0.00  0.00     0.072 H 
BRANCH  47  49
ATOM     49  C21 non d ame     -33.492  12.788  25.560  0.00  0.00    -0.038 C 
ATOM     50  H31 non d ame     -32.747  13.239  24.905  0.00  0.00     0.036 H 
ATOM     51  H32 non d ame     -34.332  12.238  25.134  0.00  0.00     0.036 H 
BRANCH  49  52
ATOM     52  C22 non d ame     -34.100  13.940  26.389  0.00  0.00     0.018 C 
ATOM     53  H33 non d ame     -35.119  14.061  26.023  0.00  0.00     0.048 H 
ATOM     54  H34 non d ame     -33.923  13.678  27.433  0.00  0.00     0.048 H 
BRANCH  52  55
ATOM     55  C23 non d ame     -33.399  15.309  26.166  0.00  0.00     0.259 C 
ATOM     56  O7  non d ame     -33.117  16.000  27.091  0.00  0.00    -0.265 OA
BRANCH  55  57
ATOM     57  O8  non d ame     -33.110  15.736  24.840  0.00  0.00    -0.317 OA
BRANCH  57  58
ATOM     58  C29 non d ame     -31.803  16.296  24.681  0.00  0.00     0.052 C 
ATOM     59  H47 non d ame     -31.961  17.348  24.441  0.00  0.00     0.082 H 
ATOM     60  H48 non d ame     -31.252  16.019  25.579  0.00  0.00     0.082 H 
BRANCH  58  61
ATOM     61  C35 non d ame     -31.133  15.609  23.462  0.00  0.00    -0.034 A 
ATOM     62  C30 non d ame     -30.598  14.331  23.590  0.00  0.00    -0.075 A 
ATOM     63  C31 non d ame     -29.995  13.713  22.495  0.00  0.00    -0.082 A 
ATOM     64  H49 non d ame     -30.651  13.813  24.548  0.00  0.00     0.084 H 
ATOM     65  C32 non d ame     -29.926  14.380  21.269  0.00  0.00    -0.083 A 
ATOM     66  H50 non d ame     -29.579  12.711  22.598  0.00  0.00     0.083 H 
ATOM     67  C33 non d ame     -30.458  15.657  21.147  0.00  0.00    -0.082 A 
ATOM     68  H51 non d ame     -29.457  13.905  20.407  0.00  0.00     0.083 H 
ATOM     69  C34 non d ame     -31.063  16.277  22.238  0.00  0.00    -0.075 A 
ATOM     70  H52 non d ame     -30.400  16.175  20.189  0.00  0.00     0.083 H 
ATOM     71  H53 non d ame     -31.479  17.279  22.134  0.00  0.00     0.084 H 
ENDBRANCH  58  61
ENDBRANCH  57  58
ENDBRANCH  55  57
ENDBRANCH  52  55
ENDBRANCH  49  52
ENDBRANCH  47  49
BRANCH  47  72
ATOM     72  C24 non d ame     -31.329  12.307  26.679  0.00  0.00    -0.039 C 
ATOM     73  H35 non d ame     -30.659  11.515  26.344  0.00  0.00     0.036 H 
ATOM     74  H36 non d ame     -31.287  13.290  26.210  0.00  0.00     0.036 H 
BRANCH  72  75
ATOM     75  C25 non d ame     -31.065  12.519  28.245  0.00  0.00    -0.001 C 
ATOM     76  C26 non d ame     -32.451  12.253  29.088  0.00  0.00    -0.035 C 
ATOM     77  C27 non d ame     -32.674  13.309  29.906  0.00  0.00     0.085 C 
ATOM     78  H38 non d ame     -33.307  12.267  28.413  0.00  0.00     0.036 H 
ATOM     79  H39 non d ame     -32.315  11.420  29.778  0.00  0.00     0.036 H 
ATOM     80  N5  non d ame     -31.748  14.415  29.461  0.00  0.00    -0.049 N 
ATOM     81  H40 non d ame     -33.705  13.611  29.717  0.00  0.00     0.075 H 
ATOM     82  H41 non d ame     -32.378  12.975  30.899  0.00  0.00     0.075 H 
ATOM     83  C28 non d ame     -30.660  13.720  28.492  0.00  0.00     0.193 C 
ATOM     84  H42 non d ame     -32.306  15.053  28.913  0.00  0.00     0.280 HD
ATOM     85  H43 non d ame     -31.276  14.743  30.292  0.00  0.00     0.280 HD
ATOM     86  H44 non d ame     -29.649  13.518  28.849  0.00  0.00     0.129 H 
ATOM     87  H37 non d ame     -30.169  11.999  28.586  0.00  0.00     0.046 H 
BRANCH  83  88
ATOM     88  O6  non d ame     -30.498  14.490  27.300  0.00  0.00    -0.369 OA
ATOM     89  H45 non d ame     -30.256  13.910  26.574  0.00  0.00     0.212 HD
ENDBRANCH  83  88
ENDBRANCH  72  75
ENDBRANCH  47  72
ENDBRANCH  45  47
ENDBRANCH   1  43
BRANCH   1  90
ATOM     90  C16 non d ame     -33.102   8.031  24.271  0.00  0.00    -0.035 C 
ATOM     91  H21 non d ame     -33.800   7.220  24.065  0.00  0.00     0.037 H 
ATOM     92  H22 non d ame     -33.432   9.067  24.189  0.00  0.00     0.037 H 
BRANCH  90  93
ATOM     93  C17 non d ame     -31.921   7.863  23.263  0.00  0.00    -0.059 C 
ATOM     94  H23 non d ame     -31.228   8.689  23.424  0.00  0.00     0.038 H 
BRANCH  93  95
ATOM     95  C18 non d ame     -31.136   6.532  23.492  0.00  0.00    -0.073 C 
ATOM     96  H24 non d ame     -31.659   5.924  24.230  0.00  0.00     0.028 H 
ATOM     97  H25 non d ame     -31.069   5.983  22.553  0.00  0.00     0.028 H 
ATOM     98  H26 non d ame     -30.133   6.759  23.853  0.00  0.00     0.028 H 
ENDBRANCH  93  95
BRANCH  93  99
ATOM     99  C19 non d ame     -32.417   7.961  21.818  0.00  0.00    -0.073 C 
ATOM    100  H27 non d ame     -32.190   8.952  21.422  0.00  0.00     0.028 H 
ATOM    101  H28 non d ame     -31.919   7.205  21.210  0.00  0.00     0.028 H 
ATOM    102  H29 non d ame     -33.494   7.796  21.791  0.00  0.00     0.028 H 
ENDBRANCH  93  99
ENDBRANCH  90  93
ENDBRANCH   1  90
TORSDOF 26
ENDMDL
MODEL 20
REMARK VINA RESULT:      -5.7      2.988      8.056
REMARK  26 active torsions:
REMARK  status: ('A' for Active; 'I' for Inactive)
REMARK    1  A    between atoms: C2_2  and  C3_3 
REMARK    2  A    between atoms: C4_6  and  C5_7 
REMARK       I    between atoms: C5_7  and  N2_9 
REMARK    3  A    between atoms: N2_9  and  C6_10 
REMARK    4  A    between atoms: C6_10  and  C7_11 
REMARK    5  A    between atoms: C6_10  and  C8_13 
REMARK       I    between atoms: C7_11  and  N3_14 
REMARK    6  A    between atoms: N3_14  and  C9_15 
REMARK    7  A    between atoms: C9_15  and  C10_16 
REMARK    8  A    between atoms: C9_15  and  C11_18 
REMARK       I    between atoms: C10_16  and  N4_21 
REMARK    9  A    between atoms: C11_18  and  C12_19 
REMARK   10  A    between atoms: C11_18  and  C13_20 
REMARK   11  A    between atoms: N4_21  and  C14_22 
REMARK   12  A    between atoms: C14_22  and  C15_23 
REMARK   13  A    between atoms: C14_22  and  C16_25 
REMARK       I    between atoms: C15_23  and  N6_40 
REMARK   14  A    between atoms: C16_25  and  C17_26 
REMARK   15  A    between atoms: C17_26  and  C18_27 
REMARK   16  A    between atoms: C17_26  and  C19_28 
REMARK   17  A    between atoms: C20_29  and  C21_30 
REMARK   18  A    between atoms: C20_29  and  C24_33 
REMARK   19  A    between atoms: C20_29  and  N6_40 
REMARK   20  A    between atoms: C21_30  and  C22_31 
REMARK   21  A    between atoms: C22_31  and  C23_32 
REMARK   22  A    between atoms: C23_32  and  O8_43 
REMARK   23  A    between atoms: C24_33  and  C25_34 
REMARK   24  A    between atoms: C28_38  and  O6_39 
REMARK   25  A    between atoms: C29_42  and  O8_43 
REMARK   26  A    between atoms: C29_42  and  C35_49 
ROOT
ATOM      1  C14 non d ame     -32.104   9.261  24.911  0.00  0.00     0.089 C 
ATOM      2  H20 non d ame     -31.176   8.690  24.880  0.00  0.00     0.087 H 
ENDROOT
BRANCH   1   3
ATOM      3  N4  non d ame     -33.090   8.457  25.619  0.00  0.00    -0.346 N 
ATOM      4  C10 non d ame     -32.876   6.976  25.800  0.00  0.00     0.241 C 
ATOM      5  O4  non d ame     -31.904   6.452  25.365  0.00  0.00    -0.271 OA
ATOM      6  H19 non d ame     -33.911   8.921  25.979  0.00  0.00     0.163 HD
BRANCH   4   7
ATOM      7  C9  non d ame     -33.903   6.160  26.540  0.00  0.00     0.092 C 
ATOM      8  H11 non d ame     -33.401   5.366  27.093  0.00  0.00     0.088 H 
BRANCH   7   9
ATOM      9  N3  non d ame     -34.585   7.007  27.523  0.00  0.00    -0.346 N 
ATOM     10  C7  non d ame     -34.560   6.653  28.921  0.00  0.00     0.240 C 
ATOM     11  O3  non d ame     -33.998   5.688  29.272  0.00  0.00    -0.271 OA
ATOM     12  H10 non d ame     -35.076   7.842  27.235  0.00  0.00     0.163 HD
BRANCH  10  13
ATOM     13  C6  non d ame     -35.291   7.557  29.962  0.00  0.00     0.086 C 
ATOM     14  H6  non d ame     -35.558   7.021  30.872  0.00  0.00     0.086 H 
BRANCH  13  15
ATOM     15  N2  non d ame     -34.398   8.633  30.360  0.00  0.00    -0.343 N 
ATOM     16  C5  non d ame     -34.197   9.772  29.462  0.00  0.00     0.273 C 
ATOM     17  O2  non d ame     -34.755   9.813  28.421  0.00  0.00    -0.266 OA
ATOM     18  H5  non d ame     -33.923   8.589  31.250  0.00  0.00     0.163 HD
BRANCH  16  19
ATOM     19  C4  non d ame     -33.257  10.918  29.871  0.00  0.00     0.154 A 
ATOM     20  C1  non d ame     -32.943  12.090  29.113  0.00  0.00    -0.017 A 
ATOM     21  C2  non d ame     -32.044  12.817  29.924  0.00  0.00     0.077 A 
ATOM     22  H1  non d ame     -33.311  12.371  28.126  0.00  0.00     0.091 H 
ATOM     23  O1  non d ame     -31.870  12.134  31.018  0.00  0.00    -0.218 OA
ATOM     24  N1  non d ame     -32.567  11.022  31.010  0.00  0.00    -0.123 NA
BRANCH  21  25
ATOM     25  C3  non d ame     -31.398  14.153  29.582  0.00  0.00    -0.029 C 
ATOM     26  H2  non d ame     -30.422  14.219  30.060  0.00  0.00     0.036 H 
ATOM     27  H3  non d ame     -31.280  14.233  28.501  0.00  0.00     0.036 H 
ATOM     28  H4  non d ame     -32.033  14.965  29.938  0.00  0.00     0.036 H 
ENDBRANCH  21  25
ENDBRANCH  16  19
ENDBRANCH  13  15
BRANCH  13  29
ATOM     29  C8  non d ame     -36.543   8.126  29.346  0.00  0.00    -0.049 C 
ATOM     30  H7  non d ame     -37.408   7.822  29.935  0.00  0.00     0.030 H 
ATOM     31  H8  non d ame     -36.479   9.214  29.331  0.00  0.00     0.030 H 
ATOM     32  H9  non d ame     -36.649   7.754  28.327  0.00  0.00     0.030 H 
ENDBRANCH  13  29
ENDBRANCH  10  13
ENDBRANCH   7   9
BRANCH   7  33
ATOM     33  C11 non d ame     -34.947   5.600  25.529  0.00  0.00    -0.033 C 
ATOM     34  H12 non d ame     -35.912   5.570  26.036  0.00  0.00     0.042 H 
BRANCH  33  35
ATOM     35  C12 non d ame     -35.097   6.537  24.290  0.00  0.00    -0.071 C 
ATOM     36  H13 non d ame     -34.242   6.402  23.627  0.00  0.00     0.028 H 
ATOM     37  H14 non d ame     -36.014   6.288  23.756  0.00  0.00     0.028 H 
ATOM     38  H15 non d ame     -35.139   7.574  24.622  0.00  0.00     0.028 H 
ENDBRANCH  33  35
BRANCH  33  39
ATOM     39  C13 non d ame     -34.582   4.144  25.097  0.00  0.00    -0.071 C 
ATOM     40  H16 non d ame     -34.493   3.514  25.983  0.00  0.00     0.028 H 
ATOM     41  H17 non d ame     -35.364   3.750  24.448  0.00  0.00     0.028 H 
ATOM     42  H18 non d ame     -33.634   4.151  24.560  0.00  0.00     0.028 H 
ENDBRANCH  33  39
ENDBRANCH   7  33
ENDBRANCH   4   7
ENDBRANCH   1   3
BRANCH   1  43
ATOM     43  C15 non d ame     -31.937  10.613  25.662  0.00  0.00     0.240 C 
ATOM     44  O5  non d ame     -31.326  10.653  26.680  0.00  0.00    -0.271 OA
ATOM     45  N6  non d ame     -32.533  11.862  25.106  0.00  0.00    -0.355 N 
ATOM     46  H46 non d ame     -33.050  11.842  24.239  0.00  0.00     0.162 HD
BRANCH  45  47
ATOM     47  C20 non d ame     -32.364  13.140  25.830  0.00  0.00     0.013 C 
ATOM     48  H30 non d ame     -32.337  12.920  26.897  0.00  0.00     0.072 H 
BRANCH  47  49
ATOM     49  C21 non d ame     -33.532  14.048  25.520  0.00  0.00    -0.038 C 
ATOM     50  H31 non d ame     -33.192  14.702  24.717  0.00  0.00     0.036 H 
ATOM     51  H32 non d ame     -34.384  13.388  25.361  0.00  0.00     0.036 H 
BRANCH  49  52
ATOM     52  C22 non d ame     -33.907  14.968  26.702  0.00  0.00     0.018 C 
ATOM     53  H33 non d ame     -34.995  15.024  26.700  0.00  0.00     0.048 H 
ATOM     54  H34 non d ame     -33.383  14.563  27.569  0.00  0.00     0.048 H 
BRANCH  52  55
ATOM     55  C23 non d ame     -33.403  16.430  26.543  0.00  0.00     0.259 C 
ATOM     56  O7  non d ame     -32.487  16.826  27.187  0.00  0.00    -0.265 OA
BRANCH  55  57
ATOM     57  O8  non d ame     -34.059  17.296  25.625  0.00  0.00    -0.317 OA
BRANCH  57  58
ATOM     58  C29 non d ame     -33.698  18.673  25.765  0.00  0.00     0.052 C 
ATOM     59  H47 non d ame     -33.069  18.724  26.653  0.00  0.00     0.082 H 
ATOM     60  H48 non d ame     -33.298  18.973  24.796  0.00  0.00     0.082 H 
BRANCH  58  61
ATOM     61  C35 non d ame     -34.994  19.484  26.033  0.00  0.00    -0.034 A 
ATOM     62  C30 non d ame     -35.932  19.653  25.020  0.00  0.00    -0.075 A 
ATOM     63  C31 non d ame     -37.096  20.382  25.260  0.00  0.00    -0.082 A 
ATOM     64  H49 non d ame     -35.755  19.215  24.037  0.00  0.00     0.084 H 
ATOM     65  C32 non d ame     -37.319  20.945  26.520  0.00  0.00    -0.083 A 
ATOM     66  H50 non d ame     -37.830  20.511  24.464  0.00  0.00     0.083 H 
ATOM     67  C33 non d ame     -36.378  20.776  27.527  0.00  0.00    -0.082 A 
ATOM     68  H51 non d ame     -38.226  21.515  26.716  0.00  0.00     0.083 H 
ATOM     69  C34 non d ame     -35.214  20.047  27.291  0.00  0.00    -0.075 A 
ATOM     70  H52 non d ame     -36.554  21.219  28.507  0.00  0.00     0.083 H 
ATOM     71  H53 non d ame     -34.481  19.918  28.088  0.00  0.00     0.084 H 
ENDBRANCH  58  61
ENDBRANCH  57  58
ENDBRANCH  55  57
ENDBRANCH  52  55
ENDBRANCH  49  52
ENDBRANCH  47  49
BRANCH  47  72
ATOM     72  C24 non d ame     -31.064  13.813  25.394  0.00  0.00    -0.039 C 
ATOM     73  H35 non d ame     -30.976  14.704  26.017  0.00  0.00     0.036 H 
ATOM     74  H36 non d ame     -30.303  13.035  25.445  0.00  0.00     0.036 H 
BRANCH  72  75
ATOM     75  C25 non d ame     -31.134  14.306  23.871  0.00  0.00    -0.001 C 
ATOM     76  C26 non d ame     -30.182  13.352  22.930  0.00  0.00    -0.035 C 
ATOM     77  C27 non d ame     -29.360  14.142  22.198  0.00  0.00     0.085 C 
ATOM     78  H38 non d ame     -29.496  12.778  23.552  0.00  0.00     0.036 H 
ATOM     79  H39 non d ame     -30.787  12.847  22.176  0.00  0.00     0.036 H 
ATOM     80  N5  non d ame     -29.436  15.528  22.793  0.00  0.00    -0.049 N 
ATOM     81  H40 non d ame     -28.358  13.743  22.354  0.00  0.00     0.075 H 
ATOM     82  H41 non d ame     -29.789  14.162  21.197  0.00  0.00     0.075 H 
ATOM     83  C28 non d ame     -30.731  15.528  23.756  0.00  0.00     0.193 C 
ATOM     84  H42 non d ame     -28.610  15.640  23.364  0.00  0.00     0.280 HD
ATOM     85  H43 non d ame     -29.607  16.160  22.023  0.00  0.00     0.280 HD
ATOM     86  H44 non d ame     -31.655  16.013  23.442  0.00  0.00     0.129 H 
ATOM     87  H37 non d ame     -32.159  14.469  23.537  0.00  0.00     0.046 H 
BRANCH  83  88
ATOM     88  O6  non d ame     -30.405  16.109  25.020  0.00  0.00    -0.369 OA
ATOM     89  H45 non d ame     -31.151  16.624  25.337  0.00  0.00     0.212 HD
ENDBRANCH  83  88
ENDBRANCH  72  75
ENDBRANCH  47  72
ENDBRANCH  45  47
ENDBRANCH   1  43
BRANCH   1  90
ATOM     90  C16 non d ame     -32.598   9.519  23.497  0.00  0.00    -0.035 C 
ATOM     91  H21 non d ame     -33.441   8.844  23.358  0.00  0.00     0.037 H 
ATOM     92  H22 non d ame     -32.746  10.597  23.435  0.00  0.00     0.037 H 
BRANCH  90  93
ATOM     93  C17 non d ame     -31.555   9.153  22.393  0.00  0.00    -0.059 C 
ATOM     94  H23 non d ame     -31.848   9.666  21.478  0.00  0.00     0.038 H 
BRANCH  93  95
ATOM     95  C18 non d ame     -30.113   9.628  22.764  0.00  0.00    -0.073 C 
ATOM     96  H24 non d ame     -29.948  10.630  22.371  0.00  0.00     0.028 H 
ATOM     97  H25 non d ame     -30.002   9.640  23.848  0.00  0.00     0.028 H 
ATOM     98  H26 non d ame     -29.383   8.943  22.332  0.00  0.00     0.028 H 
ENDBRANCH  93  95
BRANCH  93  99
ATOM     99  C19 non d ame     -31.575   7.651  22.098  0.00  0.00    -0.073 C 
ATOM    100  H27 non d ame     -32.577   7.259  22.273  0.00  0.00     0.028 H 
ATOM    101  H28 non d ame     -31.294   7.480  21.059  0.00  0.00     0.028 H 
ATOM    102  H29 non d ame     -30.867   7.143  22.753  0.00  0.00     0.028 H 
ENDBRANCH  93  99
ENDBRANCH  90  93
ENDBRANCH   1  90
TORSDOF 26
ENDMDL
