MODEL 1
REMARK VINA RESULT:      -6.7      0.000      0.000
REMARK  26 active torsions:
REMARK  status: ('A' for Active; 'I' for Inactive)
REMARK    1  A    between atoms: C2_2  and  C3_3 
REMARK    2  A    between atoms: C4_6  and  C5_7 
REMARK       I    between atoms: C5_7  and  N2_9 
REMARK    3  A    between atoms: N2_9  and  C6_10 
REMARK    4  A    between atoms: C6_10  and  C7_11 
REMARK    5  A    between atoms: C6_10  and  C8_13 
REMARK       I    between atoms: C7_11  and  N3_14 
REMARK    6  A    between atoms: N3_14  and  C9_15 
REMARK    7  A    between atoms: C9_15  and  C10_16 
REMARK    8  A    between atoms: C9_15  and  C11_18 
REMARK       I    between atoms: C10_16  and  N4_21 
REMARK    9  A    between atoms: C11_18  and  C12_19 
REMARK   10  A    between atoms: C11_18  and  C13_20 
REMARK   11  A    between atoms: N4_21  and  C14_22 
REMARK   12  A    between atoms: C14_22  and  C15_23 
REMARK   13  A    between atoms: C14_22  and  C16_25 
REMARK       I    between atoms: C15_23  and  N6_40 
REMARK   14  A    between atoms: C16_25  and  C17_26 
REMARK   15  A    between atoms: C17_26  and  C18_27 
REMARK   16  A    between atoms: C17_26  and  C19_28 
REMARK   17  A    between atoms: C20_29  and  C21_30 
REMARK   18  A    between atoms: C20_29  and  C24_33 
REMARK   19  A    between atoms: C20_29  and  N6_40 
REMARK   20  A    between atoms: C21_30  and  C22_31 
REMARK   21  A    between atoms: C22_31  and  C23_32 
REMARK   22  A    between atoms: C23_32  and  O8_43 
REMARK   23  A    between atoms: C24_33  and  C25_34 
REMARK   24  A    between atoms: C28_38  and  O6_39 
REMARK   25  A    between atoms: C29_42  and  O8_43 
REMARK   26  A    between atoms: C29_42  and  C35_49 
ROOT
ATOM      1  C14 non d ame     -32.842  10.966  29.841  0.00  0.00     0.089 C 
ATOM      2  H20 non d ame     -31.855  10.517  29.728  0.00  0.00     0.087 H 
ENDROOT
BRANCH   1   3
ATOM      3  N4  non d ame     -33.344  11.261  28.507  0.00  0.00    -0.346 N 
ATOM      4  C10 non d ame     -32.593  10.788  27.288  0.00  0.00     0.241 C 
ATOM      5  O4  non d ame     -31.585  10.173  27.406  0.00  0.00    -0.271 OA
ATOM      6  H19 non d ame     -34.203  11.788  28.428  0.00  0.00     0.163 HD
BRANCH   4   7
ATOM      7  C9  non d ame     -33.130  11.098  25.916  0.00  0.00     0.092 C 
ATOM      8  H11 non d ame     -34.214  10.981  25.920  0.00  0.00     0.088 H 
BRANCH   7   9
ATOM      9  N3  non d ame     -32.846  12.497  25.584  0.00  0.00    -0.346 N 
ATOM     10  C7  non d ame     -33.761  13.534  25.993  0.00  0.00     0.240 C 
ATOM     11  O3  non d ame     -34.730  13.261  26.589  0.00  0.00    -0.271 OA
ATOM     12  H10 non d ame     -32.015  12.748  25.069  0.00  0.00     0.163 HD
BRANCH  10  13
ATOM     13  C6  non d ame     -33.454  15.022  25.634  0.00  0.00     0.086 C 
ATOM     14  H6  non d ame     -32.771  15.494  26.340  0.00  0.00     0.086 H 
BRANCH  13  15
ATOM     15  N2  non d ame     -32.808  15.069  24.334  0.00  0.00    -0.343 N 
ATOM     16  C5  non d ame     -31.471  15.656  24.214  0.00  0.00     0.273 C 
ATOM     17  O2  non d ame     -30.927  16.090  25.169  0.00  0.00    -0.266 OA
ATOM     18  H5  non d ame     -33.282  14.698  23.522  0.00  0.00     0.163 HD
BRANCH  16  19
ATOM     19  C4  non d ame     -30.775  15.712  22.845  0.00  0.00     0.154 A 
ATOM     20  C1  non d ame     -31.398  15.817  21.561  0.00  0.00    -0.017 A 
ATOM     21  C2  non d ame     -30.329  15.830  20.638  0.00  0.00     0.077 A 
ATOM     22  H1  non d ame     -32.463  15.876  21.335  0.00  0.00     0.091 H 
ATOM     23  O1  non d ame     -29.226  15.743  21.322  0.00  0.00    -0.218 OA
ATOM     24  N1  non d ame     -29.460  15.672  22.612  0.00  0.00    -0.123 NA
BRANCH  21  25
ATOM     25  C3  non d ame     -30.447  15.929  19.123  0.00  0.00    -0.029 C 
ATOM     26  H2  non d ame     -31.182  16.690  18.864  0.00  0.00     0.036 H 
ATOM     27  H3  non d ame     -29.480  16.199  18.700  0.00  0.00     0.036 H 
ATOM     28  H4  non d ame     -30.763  14.967  18.720  0.00  0.00     0.036 H 
ENDBRANCH  21  25
ENDBRANCH  16  19
ENDBRANCH  13  15
BRANCH  13  29
ATOM     29  C8  non d ame     -34.740  15.808  25.601  0.00  0.00    -0.049 C 
ATOM     30  H7  non d ame     -34.945  16.126  24.578  0.00  0.00     0.030 H 
ATOM     31  H8  non d ame     -35.558  15.183  25.958  0.00  0.00     0.030 H 
ATOM     32  H9  non d ame     -34.646  16.685  26.242  0.00  0.00     0.030 H 
ENDBRANCH  13  29
ENDBRANCH  10  13
ENDBRANCH   7   9
BRANCH   7  33
ATOM     33  C11 non d ame     -32.446  10.170  24.869  0.00  0.00    -0.033 C 
ATOM     34  H12 non d ame     -31.918   9.389  25.418  0.00  0.00     0.042 H 
BRANCH  33  35
ATOM     35  C12 non d ame     -33.499   9.471  23.955  0.00  0.00    -0.071 C 
ATOM     36  H13 non d ame     -33.101   9.382  22.944  0.00  0.00     0.028 H 
ATOM     37  H14 non d ame     -33.719   8.478  24.347  0.00  0.00     0.028 H 
ATOM     38  H15 non d ame     -34.413  10.064  23.934  0.00  0.00     0.028 H 
ENDBRANCH  33  35
BRANCH  33  39
ATOM     39  C13 non d ame     -31.396  10.960  24.023  0.00  0.00    -0.071 C 
ATOM     40  H16 non d ame     -30.499  11.124  24.620  0.00  0.00     0.028 H 
ATOM     41  H17 non d ame     -31.141  10.385  23.132  0.00  0.00     0.028 H 
ATOM     42  H18 non d ame     -31.817  11.920  23.727  0.00  0.00     0.028 H 
ENDBRANCH  33  39
ENDBRANCH   7  33
ENDBRANCH   4   7
ENDBRANCH   1   3
BRANCH   1  43
ATOM     43  C15 non d ame     -33.845  10.010  30.547  0.00  0.00     0.240 C 
ATOM     44  O5  non d ame     -34.065  10.136  31.708  0.00  0.00    -0.271 OA
ATOM     45  N6  non d ame     -34.539   8.941  29.773  0.00  0.00    -0.355 N 
ATOM     46  H46 non d ame     -34.365   8.827  28.785  0.00  0.00     0.162 HD
BRANCH  45  47
ATOM     47  C20 non d ame     -35.491   8.041  30.459  0.00  0.00     0.013 C 
ATOM     48  H30 non d ame     -35.329   8.136  31.533  0.00  0.00     0.072 H 
BRANCH  47  49
ATOM     49  C21 non d ame     -35.234   6.616  30.023  0.00  0.00    -0.038 C 
ATOM     50  H31 non d ame     -34.893   6.681  28.989  0.00  0.00     0.036 H 
ATOM     51  H32 non d ame     -34.584   6.187  30.786  0.00  0.00     0.036 H 
BRANCH  49  52
ATOM     52  C22 non d ame     -36.515   5.754  30.006  0.00  0.00     0.018 C 
ATOM     53  H33 non d ame     -36.273   4.854  30.571  0.00  0.00     0.048 H 
ATOM     54  H34 non d ame     -37.317   6.411  30.344  0.00  0.00     0.048 H 
BRANCH  52  55
ATOM     55  C23 non d ame     -36.926   5.270  28.587  0.00  0.00     0.259 C 
ATOM     56  O7  non d ame     -38.073   5.134  28.305  0.00  0.00    -0.265 OA
BRANCH  55  57
ATOM     57  O8  non d ame     -35.915   4.979  27.630  0.00  0.00    -0.317 OA
BRANCH  57  58
ATOM     58  C29 non d ame     -35.904   5.865  26.507  0.00  0.00     0.052 C 
ATOM     59  H47 non d ame     -36.493   5.370  25.735  0.00  0.00     0.082 H 
ATOM     60  H48 non d ame     -36.218   6.835  26.893  0.00  0.00     0.082 H 
BRANCH  58  61
ATOM     61  C35 non d ame     -34.440   5.986  26.006  0.00  0.00    -0.034 A 
ATOM     62  C30 non d ame     -33.493   6.650  26.778  0.00  0.00    -0.075 A 
ATOM     63  C31 non d ame     -32.178   6.759  26.329  0.00  0.00    -0.082 A 
ATOM     64  H49 non d ame     -33.780   7.086  27.735  0.00  0.00     0.084 H 
ATOM     65  C32 non d ame     -31.812   6.202  25.100  0.00  0.00    -0.083 A 
ATOM     66  H50 non d ame     -31.437   7.279  26.937  0.00  0.00     0.083 H 
ATOM     67  C33 non d ame     -32.762   5.543  24.332  0.00  0.00    -0.082 A 
ATOM     68  H51 non d ame     -30.786   6.282  24.742  0.00  0.00     0.083 H 
ATOM     69  C34 non d ame     -34.077   5.430  24.778  0.00  0.00    -0.075 A 
ATOM     70  H52 non d ame     -32.474   5.112  23.373  0.00  0.00     0.083 H 
ATOM     71  H53 non d ame     -34.817   4.910  24.170  0.00  0.00     0.084 H 
ENDBRANCH  58  61
ENDBRANCH  57  58
ENDBRANCH  55  57
ENDBRANCH  52  55
ENDBRANCH  49  52
ENDBRANCH  47  49
BRANCH  47  72
ATOM     72  C24 non d ame     -36.923   8.433  30.101  0.00  0.00    -0.039 C 
ATOM     73  H35 non d ame     -36.839   9.055  29.209  0.00  0.00     0.036 H 
ATOM     74  H36 non d ame     -37.479   7.497  30.062  0.00  0.00     0.036 H 
BRANCH  72  75
ATOM     75  C25 non d ame     -37.594   9.334  31.244  0.00  0.00    -0.001 C 
ATOM     76  C26 non d ame     -39.123   8.810  31.544  0.00  0.00    -0.035 C 
ATOM     77  C27 non d ame     -39.967   9.867  31.480  0.00  0.00     0.085 C 
ATOM     78  H38 non d ame     -39.462   8.163  30.736  0.00  0.00     0.036 H 
ATOM     79  H39 non d ame     -39.208   8.478  32.579  0.00  0.00     0.036 H 
ATOM     80  N5  non d ame     -39.205  11.003  30.843  0.00  0.00    -0.049 N 
ATOM     81  H40 non d ame     -40.770   9.558  30.811  0.00  0.00     0.075 H 
ATOM     82  H41 non d ame     -40.190  10.125  32.515  0.00  0.00     0.075 H 
ATOM     83  C28 non d ame     -37.649  10.574  30.889  0.00  0.00     0.193 C 
ATOM     84  H42 non d ame     -39.500  11.040  29.878  0.00  0.00     0.280 HD
ATOM     85  H43 non d ame     -39.335  11.806  31.442  0.00  0.00     0.280 HD
ATOM     86  H44 non d ame     -36.973  11.020  31.619  0.00  0.00     0.129 H 
ATOM     87  H37 non d ame     -36.937   9.467  32.103  0.00  0.00     0.046 H 
BRANCH  83  88
ATOM     88  O6  non d ame     -37.038  10.799  29.617  0.00  0.00    -0.369 OA
ATOM     89  H45 non d ame     -36.369  10.128  29.460  0.00  0.00     0.212 HD
ENDBRANCH  83  88
ENDBRANCH  72  75
ENDBRANCH  47  72
ENDBRANCH  45  47
ENDBRANCH   1  43
BRANCH   1  90
ATOM     90  C16 non d ame     -32.732  12.262  30.628  0.00  0.00    -0.035 C 
ATOM     91  H21 non d ame     -33.333  12.986  30.078  0.00  0.00     0.037 H 
ATOM     92  H22 non d ame     -32.995  12.001  31.653  0.00  0.00     0.037 H 
BRANCH  90  93
ATOM     93  C17 non d ame     -31.282  12.843  30.679  0.00  0.00    -0.059 C 
ATOM     94  H23 non d ame     -31.197  13.440  31.586  0.00  0.00     0.038 H 
BRANCH  93  95
ATOM     95  C18 non d ame     -30.199  11.718  30.745  0.00  0.00    -0.073 C 
ATOM     96  H24 non d ame     -29.210  12.159  30.623  0.00  0.00     0.028 H 
ATOM     97  H25 non d ame     -30.256  11.216  31.710  0.00  0.00     0.028 H 
ATOM     98  H26 non d ame     -30.376  10.996  29.948  0.00  0.00     0.028 H 
ENDBRANCH  93  95
BRANCH  93  99
ATOM     99  C19 non d ame     -31.026  13.777  29.493  0.00  0.00    -0.073 C 
ATOM    100  H27 non d ame     -30.270  14.514  29.768  0.00  0.00     0.028 H 
ATOM    101  H28 non d ame     -30.672  13.195  28.641  0.00  0.00     0.028 H 
ATOM    102  H29 non d ame     -31.951  14.287  29.225  0.00  0.00     0.028 H 
ENDBRANCH  93  99
ENDBRANCH  90  93
ENDBRANCH   1  90
TORSDOF 26
ENDMDL
MODEL 2
REMARK VINA RESULT:      -6.6      2.610      9.409
REMARK  26 active torsions:
REMARK  status: ('A' for Active; 'I' for Inactive)
REMARK    1  A    between atoms: C2_2  and  C3_3 
REMARK    2  A    between atoms: C4_6  and  C5_7 
REMARK       I    between atoms: C5_7  and  N2_9 
REMARK    3  A    between atoms: N2_9  and  C6_10 
REMARK    4  A    between atoms: C6_10  and  C7_11 
REMARK    5  A    between atoms: C6_10  and  C8_13 
REMARK       I    between atoms: C7_11  and  N3_14 
REMARK    6  A    between atoms: N3_14  and  C9_15 
REMARK    7  A    between atoms: C9_15  and  C10_16 
REMARK    8  A    between atoms: C9_15  and  C11_18 
REMARK       I    between atoms: C10_16  and  N4_21 
REMARK    9  A    between atoms: C11_18  and  C12_19 
REMARK   10  A    between atoms: C11_18  and  C13_20 
REMARK   11  A    between atoms: N4_21  and  C14_22 
REMARK   12  A    between atoms: C14_22  and  C15_23 
REMARK   13  A    between atoms: C14_22  and  C16_25 
REMARK       I    between atoms: C15_23  and  N6_40 
REMARK   14  A    between atoms: C16_25  and  C17_26 
REMARK   15  A    between atoms: C17_26  and  C18_27 
REMARK   16  A    between atoms: C17_26  and  C19_28 
REMARK   17  A    between atoms: C20_29  and  C21_30 
REMARK   18  A    between atoms: C20_29  and  C24_33 
REMARK   19  A    between atoms: C20_29  and  N6_40 
REMARK   20  A    between atoms: C21_30  and  C22_31 
REMARK   21  A    between atoms: C22_31  and  C23_32 
REMARK   22  A    between atoms: C23_32  and  O8_43 
REMARK   23  A    between atoms: C24_33  and  C25_34 
REMARK   24  A    between atoms: C28_38  and  O6_39 
REMARK   25  A    between atoms: C29_42  and  O8_43 
REMARK   26  A    between atoms: C29_42  and  C35_49 
ROOT
ATOM      1  C14 non d ame     -33.257  12.007  26.790  0.00  0.00     0.089 C 
ATOM      2  H20 non d ame     -33.669  12.884  26.291  0.00  0.00     0.087 H 
ENDROOT
BRANCH   1   3
ATOM      3  N4  non d ame     -34.075  11.747  27.965  0.00  0.00    -0.346 N 
ATOM      4  C10 non d ame     -33.839  10.513  28.800  0.00  0.00     0.241 C 
ATOM      5  O4  non d ame     -32.987   9.742  28.503  0.00  0.00    -0.271 OA
ATOM      6  H19 non d ame     -34.797  12.414  28.199  0.00  0.00     0.163 HD
BRANCH   4   7
ATOM      7  C9  non d ame     -34.691  10.263  30.016  0.00  0.00     0.092 C 
ATOM      8  H11 non d ame     -35.610  10.843  29.936  0.00  0.00     0.088 H 
BRANCH   7   9
ATOM      9  N3  non d ame     -35.075   8.848  30.062  0.00  0.00    -0.346 N 
ATOM     10  C7  non d ame     -36.469   8.481  30.096  0.00  0.00     0.240 C 
ATOM     11  O3  non d ame     -37.295   9.310  30.089  0.00  0.00    -0.271 OA
ATOM     12  H10 non d ame     -34.373   8.122  30.071  0.00  0.00     0.163 HD
BRANCH  10  13
ATOM     13  C6  non d ame     -36.871   6.974  30.148  0.00  0.00     0.086 C 
ATOM     14  H6  non d ame     -37.089   6.562  29.164  0.00  0.00     0.086 H 
BRANCH  13  15
ATOM     15  N2  non d ame     -35.758   6.208  30.683  0.00  0.00    -0.343 N 
ATOM     16  C5  non d ame     -34.956   5.376  29.782  0.00  0.00     0.273 C 
ATOM     17  O2  non d ame     -35.217   5.329  28.630  0.00  0.00    -0.266 OA
ATOM     18  H5  non d ame     -35.544   6.252  31.669  0.00  0.00     0.163 HD
BRANCH  16  19
ATOM     19  C4  non d ame     -33.775   4.562  30.333  0.00  0.00     0.154 A 
ATOM     20  C1  non d ame     -33.560   4.160  31.690  0.00  0.00    -0.017 A 
ATOM     21  C2  non d ame     -32.345   3.440  31.667  0.00  0.00     0.077 A 
ATOM     22  H1  non d ame     -34.190   4.360  32.557  0.00  0.00     0.091 H 
ATOM     23  O1  non d ame     -31.921   3.434  30.437  0.00  0.00    -0.218 OA
ATOM     24  N1  non d ame     -32.738   4.082  29.641  0.00  0.00    -0.123 NA
BRANCH  21  25
ATOM     25  C3  non d ame     -31.660   2.790  32.862  0.00  0.00    -0.029 C 
ATOM     26  H2  non d ame     -31.978   3.287  33.778  0.00  0.00     0.036 H 
ATOM     27  H3  non d ame     -31.932   1.736  32.908  0.00  0.00     0.036 H 
ATOM     28  H4  non d ame     -30.579   2.882  32.755  0.00  0.00     0.036 H 
ENDBRANCH  21  25
ENDBRANCH  16  19
ENDBRANCH  13  15
BRANCH  13  29
ATOM     29  C8  non d ame     -38.084   6.805  31.028  0.00  0.00    -0.049 C 
ATOM     30  H7  non d ame     -38.085   5.803  31.457  0.00  0.00     0.030 H 
ATOM     31  H8  non d ame     -38.057   7.543  31.829  0.00  0.00     0.030 H 
ATOM     32  H9  non d ame     -38.987   6.946  30.433  0.00  0.00     0.030 H 
ENDBRANCH  13  29
ENDBRANCH  10  13
ENDBRANCH   7   9
BRANCH   7  33
ATOM     33  C11 non d ame     -33.883  10.620  31.298  0.00  0.00    -0.033 C 
ATOM     34  H12 non d ame     -33.274   9.753  31.555  0.00  0.00     0.042 H 
BRANCH  33  35
ATOM     35  C12 non d ame     -32.913  11.816  31.043  0.00  0.00    -0.071 C 
ATOM     36  H13 non d ame     -33.224  12.351  30.146  0.00  0.00     0.028 H 
ATOM     37  H14 non d ame     -32.939  12.492  31.897  0.00  0.00     0.028 H 
ATOM     38  H15 non d ame     -31.899  11.439  30.908  0.00  0.00     0.028 H 
ENDBRANCH  33  35
BRANCH  33  39
ATOM     39  C13 non d ame     -34.839  10.912  32.499  0.00  0.00    -0.071 C 
ATOM     40  H16 non d ame     -35.225   9.971  32.893  0.00  0.00     0.028 H 
ATOM     41  H17 non d ame     -34.289  11.436  33.282  0.00  0.00     0.028 H 
ATOM     42  H18 non d ame     -35.668  11.533  32.160  0.00  0.00     0.028 H 
ENDBRANCH  33  39
ENDBRANCH   7  33
ENDBRANCH   4   7
ENDBRANCH   1   3
BRANCH   1  43
ATOM     43  C15 non d ame     -33.285  10.746  25.878  0.00  0.00     0.240 C 
ATOM     44  O5  non d ame     -34.296  10.428  25.340  0.00  0.00    -0.271 OA
ATOM     45  N6  non d ame     -32.049   9.940  25.669  0.00  0.00    -0.355 N 
ATOM     46  H46 non d ame     -31.183  10.203  26.117  0.00  0.00     0.162 HD
BRANCH  45  47
ATOM     47  C20 non d ame     -32.092   8.745  24.799  0.00  0.00     0.013 C 
ATOM     48  H30 non d ame     -31.077   8.358  24.711  0.00  0.00     0.072 H 
BRANCH  47  49
ATOM     49  C21 non d ame     -32.613   9.139  23.435  0.00  0.00    -0.038 C 
ATOM     50  H31 non d ame     -33.376   8.400  23.187  0.00  0.00     0.036 H 
ATOM     51  H32 non d ame     -32.881  10.193  23.516  0.00  0.00     0.036 H 
BRANCH  49  52
ATOM     52  C22 non d ame     -31.538   9.045  22.332  0.00  0.00     0.018 C 
ATOM     53  H33 non d ame     -31.252   7.994  22.287  0.00  0.00     0.048 H 
ATOM     54  H34 non d ame     -31.969   9.530  21.456  0.00  0.00     0.048 H 
BRANCH  52  55
ATOM     55  C23 non d ame     -30.236   9.828  22.658  0.00  0.00     0.259 C 
ATOM     56  O7  non d ame     -29.178   9.288  22.606  0.00  0.00    -0.265 OA
BRANCH  55  57
ATOM     57  O8  non d ame     -30.321  11.197  23.031  0.00  0.00    -0.317 OA
BRANCH  57  58
ATOM     58  C29 non d ame     -29.533  12.073  22.220  0.00  0.00     0.052 C 
ATOM     59  H47 non d ame     -28.537  12.067  22.663  0.00  0.00     0.082 H 
ATOM     60  H48 non d ame     -29.675  11.733  21.195  0.00  0.00     0.082 H 
BRANCH  58  61
ATOM     61  C35 non d ame     -30.120  13.504  22.349  0.00  0.00    -0.034 A 
ATOM     62  C30 non d ame     -29.906  14.438  21.340  0.00  0.00    -0.075 A 
ATOM     63  C31 non d ame     -30.433  15.723  21.456  0.00  0.00    -0.082 A 
ATOM     64  H49 non d ame     -29.326  14.163  20.459  0.00  0.00     0.084 H 
ATOM     65  C32 non d ame     -31.174  16.074  22.588  0.00  0.00    -0.083 A 
ATOM     66  H50 non d ame     -30.265  16.452  20.663  0.00  0.00     0.083 H 
ATOM     67  C33 non d ame     -31.381  15.140  23.593  0.00  0.00    -0.082 A 
ATOM     68  H51 non d ame     -31.590  17.077  22.686  0.00  0.00     0.083 H 
ATOM     69  C34 non d ame     -30.859  13.853  23.481  0.00  0.00    -0.075 A 
ATOM     70  H52 non d ame     -31.958  15.418  24.476  0.00  0.00     0.083 H 
ATOM     71  H53 non d ame     -31.027  13.125  24.274  0.00  0.00     0.084 H 
ENDBRANCH  58  61
ENDBRANCH  57  58
ENDBRANCH  55  57
ENDBRANCH  52  55
ENDBRANCH  49  52
ENDBRANCH  47  49
BRANCH  47  72
ATOM     72  C24 non d ame     -33.011   7.692  25.412  0.00  0.00    -0.039 C 
ATOM     73  H35 non d ame     -33.161   8.004  26.446  0.00  0.00     0.036 H 
ATOM     74  H36 non d ame     -33.863   7.621  24.736  0.00  0.00     0.036 H 
BRANCH  72  75
ATOM     75  C25 non d ame     -32.317   6.248  25.450  0.00  0.00    -0.001 C 
ATOM     76  C26 non d ame     -33.198   5.180  24.562  0.00  0.00    -0.035 C 
ATOM     77  C27 non d ame     -33.440   4.082  25.317  0.00  0.00     0.085 C 
ATOM     78  H38 non d ame     -34.192   5.583  24.371  0.00  0.00     0.036 H 
ATOM     79  H39 non d ame     -32.598   4.795  23.737  0.00  0.00     0.036 H 
ATOM     80  N5  non d ame     -33.089   4.438  26.741  0.00  0.00    -0.049 N 
ATOM     81  H40 non d ame     -34.515   3.912  25.247  0.00  0.00     0.075 H 
ATOM     82  H41 non d ame     -32.745   3.323  24.958  0.00  0.00     0.075 H 
ATOM     83  C28 non d ame     -32.231   5.803  26.659  0.00  0.00     0.193 C 
ATOM     84  H42 non d ame     -33.962   4.634  27.210  0.00  0.00     0.280 HD
ATOM     85  H43 non d ame     -32.488   3.700  27.080  0.00  0.00     0.280 HD
ATOM     86  H44 non d ame     -31.148   5.784  26.786  0.00  0.00     0.129 H 
ATOM     87  H37 non d ame     -31.247   6.299  25.246  0.00  0.00     0.046 H 
BRANCH  83  88
ATOM     88  O6  non d ame     -32.712   6.746  27.617  0.00  0.00    -0.369 OA
ATOM     89  H45 non d ame     -32.313   7.604  27.451  0.00  0.00     0.212 HD
ENDBRANCH  83  88
ENDBRANCH  72  75
ENDBRANCH  47  72
ENDBRANCH  45  47
ENDBRANCH   1  43
BRANCH   1  90
ATOM     90  C16 non d ame     -31.830  12.287  27.231  0.00  0.00    -0.035 C 
ATOM     91  H21 non d ame     -31.564  11.461  27.890  0.00  0.00     0.037 H 
ATOM     92  H22 non d ame     -31.270  12.451  26.309  0.00  0.00     0.037 H 
BRANCH  90  93
ATOM     93  C17 non d ame     -31.680  13.592  28.076  0.00  0.00    -0.059 C 
ATOM     94  H23 non d ame     -32.529  13.644  28.757  0.00  0.00     0.038 H 
BRANCH  93  95
ATOM     95  C18 non d ame     -30.377  13.589  28.938  0.00  0.00    -0.073 C 
ATOM     96  H24 non d ame     -30.604  13.949  29.941  0.00  0.00     0.028 H 
ATOM     97  H25 non d ame     -29.982  12.575  28.997  0.00  0.00     0.028 H 
ATOM     98  H26 non d ame     -29.635  14.241  28.477  0.00  0.00     0.028 H 
ENDBRANCH  93  95
BRANCH  93  99
ATOM     99  C19 non d ame     -31.738  14.832  27.181  0.00  0.00    -0.073 C 
ATOM    100  H27 non d ame     -31.866  14.526  26.142  0.00  0.00     0.028 H 
ATOM    101  H28 non d ame     -32.579  15.458  27.481  0.00  0.00     0.028 H 
ATOM    102  H29 non d ame     -30.812  15.398  27.282  0.00  0.00     0.028 H 
ENDBRANCH  93  99
ENDBRANCH  90  93
ENDBRANCH   1  90
TORSDOF 26
ENDMDL
MODEL 3
REMARK VINA RESULT:      -6.5      3.338      6.807
REMARK  26 active torsions:
REMARK  status: ('A' for Active; 'I' for Inactive)
REMARK    1  A    between atoms: C2_2  and  C3_3 
REMARK    2  A    between atoms: C4_6  and  C5_7 
REMARK       I    between atoms: C5_7  and  N2_9 
REMARK    3  A    between atoms: N2_9  and  C6_10 
REMARK    4  A    between atoms: C6_10  and  C7_11 
REMARK    5  A    between atoms: C6_10  and  C8_13 
REMARK       I    between atoms: C7_11  and  N3_14 
REMARK    6  A    between atoms: N3_14  and  C9_15 
REMARK    7  A    between atoms: C9_15  and  C10_16 
REMARK    8  A    between atoms: C9_15  and  C11_18 
REMARK       I    between atoms: C10_16  and  N4_21 
REMARK    9  A    between atoms: C11_18  and  C12_19 
REMARK   10  A    between atoms: C11_18  and  C13_20 
REMARK   11  A    between atoms: N4_21  and  C14_22 
REMARK   12  A    between atoms: C14_22  and  C15_23 
REMARK   13  A    between atoms: C14_22  and  C16_25 
REMARK       I    between atoms: C15_23  and  N6_40 
REMARK   14  A    between atoms: C16_25  and  C17_26 
REMARK   15  A    between atoms: C17_26  and  C18_27 
REMARK   16  A    between atoms: C17_26  and  C19_28 
REMARK   17  A    between atoms: C20_29  and  C21_30 
REMARK   18  A    between atoms: C20_29  and  C24_33 
REMARK   19  A    between atoms: C20_29  and  N6_40 
REMARK   20  A    between atoms: C21_30  and  C22_31 
REMARK   21  A    between atoms: C22_31  and  C23_32 
REMARK   22  A    between atoms: C23_32  and  O8_43 
REMARK   23  A    between atoms: C24_33  and  C25_34 
REMARK   24  A    between atoms: C28_38  and  O6_39 
REMARK   25  A    between atoms: C29_42  and  O8_43 
REMARK   26  A    between atoms: C29_42  and  C35_49 
ROOT
ATOM      1  C14 non d ame     -34.861   6.192  29.989  0.00  0.00     0.089 C 
ATOM      2  H20 non d ame     -34.311   6.233  30.930  0.00  0.00     0.087 H 
ENDROOT
BRANCH   1   3
ATOM      3  N4  non d ame     -35.085   7.562  29.553  0.00  0.00    -0.346 N 
ATOM      4  C10 non d ame     -34.778   8.715  30.475  0.00  0.00     0.241 C 
ATOM      5  O4  non d ame     -34.354   8.515  31.566  0.00  0.00    -0.271 OA
ATOM      6  H19 non d ame     -35.448   7.711  28.622  0.00  0.00     0.163 HD
BRANCH   4   7
ATOM      7  C9  non d ame     -35.010  10.127  30.005  0.00  0.00     0.092 C 
ATOM      8  H11 non d ame     -35.378  10.726  30.838  0.00  0.00     0.088 H 
BRANCH   7   9
ATOM      9  N3  non d ame     -33.738  10.715  29.576  0.00  0.00    -0.346 N 
ATOM     10  C7  non d ame     -33.030  11.617  30.451  0.00  0.00     0.240 C 
ATOM     11  O3  non d ame     -33.470  11.881  31.503  0.00  0.00    -0.271 OA
ATOM     12  H10 non d ame     -33.347  10.498  28.670  0.00  0.00     0.163 HD
BRANCH  10  13
ATOM     13  C6  non d ame     -31.678  12.243  29.987  0.00  0.00     0.086 C 
ATOM     14  H6  non d ame     -31.415  11.969  28.965  0.00  0.00     0.086 H 
BRANCH  13  15
ATOM     15  N2  non d ame     -31.795  13.691  30.013  0.00  0.00    -0.343 N 
ATOM     16  C5  non d ame     -32.107  14.412  28.777  0.00  0.00     0.273 C 
ATOM     17  O2  non d ame     -32.259  13.817  27.766  0.00  0.00    -0.266 OA
ATOM     18  H5  non d ame     -31.661  14.191  30.880  0.00  0.00     0.163 HD
BRANCH  16  19
ATOM     19  C4  non d ame     -32.235  15.943  28.790  0.00  0.00     0.154 A 
ATOM     20  C1  non d ame     -32.832  16.769  27.785  0.00  0.00    -0.017 A 
ATOM     21  C2  non d ame     -32.696  18.088  28.271  0.00  0.00     0.077 A 
ATOM     22  H1  non d ame     -33.294  16.459  26.847  0.00  0.00     0.091 H 
ATOM     23  O1  non d ame     -32.091  18.017  29.421  0.00  0.00    -0.218 OA
ATOM     24  N1  non d ame     -31.812  16.775  29.745  0.00  0.00    -0.123 NA
BRANCH  21  25
ATOM     25  C3  non d ame     -33.170  19.359  27.578  0.00  0.00    -0.029 C 
ATOM     26  H2  non d ame     -32.545  19.552  26.706  0.00  0.00     0.036 H 
ATOM     27  H3  non d ame     -34.205  19.234  27.261  0.00  0.00     0.036 H 
ATOM     28  H4  non d ame     -33.099  20.198  28.269  0.00  0.00     0.036 H 
ENDBRANCH  21  25
ENDBRANCH  16  19
ENDBRANCH  13  15
BRANCH  13  29
ATOM     29  C8  non d ame     -30.572  11.797  30.910  0.00  0.00    -0.049 C 
ATOM     30  H7  non d ame     -30.214  10.815  30.601  0.00  0.00     0.030 H 
ATOM     31  H8  non d ame     -29.751  12.513  30.865  0.00  0.00     0.030 H 
ATOM     32  H9  non d ame     -30.951  11.742  31.931  0.00  0.00     0.030 H 
ENDBRANCH  13  29
ENDBRANCH  10  13
ENDBRANCH   7   9
BRANCH   7  33
ATOM     33  C11 non d ame     -36.005  10.117  28.807  0.00  0.00    -0.033 C 
ATOM     34  H12 non d ame     -36.023   9.105  28.403  0.00  0.00     0.042 H 
BRANCH  33  35
ATOM     35  C12 non d ame     -37.454  10.465  29.269  0.00  0.00    -0.071 C 
ATOM     36  H13 non d ame     -37.484  10.528  30.357  0.00  0.00     0.028 H 
ATOM     37  H14 non d ame     -37.753  11.421  28.841  0.00  0.00     0.028 H 
ATOM     38  H15 non d ame     -38.139   9.686  28.933  0.00  0.00     0.028 H 
ENDBRANCH  33  35
BRANCH  33  39
ATOM     39  C13 non d ame     -35.525  11.081  27.675  0.00  0.00    -0.071 C 
ATOM     40  H16 non d ame     -35.513  12.105  28.049  0.00  0.00     0.028 H 
ATOM     41  H17 non d ame     -34.521  10.797  27.357  0.00  0.00     0.028 H 
ATOM     42  H18 non d ame     -36.206  11.012  26.826  0.00  0.00     0.028 H 
ENDBRANCH  33  39
ENDBRANCH   7  33
ENDBRANCH   4   7
ENDBRANCH   1   3
BRANCH   1  43
ATOM     43  C15 non d ame     -34.070   5.442  28.880  0.00  0.00     0.240 C 
ATOM     44  O5  non d ame     -33.347   4.545  29.172  0.00  0.00    -0.271 OA
ATOM     45  N6  non d ame     -34.222   5.835  27.450  0.00  0.00    -0.355 N 
ATOM     46  H46 non d ame     -34.837   6.592  27.188  0.00  0.00     0.162 HD
BRANCH  45  47
ATOM     47  C20 non d ame     -33.464   5.111  26.406  0.00  0.00     0.013 C 
ATOM     48  H30 non d ame     -32.461   4.923  26.789  0.00  0.00     0.072 H 
BRANCH  47  49
ATOM     49  C21 non d ame     -33.389   5.964  25.160  0.00  0.00    -0.038 C 
ATOM     50  H31 non d ame     -34.230   5.654  24.540  0.00  0.00     0.036 H 
ATOM     51  H32 non d ame     -33.322   6.994  25.512  0.00  0.00     0.036 H 
BRANCH  49  52
ATOM     52  C22 non d ame     -32.114   5.703  24.330  0.00  0.00     0.018 C 
ATOM     53  H33 non d ame     -31.519   6.612  24.408  0.00  0.00     0.048 H 
ATOM     54  H34 non d ame     -31.714   4.756  24.695  0.00  0.00     0.048 H 
BRANCH  52  55
ATOM     55  C23 non d ame     -32.385   5.497  22.814  0.00  0.00     0.259 C 
ATOM     56  O7  non d ame     -33.204   4.718  22.447  0.00  0.00    -0.265 OA
BRANCH  55  57
ATOM     57  O8  non d ame     -31.633   6.243  21.864  0.00  0.00    -0.317 OA
BRANCH  57  58
ATOM     58  C29 non d ame     -32.266   7.454  21.442  0.00  0.00     0.052 C 
ATOM     59  H47 non d ame     -31.944   7.611  20.412  0.00  0.00     0.082 H 
ATOM     60  H48 non d ame     -33.325   7.328  21.668  0.00  0.00     0.082 H 
BRANCH  58  61
ATOM     61  C35 non d ame     -31.713   8.613  22.313  0.00  0.00    -0.034 A 
ATOM     62  C30 non d ame     -30.389   9.017  22.175  0.00  0.00    -0.075 A 
ATOM     63  C31 non d ame     -29.892  10.058  22.957  0.00  0.00    -0.082 A 
ATOM     64  H49 non d ame     -29.741   8.518  21.454  0.00  0.00     0.084 H 
ATOM     65  C32 non d ame     -30.724  10.695  23.883  0.00  0.00    -0.083 A 
ATOM     66  H50 non d ame     -28.854  10.374  22.846  0.00  0.00     0.083 H 
ATOM     67  C33 non d ame     -32.043  10.286  24.019  0.00  0.00    -0.082 A 
ATOM     68  H51 non d ame     -30.343  11.510  24.498  0.00  0.00     0.083 H 
ATOM     69  C34 non d ame     -32.545   9.247  23.237  0.00  0.00    -0.075 A 
ATOM     70  H52 non d ame     -32.689  10.783  24.743  0.00  0.00     0.083 H 
ATOM     71  H53 non d ame     -33.583   8.932  23.349  0.00  0.00     0.084 H 
ENDBRANCH  58  61
ENDBRANCH  57  58
ENDBRANCH  55  57
ENDBRANCH  52  55
ENDBRANCH  49  52
ENDBRANCH  47  49
BRANCH  47  72
ATOM     72  C24 non d ame     -34.164   3.793  26.081  0.00  0.00    -0.039 C 
ATOM     73  H35 non d ame     -33.741   3.467  25.130  0.00  0.00     0.036 H 
ATOM     74  H36 non d ame     -34.046   3.175  26.970  0.00  0.00     0.036 H 
BRANCH  72  75
ATOM     75  C25 non d ame     -35.736   3.998  25.852  0.00  0.00    -0.001 C 
ATOM     76  C26 non d ame     -36.580   3.217  27.028  0.00  0.00    -0.035 C 
ATOM     77  C27 non d ame     -37.516   2.432  26.444  0.00  0.00     0.085 C 
ATOM     78  H38 non d ame     -35.934   2.505  27.541  0.00  0.00     0.036 H 
ATOM     79  H39 non d ame     -37.169   3.932  27.603  0.00  0.00     0.036 H 
ATOM     80  N5  non d ame     -37.175   2.354  24.976  0.00  0.00    -0.049 N 
ATOM     81  H40 non d ame     -37.389   1.446  26.892  0.00  0.00     0.075 H 
ATOM     82  H41 non d ame     -38.459   2.966  26.562  0.00  0.00     0.075 H 
ATOM     83  C28 non d ame     -36.106   3.533  24.705  0.00  0.00     0.193 C 
ATOM     84  H42 non d ame     -36.716   1.465  24.835  0.00  0.00     0.280 HD
ATOM     85  H43 non d ame     -38.025   2.568  24.474  0.00  0.00     0.280 HD
ATOM     86  H44 non d ame     -36.412   4.453  24.207  0.00  0.00     0.129 H 
ATOM     87  H37 non d ame     -35.994   5.041  25.666  0.00  0.00     0.046 H 
BRANCH  83  88
ATOM     88  O6  non d ame     -35.004   3.035  23.945  0.00  0.00    -0.369 OA
ATOM     89  H45 non d ame     -34.403   2.562  24.525  0.00  0.00     0.212 HD
ENDBRANCH  83  88
ENDBRANCH  72  75
ENDBRANCH  47  72
ENDBRANCH  45  47
ENDBRANCH   1  43
BRANCH   1  90
ATOM     90  C16 non d ame     -36.204   5.515  30.207  0.00  0.00    -0.035 C 
ATOM     91  H21 non d ame     -36.238   4.701  29.483  0.00  0.00     0.037 H 
ATOM     92  H22 non d ame     -36.248   5.297  31.274  0.00  0.00     0.037 H 
BRANCH  90  93
ATOM     93  C17 non d ame     -37.427   6.434  29.893  0.00  0.00    -0.059 C 
ATOM     94  H23 non d ame     -37.064   7.281  29.312  0.00  0.00     0.038 H 
BRANCH  93  95
ATOM     95  C18 non d ame     -38.511   5.700  29.039  0.00  0.00    -0.073 C 
ATOM     96  H24 non d ame     -39.502   5.948  29.419  0.00  0.00     0.028 H 
ATOM     97  H25 non d ame     -38.432   6.018  28.000  0.00  0.00     0.028 H 
ATOM     98  H26 non d ame     -38.357   4.624  29.102  0.00  0.00     0.028 H 
ENDBRANCH  93  95
BRANCH  93  99
ATOM     99  C19 non d ame     -38.036   6.993  31.181  0.00  0.00    -0.073 C 
ATOM    100  H27 non d ame     -38.879   6.372  31.485  0.00  0.00     0.028 H 
ATOM    101  H28 non d ame     -37.283   6.994  31.969  0.00  0.00     0.028 H 
ATOM    102  H29 non d ame     -38.380   8.013  31.007  0.00  0.00     0.028 H 
ENDBRANCH  93  99
ENDBRANCH  90  93
ENDBRANCH   1  90
TORSDOF 26
ENDMDL
MODEL 4
REMARK VINA RESULT:      -6.4      2.340      9.288
REMARK  26 active torsions:
REMARK  status: ('A' for Active; 'I' for Inactive)
REMARK    1  A    between atoms: C2_2  and  C3_3 
REMARK    2  A    between atoms: C4_6  and  C5_7 
REMARK       I    between atoms: C5_7  and  N2_9 
REMARK    3  A    between atoms: N2_9  and  C6_10 
REMARK    4  A    between atoms: C6_10  and  C7_11 
REMARK    5  A    between atoms: C6_10  and  C8_13 
REMARK       I    between atoms: C7_11  and  N3_14 
REMARK    6  A    between atoms: N3_14  and  C9_15 
REMARK    7  A    between atoms: C9_15  and  C10_16 
REMARK    8  A    between atoms: C9_15  and  C11_18 
REMARK       I    between atoms: C10_16  and  N4_21 
REMARK    9  A    between atoms: C11_18  and  C12_19 
REMARK   10  A    between atoms: C11_18  and  C13_20 
REMARK   11  A    between atoms: N4_21  and  C14_22 
REMARK   12  A    between atoms: C14_22  and  C15_23 
REMARK   13  A    between atoms: C14_22  and  C16_25 
REMARK       I    between atoms: C15_23  and  N6_40 
REMARK   14  A    between atoms: C16_25  and  C17_26 
REMARK   15  A    between atoms: C17_26  and  C18_27 
REMARK   16  A    between atoms: C17_26  and  C19_28 
REMARK   17  A    between atoms: C20_29  and  C21_30 
REMARK   18  A    between atoms: C20_29  and  C24_33 
REMARK   19  A    between atoms: C20_29  and  N6_40 
REMARK   20  A    between atoms: C21_30  and  C22_31 
REMARK   21  A    between atoms: C22_31  and  C23_32 
REMARK   22  A    between atoms: C23_32  and  O8_43 
REMARK   23  A    between atoms: C24_33  and  C25_34 
REMARK   24  A    between atoms: C28_38  and  O6_39 
REMARK   25  A    between atoms: C29_42  and  O8_43 
REMARK   26  A    between atoms: C29_42  and  C35_49 
ROOT
ATOM      1  C14 non d ame     -32.568   8.805  25.302  0.00  0.00     0.089 C 
ATOM      2  H20 non d ame     -31.497   8.670  25.154  0.00  0.00     0.087 H 
ENDROOT
BRANCH   1   3
ATOM      3  N4  non d ame     -33.145   7.494  25.558  0.00  0.00    -0.346 N 
ATOM      4  C10 non d ame     -32.396   6.244  25.168  0.00  0.00     0.241 C 
ATOM      5  O4  non d ame     -31.332   6.319  24.648  0.00  0.00    -0.271 OA
ATOM      6  H19 non d ame     -34.053   7.451  25.999  0.00  0.00     0.163 HD
BRANCH   4   7
ATOM      7  C9  non d ame     -33.006   4.894  25.445  0.00  0.00     0.092 C 
ATOM      8  H11 non d ame     -32.337   4.325  26.091  0.00  0.00     0.088 H 
BRANCH   7   9
ATOM      9  N3  non d ame     -34.267   5.067  26.171  0.00  0.00    -0.346 N 
ATOM     10  C7  non d ame     -34.392   4.582  27.524  0.00  0.00     0.240 C 
ATOM     11  O3  non d ame     -33.488   4.050  28.043  0.00  0.00    -0.271 OA
ATOM     12  H10 non d ame     -35.057   5.523  25.736  0.00  0.00     0.163 HD
BRANCH  10  13
ATOM     13  C6  non d ame     -35.738   4.766  28.291  0.00  0.00     0.086 C 
ATOM     14  H6  non d ame     -35.806   4.140  29.180  0.00  0.00     0.086 H 
BRANCH  13  15
ATOM     15  N2  non d ame     -35.838   6.144  28.744  0.00  0.00    -0.343 N 
ATOM     16  C5  non d ame     -35.692   6.446  30.170  0.00  0.00     0.273 C 
ATOM     17  O2  non d ame     -35.498   5.574  30.944  0.00  0.00    -0.266 OA
ATOM     18  H5  non d ame     -36.008   6.882  28.076  0.00  0.00     0.163 HD
BRANCH  16  19
ATOM     19  C4  non d ame     -35.794   7.898  30.663  0.00  0.00     0.154 A 
ATOM     20  C1  non d ame     -35.119   8.480  31.783  0.00  0.00    -0.017 A 
ATOM     21  C2  non d ame     -35.549   9.825  31.807  0.00  0.00     0.077 A 
ATOM     22  H1  non d ame     -34.425   7.999  32.472  0.00  0.00     0.091 H 
ATOM     23  O1  non d ame     -36.372   9.987  30.813  0.00  0.00    -0.218 OA
ATOM     24  N1  non d ame     -36.531   8.876  30.131  0.00  0.00    -0.123 NA
BRANCH  21  25
ATOM     25  C3  non d ame     -35.126  10.889  32.811  0.00  0.00    -0.029 C 
ATOM     26  H2  non d ame     -34.055  10.809  32.996  0.00  0.00     0.036 H 
ATOM     27  H3  non d ame     -35.351  11.877  32.410  0.00  0.00     0.036 H 
ATOM     28  H4  non d ame     -35.668  10.744  33.745  0.00  0.00     0.036 H 
ENDBRANCH  21  25
ENDBRANCH  16  19
ENDBRANCH  13  15
BRANCH  13  29
ATOM     29  C8  non d ame     -36.890   4.439  27.375  0.00  0.00    -0.049 C 
ATOM     30  H7  non d ame     -37.797   4.304  27.965  0.00  0.00     0.030 H 
ATOM     31  H8  non d ame     -37.036   5.256  26.668  0.00  0.00     0.030 H 
ATOM     32  H9  non d ame     -36.672   3.521  26.830  0.00  0.00     0.030 H 
ENDBRANCH  13  29
ENDBRANCH  10  13
ENDBRANCH   7   9
BRANCH   7  33
ATOM     33  C11 non d ame     -33.281   4.164  24.098  0.00  0.00    -0.033 C 
ATOM     34  H12 non d ame     -32.342   4.124  23.547  0.00  0.00     0.042 H 
BRANCH  33  35
ATOM     35  C12 non d ame     -33.749   2.694  24.334  0.00  0.00    -0.071 C 
ATOM     36  H13 non d ame     -34.833   2.670  24.445  0.00  0.00     0.028 H 
ATOM     37  H14 non d ame     -33.457   2.079  23.484  0.00  0.00     0.028 H 
ATOM     38  H15 non d ame     -33.284   2.306  25.241  0.00  0.00     0.028 H 
ENDBRANCH  33  35
BRANCH  33  39
ATOM     39  C13 non d ame     -34.315   4.955  23.234  0.00  0.00    -0.071 C 
ATOM     40  H16 non d ame     -35.090   5.367  23.882  0.00  0.00     0.028 H 
ATOM     41  H17 non d ame     -33.807   5.767  22.712  0.00  0.00     0.028 H 
ATOM     42  H18 non d ame     -34.769   4.284  22.506  0.00  0.00     0.028 H 
ENDBRANCH  33  39
ENDBRANCH   7  33
ENDBRANCH   4   7
ENDBRANCH   1   3
BRANCH   1  43
ATOM     43  C15 non d ame     -32.881   9.728  26.515  0.00  0.00     0.240 C 
ATOM     44  O5  non d ame     -32.866   9.282  27.617  0.00  0.00    -0.271 OA
ATOM     45  N6  non d ame     -33.191  11.171  26.303  0.00  0.00    -0.355 N 
ATOM     46  H46 non d ame     -33.202  11.562  25.373  0.00  0.00     0.162 HD
BRANCH  45  47
ATOM     47  C20 non d ame     -33.485  12.036  27.467  0.00  0.00     0.013 C 
ATOM     48  H30 non d ame     -33.826  11.397  28.281  0.00  0.00     0.072 H 
BRANCH  47  49
ATOM     49  C21 non d ame     -34.568  13.023  27.095  0.00  0.00    -0.038 C 
ATOM     50  H31 non d ame     -35.502  12.462  27.127  0.00  0.00     0.036 H 
ATOM     51  H32 non d ame     -34.423  13.880  27.753  0.00  0.00     0.036 H 
BRANCH  49  52
ATOM     52  C22 non d ame     -34.426  13.552  25.651  0.00  0.00     0.018 C 
ATOM     53  H33 non d ame     -33.648  12.945  25.189  0.00  0.00     0.048 H 
ATOM     54  H34 non d ame     -35.435  13.553  25.237  0.00  0.00     0.048 H 
BRANCH  52  55
ATOM     55  C23 non d ame     -33.928  15.021  25.568  0.00  0.00     0.259 C 
ATOM     56  O7  non d ame     -34.701  15.923  25.603  0.00  0.00    -0.265 OA
BRANCH  55  57
ATOM     57  O8  non d ame     -32.535  15.279  25.438  0.00  0.00    -0.317 OA
BRANCH  57  58
ATOM     58  C29 non d ame     -32.197  16.096  24.314  0.00  0.00     0.052 C 
ATOM     59  H47 non d ame     -33.135  16.279  23.790  0.00  0.00     0.082 H 
ATOM     60  H48 non d ame     -31.627  16.932  24.718  0.00  0.00     0.082 H 
BRANCH  58  61
ATOM     61  C35 non d ame     -31.267  15.272  23.385  0.00  0.00    -0.034 A 
ATOM     62  C30 non d ame     -30.935  13.962  23.715  0.00  0.00    -0.075 A 
ATOM     63  C31 non d ame     -30.100  13.221  22.880  0.00  0.00    -0.082 A 
ATOM     64  H49 non d ame     -31.330  13.515  24.628  0.00  0.00     0.084 H 
ATOM     65  C32 non d ame     -29.593  13.797  21.712  0.00  0.00    -0.083 A 
ATOM     66  H50 non d ame     -29.843  12.194  23.141  0.00  0.00     0.083 H 
ATOM     67  C33 non d ame     -29.923  15.106  21.388  0.00  0.00    -0.082 A 
ATOM     68  H51 non d ame     -28.939  13.225  21.053  0.00  0.00     0.083 H 
ATOM     69  C34 non d ame     -30.760  15.849  22.218  0.00  0.00    -0.075 A 
ATOM     70  H52 non d ame     -29.524  15.552  20.477  0.00  0.00     0.083 H 
ATOM     71  H53 non d ame     -31.016  16.876  21.957  0.00  0.00     0.084 H 
ENDBRANCH  58  61
ENDBRANCH  57  58
ENDBRANCH  55  57
ENDBRANCH  52  55
ENDBRANCH  49  52
ENDBRANCH  47  49
BRANCH  47  72
ATOM     72  C24 non d ame     -32.224  12.793  27.879  0.00  0.00    -0.039 C 
ATOM     73  H35 non d ame     -31.469  12.026  28.052  0.00  0.00     0.036 H 
ATOM     74  H36 non d ame     -32.070  13.543  27.103  0.00  0.00     0.036 H 
BRANCH  72  75
ATOM     75  C25 non d ame     -32.429  13.576  29.261  0.00  0.00    -0.001 C 
ATOM     76  C26 non d ame     -32.584  15.188  28.974  0.00  0.00    -0.035 C 
ATOM     77  C27 non d ame     -31.716  15.859  29.768  0.00  0.00     0.085 C 
ATOM     78  H38 non d ame     -32.242  15.423  27.966  0.00  0.00     0.036 H 
ATOM     79  H39 non d ame     -33.560  15.536  29.313  0.00  0.00     0.036 H 
ATOM     80  N5  non d ame     -30.755  14.839  30.331  0.00  0.00    -0.049 N 
ATOM     81  H40 non d ame     -31.172  16.530  29.103  0.00  0.00     0.075 H 
ATOM     82  H41 non d ame     -32.318  16.265  30.579  0.00  0.00     0.075 H 
ATOM     83  C28 non d ame     -31.425  13.397  30.053  0.00  0.00     0.193 C 
ATOM     84  H42 non d ame     -29.908  14.911  29.784  0.00  0.00     0.280 HD
ATOM     85  H43 non d ame     -30.727  14.994  31.328  0.00  0.00     0.280 HD
ATOM     86  H44 non d ame     -31.906  12.845  30.861  0.00  0.00     0.129 H 
ATOM     87  H37 non d ame     -33.185  13.110  29.892  0.00  0.00     0.046 H 
BRANCH  83  88
ATOM     88  O6  non d ame     -30.457  12.502  29.502  0.00  0.00    -0.369 OA
ATOM     89  H45 non d ame     -30.037  12.913  28.743  0.00  0.00     0.212 HD
ENDBRANCH  83  88
ENDBRANCH  72  75
ENDBRANCH  47  72
ENDBRANCH  45  47
ENDBRANCH   1  43
BRANCH   1  90
ATOM     90  C16 non d ame     -33.193   9.385  24.044  0.00  0.00    -0.035 C 
ATOM     91  H21 non d ame     -33.993   8.696  23.774  0.00  0.00     0.037 H 
ATOM     92  H22 non d ame     -33.427  10.422  24.289  0.00  0.00     0.037 H 
BRANCH  90  93
ATOM     93  C17 non d ame     -32.219   9.429  22.823  0.00  0.00    -0.059 C 
ATOM     94  H23 non d ame     -32.460  10.317  22.239  0.00  0.00     0.038 H 
BRANCH  93  95
ATOM     95  C18 non d ame     -30.725   9.541  23.266  0.00  0.00    -0.073 C 
ATOM     96  H24 non d ame     -30.306   8.543  23.386  0.00  0.00     0.028 H 
ATOM     97  H25 non d ame     -30.161  10.082  22.507  0.00  0.00     0.028 H 
ATOM     98  H26 non d ame     -30.666  10.076  24.213  0.00  0.00     0.028 H 
ENDBRANCH  93  95
BRANCH  93  99
ATOM     99  C19 non d ame     -32.428   8.216  21.914  0.00  0.00    -0.073 C 
ATOM    100  H27 non d ame     -31.518   8.028  21.343  0.00  0.00     0.028 H 
ATOM    101  H28 non d ame     -32.664   7.342  22.521  0.00  0.00     0.028 H 
ATOM    102  H29 non d ame     -33.252   8.413  21.228  0.00  0.00     0.028 H 
ENDBRANCH  93  99
ENDBRANCH  90  93
ENDBRANCH   1  90
TORSDOF 26
ENDMDL
MODEL 5
REMARK VINA RESULT:      -6.3      2.568      9.947
REMARK  26 active torsions:
REMARK  status: ('A' for Active; 'I' for Inactive)
REMARK    1  A    between atoms: C2_2  and  C3_3 
REMARK    2  A    between atoms: C4_6  and  C5_7 
REMARK       I    between atoms: C5_7  and  N2_9 
REMARK    3  A    between atoms: N2_9  and  C6_10 
REMARK    4  A    between atoms: C6_10  and  C7_11 
REMARK    5  A    between atoms: C6_10  and  C8_13 
REMARK       I    between atoms: C7_11  and  N3_14 
REMARK    6  A    between atoms: N3_14  and  C9_15 
REMARK    7  A    between atoms: C9_15  and  C10_16 
REMARK    8  A    between atoms: C9_15  and  C11_18 
REMARK       I    between atoms: C10_16  and  N4_21 
REMARK    9  A    between atoms: C11_18  and  C12_19 
REMARK   10  A    between atoms: C11_18  and  C13_20 
REMARK   11  A    between atoms: N4_21  and  C14_22 
REMARK   12  A    between atoms: C14_22  and  C15_23 
REMARK   13  A    between atoms: C14_22  and  C16_25 
REMARK       I    between atoms: C15_23  and  N6_40 
REMARK   14  A    between atoms: C16_25  and  C17_26 
REMARK   15  A    between atoms: C17_26  and  C18_27 
REMARK   16  A    between atoms: C17_26  and  C19_28 
REMARK   17  A    between atoms: C20_29  and  C21_30 
REMARK   18  A    between atoms: C20_29  and  C24_33 
REMARK   19  A    between atoms: C20_29  and  N6_40 
REMARK   20  A    between atoms: C21_30  and  C22_31 
REMARK   21  A    between atoms: C22_31  and  C23_32 
REMARK   22  A    between atoms: C23_32  and  O8_43 
REMARK   23  A    between atoms: C24_33  and  C25_34 
REMARK   24  A    between atoms: C28_38  and  O6_39 
REMARK   25  A    between atoms: C29_42  and  O8_43 
REMARK   26  A    between atoms: C29_42  and  C35_49 
ROOT
ATOM      1  C14 non d ame     -32.183   8.622  24.249  0.00  0.00     0.089 C 
ATOM      2  H20 non d ame     -31.207   8.180  24.452  0.00  0.00     0.087 H 
ENDROOT
BRANCH   1   3
ATOM      3  N4  non d ame     -33.159   7.542  24.236  0.00  0.00    -0.346 N 
ATOM      4  C10 non d ame     -32.755   6.145  24.635  0.00  0.00     0.241 C 
ATOM      5  O4  non d ame     -31.637   5.914  24.959  0.00  0.00    -0.271 OA
ATOM      6  H19 non d ame     -34.104   7.760  23.955  0.00  0.00     0.163 HD
BRANCH   4   7
ATOM      7  C9  non d ame     -33.779   5.041  24.621  0.00  0.00     0.092 C 
ATOM      8  H11 non d ame     -33.274   4.082  24.738  0.00  0.00     0.088 H 
BRANCH   7   9
ATOM      9  N3  non d ame     -34.682   5.197  25.766  0.00  0.00    -0.346 N 
ATOM     10  C7  non d ame     -34.459   4.433  26.968  0.00  0.00     0.240 C 
ATOM     11  O3  non d ame     -33.559   3.687  27.032  0.00  0.00    -0.271 OA
ATOM     12  H10 non d ame     -35.463   5.836  25.725  0.00  0.00     0.163 HD
BRANCH  10  13
ATOM     13  C6  non d ame     -35.425   4.601  28.182  0.00  0.00     0.086 C 
ATOM     14  H6  non d ame     -35.098   4.047  29.061  0.00  0.00     0.086 H 
BRANCH  13  15
ATOM     15  N2  non d ame     -35.462   6.003  28.565  0.00  0.00    -0.343 N 
ATOM     16  C5  non d ame     -35.213   6.377  29.959  0.00  0.00     0.273 C 
ATOM     17  O2  non d ame     -34.987   5.542  30.765  0.00  0.00    -0.266 OA
ATOM     18  H5  non d ame     -35.658   6.709  27.870  0.00  0.00     0.163 HD
BRANCH  16  19
ATOM     19  C4  non d ame     -35.247   7.855  30.377  0.00  0.00     0.154 A 
ATOM     20  C1  non d ame     -35.082   8.384  31.696  0.00  0.00    -0.017 A 
ATOM     21  C2  non d ame     -35.197   9.784  31.544  0.00  0.00     0.077 A 
ATOM     22  H1  non d ame     -34.906   7.837  32.623  0.00  0.00     0.091 H 
ATOM     23  O1  non d ame     -35.402  10.020  30.281  0.00  0.00    -0.218 OA
ATOM     24  N1  non d ame     -35.435   8.910  29.580  0.00  0.00    -0.123 NA
BRANCH  21  25
ATOM     25  C3  non d ame     -35.097  10.823  32.652  0.00  0.00    -0.029 C 
ATOM     26  H2  non d ame     -35.968  11.477  32.617  0.00  0.00     0.036 H 
ATOM     27  H3  non d ame     -35.059  10.321  33.619  0.00  0.00     0.036 H 
ATOM     28  H4  non d ame     -34.192  11.415  32.516  0.00  0.00     0.036 H 
ENDBRANCH  21  25
ENDBRANCH  16  19
ENDBRANCH  13  15
BRANCH  13  29
ATOM     29  C8  non d ame     -36.806   4.135  27.797  0.00  0.00    -0.049 C 
ATOM     30  H7  non d ame     -37.518   4.947  27.944  0.00  0.00     0.030 H 
ATOM     31  H8  non d ame     -36.809   3.835  26.749  0.00  0.00     0.030 H 
ATOM     32  H9  non d ame     -37.090   3.286  28.419  0.00  0.00     0.030 H 
ENDBRANCH  13  29
ENDBRANCH  10  13
ENDBRANCH   7   9
BRANCH   7  33
ATOM     33  C11 non d ame     -34.602   5.113  23.301  0.00  0.00    -0.033 C 
ATOM     34  H12 non d ame     -34.928   6.146  23.174  0.00  0.00     0.042 H 
BRANCH  33  35
ATOM     35  C12 non d ame     -33.725   4.742  22.064  0.00  0.00    -0.071 C 
ATOM     36  H13 non d ame     -34.070   3.796  21.646  0.00  0.00     0.028 H 
ATOM     37  H14 non d ame     -33.810   5.525  21.311  0.00  0.00     0.028 H 
ATOM     38  H15 non d ame     -32.685   4.644  22.373  0.00  0.00     0.028 H 
ENDBRANCH  33  35
BRANCH  33  39
ATOM     39  C13 non d ame     -35.874   4.211  23.385  0.00  0.00    -0.071 C 
ATOM     40  H16 non d ame     -36.734   4.759  22.999  0.00  0.00     0.028 H 
ATOM     41  H17 non d ame     -35.720   3.309  22.792  0.00  0.00     0.028 H 
ATOM     42  H18 non d ame     -36.055   3.934  24.424  0.00  0.00     0.028 H 
ENDBRANCH  33  39
ENDBRANCH   7  33
ENDBRANCH   4   7
ENDBRANCH   1   3
BRANCH   1  43
ATOM     43  C15 non d ame     -32.599   9.652  25.338  0.00  0.00     0.240 C 
ATOM     44  O5  non d ame     -33.305   9.315  26.232  0.00  0.00    -0.271 OA
ATOM     45  N6  non d ame     -32.109  11.059  25.271  0.00  0.00    -0.355 N 
ATOM     46  H46 non d ame     -31.504  11.356  24.519  0.00  0.00     0.162 HD
BRANCH  45  47
ATOM     47  C20 non d ame     -32.512  12.026  26.314  0.00  0.00     0.013 C 
ATOM     48  H30 non d ame     -33.523  11.773  26.634  0.00  0.00     0.072 H 
BRANCH  47  49
ATOM     49  C21 non d ame     -32.487  13.423  25.737  0.00  0.00    -0.038 C 
ATOM     50  H31 non d ame     -32.820  13.321  24.704  0.00  0.00     0.036 H 
ATOM     51  H32 non d ame     -33.055  14.040  26.434  0.00  0.00     0.036 H 
BRANCH  49  52
ATOM     52  C22 non d ame     -31.065  14.023  25.681  0.00  0.00     0.018 C 
ATOM     53  H33 non d ame     -30.810  14.273  26.710  0.00  0.00     0.048 H 
ATOM     54  H34 non d ame     -30.462  13.302  25.129  0.00  0.00     0.048 H 
BRANCH  52  55
ATOM     55  C23 non d ame     -30.979  15.354  24.883  0.00  0.00     0.259 C 
ATOM     56  O7  non d ame     -30.544  15.367  23.777  0.00  0.00    -0.265 OA
BRANCH  55  57
ATOM     57  O8  non d ame     -31.413  16.563  25.495  0.00  0.00    -0.317 OA
BRANCH  57  58
ATOM     58  C29 non d ame     -32.674  17.037  25.015  0.00  0.00     0.052 C 
ATOM     59  H47 non d ame     -32.451  17.609  24.115  0.00  0.00     0.082 H 
ATOM     60  H48 non d ame     -33.317  16.159  24.958  0.00  0.00     0.082 H 
BRANCH  58  61
ATOM     61  C35 non d ame     -33.258  18.004  26.079  0.00  0.00    -0.034 A 
ATOM     62  C30 non d ame     -34.633  18.196  26.167  0.00  0.00    -0.075 A 
ATOM     63  C31 non d ame     -35.158  19.065  27.122  0.00  0.00    -0.082 A 
ATOM     64  H49 non d ame     -35.300  17.667  25.486  0.00  0.00     0.084 H 
ATOM     65  C32 non d ame     -34.301  19.745  27.992  0.00  0.00    -0.083 A 
ATOM     66  H50 non d ame     -36.236  19.212  27.189  0.00  0.00     0.083 H 
ATOM     67  C33 non d ame     -32.929  19.553  27.899  0.00  0.00    -0.082 A 
ATOM     68  H51 non d ame     -34.703  20.426  28.742  0.00  0.00     0.083 H 
ATOM     69  C34 non d ame     -32.401  18.684  26.947  0.00  0.00    -0.075 A 
ATOM     70  H52 non d ame     -32.263  20.087  28.578  0.00  0.00     0.083 H 
ATOM     71  H53 non d ame     -31.322  18.537  26.881  0.00  0.00     0.084 H 
ENDBRANCH  58  61
ENDBRANCH  57  58
ENDBRANCH  55  57
ENDBRANCH  52  55
ENDBRANCH  49  52
ENDBRANCH  47  49
BRANCH  47  72
ATOM     72  C24 non d ame     -31.546  11.945  27.495  0.00  0.00    -0.039 C 
ATOM     73  H35 non d ame     -31.432  10.881  27.704  0.00  0.00     0.036 H 
ATOM     74  H36 non d ame     -30.680  12.538  27.202  0.00  0.00     0.036 H 
BRANCH  72  75
ATOM     75  C25 non d ame     -32.160  12.621  28.811  0.00  0.00    -0.001 C 
ATOM     76  C26 non d ame     -30.972  13.384  29.654  0.00  0.00    -0.035 C 
ATOM     77  C27 non d ame     -31.019  12.971  30.944  0.00  0.00     0.085 C 
ATOM     78  H38 non d ame     -29.995  13.045  29.313  0.00  0.00     0.036 H 
ATOM     79  H39 non d ame     -31.187  14.451  29.721  0.00  0.00     0.036 H 
ATOM     80  N5  non d ame     -31.914  11.756  30.986  0.00  0.00    -0.049 N 
ATOM     81  H40 non d ame     -30.000  12.671  31.190  0.00  0.00     0.075 H 
ATOM     82  H41 non d ame     -31.496  13.782  31.492  0.00  0.00     0.075 H 
ATOM     83  C28 non d ame     -32.706  11.739  29.579  0.00  0.00     0.193 C 
ATOM     84  H42 non d ame     -31.304  10.952  31.022  0.00  0.00     0.280 HD
ATOM     85  H43 non d ame     -32.580  11.918  31.728  0.00  0.00     0.280 HD
ATOM     86  H44 non d ame     -33.750  12.049  29.527  0.00  0.00     0.129 H 
ATOM     87  H37 non d ame     -33.063  13.194  28.598  0.00  0.00     0.046 H 
BRANCH  83  88
ATOM     88  O6  non d ame     -32.668  10.430  29.008  0.00  0.00    -0.369 OA
ATOM     89  H45 non d ame     -32.846  10.486  28.066  0.00  0.00     0.212 HD
ENDBRANCH  83  88
ENDBRANCH  72  75
ENDBRANCH  47  72
ENDBRANCH  45  47
ENDBRANCH   1  43
BRANCH   1  90
ATOM     90  C16 non d ame     -32.170   9.296  22.887  0.00  0.00    -0.035 C 
ATOM     91  H21 non d ame     -32.829   8.693  22.261  0.00  0.00     0.037 H 
ATOM     92  H22 non d ame     -32.409  10.342  23.079  0.00  0.00     0.037 H 
BRANCH  90  93
ATOM     93  C17 non d ame     -30.770   9.282  22.194  0.00  0.00    -0.059 C 
ATOM     94  H23 non d ame     -30.935   9.246  21.117  0.00  0.00     0.038 H 
BRANCH  93  95
ATOM     95  C18 non d ame     -29.945  10.571  22.507  0.00  0.00    -0.073 C 
ATOM     96  H24 non d ame     -30.515  11.450  22.206  0.00  0.00     0.028 H 
ATOM     97  H25 non d ame     -29.741  10.621  23.576  0.00  0.00     0.028 H 
ATOM     98  H26 non d ame     -29.004  10.542  21.958  0.00  0.00     0.028 H 
ENDBRANCH  93  95
BRANCH  93  99
ATOM     99  C19 non d ame     -29.984   8.026  22.576  0.00  0.00    -0.073 C 
ATOM    100  H27 non d ame     -30.236   7.216  21.891  0.00  0.00     0.028 H 
ATOM    101  H28 non d ame     -28.915   8.233  22.515  0.00  0.00     0.028 H 
ATOM    102  H29 non d ame     -30.238   7.733  23.595  0.00  0.00     0.028 H 
ENDBRANCH  93  99
ENDBRANCH  90  93
ENDBRANCH   1  90
TORSDOF 26
ENDMDL
MODEL 6
REMARK VINA RESULT:      -6.3      2.511      6.329
REMARK  26 active torsions:
REMARK  status: ('A' for Active; 'I' for Inactive)
REMARK    1  A    between atoms: C2_2  and  C3_3 
REMARK    2  A    between atoms: C4_6  and  C5_7 
REMARK       I    between atoms: C5_7  and  N2_9 
REMARK    3  A    between atoms: N2_9  and  C6_10 
REMARK    4  A    between atoms: C6_10  and  C7_11 
REMARK    5  A    between atoms: C6_10  and  C8_13 
REMARK       I    between atoms: C7_11  and  N3_14 
REMARK    6  A    between atoms: N3_14  and  C9_15 
REMARK    7  A    between atoms: C9_15  and  C10_16 
REMARK    8  A    between atoms: C9_15  and  C11_18 
REMARK       I    between atoms: C10_16  and  N4_21 
REMARK    9  A    between atoms: C11_18  and  C12_19 
REMARK   10  A    between atoms: C11_18  and  C13_20 
REMARK   11  A    between atoms: N4_21  and  C14_22 
REMARK   12  A    between atoms: C14_22  and  C15_23 
REMARK   13  A    between atoms: C14_22  and  C16_25 
REMARK       I    between atoms: C15_23  and  N6_40 
REMARK   14  A    between atoms: C16_25  and  C17_26 
REMARK   15  A    between atoms: C17_26  and  C18_27 
REMARK   16  A    between atoms: C17_26  and  C19_28 
REMARK   17  A    between atoms: C20_29  and  C21_30 
REMARK   18  A    between atoms: C20_29  and  C24_33 
REMARK   19  A    between atoms: C20_29  and  N6_40 
REMARK   20  A    between atoms: C21_30  and  C22_31 
REMARK   21  A    between atoms: C22_31  and  C23_32 
REMARK   22  A    between atoms: C23_32  and  O8_43 
REMARK   23  A    between atoms: C24_33  and  C25_34 
REMARK   24  A    between atoms: C28_38  and  O6_39 
REMARK   25  A    between atoms: C29_42  and  O8_43 
REMARK   26  A    between atoms: C29_42  and  C35_49 
ROOT
ATOM      1  C14 non d ame     -35.499   9.609  27.968  0.00  0.00     0.089 C 
ATOM      2  H20 non d ame     -35.611   9.235  28.986  0.00  0.00     0.087 H 
ENDROOT
BRANCH   1   3
ATOM      3  N4  non d ame     -34.448  10.616  27.984  0.00  0.00    -0.346 N 
ATOM      4  C10 non d ame     -33.186  10.387  28.778  0.00  0.00     0.241 C 
ATOM      5  O4  non d ame     -33.040   9.385  29.398  0.00  0.00    -0.271 OA
ATOM      6  H19 non d ame     -34.593  11.462  27.452  0.00  0.00     0.163 HD
BRANCH   4   7
ATOM      7  C9  non d ame     -32.107  11.438  28.779  0.00  0.00     0.092 C 
ATOM      8  H11 non d ame     -31.155  10.973  28.523  0.00  0.00     0.088 H 
BRANCH   7   9
ATOM      9  N3  non d ame     -32.394  12.435  27.744  0.00  0.00    -0.346 N 
ATOM     10  C7  non d ame     -31.709  12.375  26.476  0.00  0.00     0.240 C 
ATOM     11  O3  non d ame     -30.923  11.533  26.273  0.00  0.00    -0.271 OA
ATOM     12  H10 non d ame     -33.069  13.169  27.905  0.00  0.00     0.163 HD
BRANCH  10  13
ATOM     13  C6  non d ame     -32.017  13.442  25.379  0.00  0.00     0.086 C 
ATOM     14  H6  non d ame     -33.003  13.315  24.933  0.00  0.00     0.086 H 
BRANCH  13  15
ATOM     15  N2  non d ame     -32.002  14.762  25.988  0.00  0.00    -0.343 N 
ATOM     16  C5  non d ame     -33.266  15.464  26.217  0.00  0.00     0.273 C 
ATOM     17  O2  non d ame     -34.289  14.960  25.906  0.00  0.00    -0.266 OA
ATOM     18  H5  non d ame     -31.123  15.186  26.248  0.00  0.00     0.163 HD
BRANCH  16  19
ATOM     19  C4  non d ame     -33.266  16.860  26.861  0.00  0.00     0.154 A 
ATOM     20  C1  non d ame     -33.246  18.122  26.189  0.00  0.00    -0.017 A 
ATOM     21  C2  non d ame     -33.255  19.085  27.222  0.00  0.00     0.077 A 
ATOM     22  H1  non d ame     -33.228  18.311  25.115  0.00  0.00     0.091 H 
ATOM     23  O1  non d ame     -33.279  18.440  28.352  0.00  0.00    -0.218 OA
ATOM     24  N1  non d ame     -33.285  17.140  28.167  0.00  0.00    -0.123 NA
BRANCH  21  25
ATOM     25  C3  non d ame     -33.241  20.598  27.046  0.00  0.00    -0.029 C 
ATOM     26  H2  non d ame     -32.733  20.851  26.116  0.00  0.00     0.036 H 
ATOM     27  H3  non d ame     -34.265  20.969  27.012  0.00  0.00     0.036 H 
ATOM     28  H4  non d ame     -32.716  21.057  27.883  0.00  0.00     0.036 H 
ENDBRANCH  21  25
ENDBRANCH  16  19
ENDBRANCH  13  15
BRANCH  13  29
ATOM     29  C8  non d ame     -30.976  13.363  24.292  0.00  0.00    -0.049 C 
ATOM     30  H7  non d ame     -31.360  12.767  23.464  0.00  0.00     0.030 H 
ATOM     31  H8  non d ame     -30.743  14.367  23.939  0.00  0.00     0.030 H 
ATOM     32  H9  non d ame     -30.073  12.897  24.686  0.00  0.00     0.030 H 
ENDBRANCH  13  29
ENDBRANCH  10  13
ENDBRANCH   7   9
BRANCH   7  33
ATOM     33  C11 non d ame     -32.064  12.135  30.170  0.00  0.00    -0.033 C 
ATOM     34  H12 non d ame     -32.190  13.205  30.005  0.00  0.00     0.042 H 
BRANCH  33  35
ATOM     35  C12 non d ame     -33.238  11.659  31.081  0.00  0.00    -0.071 C 
ATOM     36  H13 non d ame     -33.387  10.587  30.952  0.00  0.00     0.028 H 
ATOM     37  H14 non d ame     -32.998  11.870  32.123  0.00  0.00     0.028 H 
ATOM     38  H15 non d ame     -34.150  12.188  30.804  0.00  0.00     0.028 H 
ENDBRANCH  33  35
BRANCH  33  39
ATOM     39  C13 non d ame     -30.682  11.913  30.865  0.00  0.00    -0.071 C 
ATOM     40  H16 non d ame     -30.717  10.999  31.458  0.00  0.00     0.028 H 
ATOM     41  H17 non d ame     -29.904  11.825  30.106  0.00  0.00     0.028 H 
ATOM     42  H18 non d ame     -30.461  12.760  31.513  0.00  0.00     0.028 H 
ENDBRANCH  33  39
ENDBRANCH   7  33
ENDBRANCH   4   7
ENDBRANCH   1   3
BRANCH   1  43
ATOM     43  C15 non d ame     -35.093   8.486  26.971  0.00  0.00     0.240 C 
ATOM     44  O5  non d ame     -35.464   8.534  25.843  0.00  0.00    -0.271 OA
ATOM     45  N6  non d ame     -34.234   7.353  27.421  0.00  0.00    -0.355 N 
ATOM     46  H46 non d ame     -33.908   7.304  28.376  0.00  0.00     0.162 HD
BRANCH  45  47
ATOM     47  C20 non d ame     -33.855   6.294  26.461  0.00  0.00     0.013 C 
ATOM     48  H30 non d ame     -34.578   6.307  25.645  0.00  0.00     0.072 H 
BRANCH  47  49
ATOM     49  C21 non d ame     -33.887   4.953  27.158  0.00  0.00    -0.038 C 
ATOM     50  H31 non d ame     -33.058   4.383  26.738  0.00  0.00     0.036 H 
ATOM     51  H32 non d ame     -33.909   5.177  28.225  0.00  0.00     0.036 H 
BRANCH  49  52
ATOM     52  C22 non d ame     -35.169   4.149  26.854  0.00  0.00     0.018 C 
ATOM     53  H33 non d ame     -35.531   4.521  25.896  0.00  0.00     0.048 H 
ATOM     54  H34 non d ame     -34.893   3.100  26.962  0.00  0.00     0.048 H 
BRANCH  52  55
ATOM     55  C23 non d ame     -36.319   4.396  27.869  0.00  0.00     0.259 C 
ATOM     56  O7  non d ame     -37.360   3.836  27.750  0.00  0.00    -0.265 OA
BRANCH  55  57
ATOM     57  O8  non d ame     -36.119   5.311  28.940  0.00  0.00    -0.317 OA
BRANCH  57  58
ATOM     58  C29 non d ame     -37.275   5.513  29.758  0.00  0.00     0.052 C 
ATOM     59  H47 non d ame     -38.106   5.648  29.065  0.00  0.00     0.082 H 
ATOM     60  H48 non d ame     -37.284   4.684  30.465  0.00  0.00     0.082 H 
BRANCH  58  61
ATOM     61  C35 non d ame     -37.077   6.832  30.550  0.00  0.00    -0.034 A 
ATOM     62  C30 non d ame     -38.181   7.526  31.035  0.00  0.00    -0.075 A 
ATOM     63  C31 non d ame     -38.003   8.712  31.747  0.00  0.00    -0.082 A 
ATOM     64  H49 non d ame     -39.185   7.142  30.857  0.00  0.00     0.084 H 
ATOM     65  C32 non d ame     -36.715   9.205  31.971  0.00  0.00    -0.083 A 
ATOM     66  H50 non d ame     -38.870   9.253  32.126  0.00  0.00     0.083 H 
ATOM     67  C33 non d ame     -35.616   8.510  31.483  0.00  0.00    -0.082 A 
ATOM     68  H51 non d ame     -36.567  10.130  32.527  0.00  0.00     0.083 H 
ATOM     69  C34 non d ame     -35.789   7.324  30.773  0.00  0.00    -0.075 A 
ATOM     70  H52 non d ame     -34.612   8.898  31.658  0.00  0.00     0.083 H 
ATOM     71  H53 non d ame     -34.921   6.784  30.393  0.00  0.00     0.084 H 
ENDBRANCH  58  61
ENDBRANCH  57  58
ENDBRANCH  55  57
ENDBRANCH  52  55
ENDBRANCH  49  52
ENDBRANCH  47  49
BRANCH  47  72
ATOM     72  C24 non d ame     -32.449   6.559  25.928  0.00  0.00    -0.039 C 
ATOM     73  H35 non d ame     -32.017   7.299  26.602  0.00  0.00     0.036 H 
ATOM     74  H36 non d ame     -31.986   5.577  25.829  0.00  0.00     0.036 H 
BRANCH  72  75
ATOM     75  C25 non d ame     -32.482   7.214  24.466  0.00  0.00    -0.001 C 
ATOM     76  C26 non d ame     -31.443   6.418  23.471  0.00  0.00    -0.035 C 
ATOM     77  C27 non d ame     -30.635   7.323  22.870  0.00  0.00     0.085 C 
ATOM     78  H38 non d ame     -30.754   5.812  24.059  0.00  0.00     0.036 H 
ATOM     79  H39 non d ame     -31.989   5.972  22.640  0.00  0.00     0.036 H 
ATOM     80  N5  non d ame     -30.808   8.629  23.607  0.00  0.00    -0.049 N 
ATOM     81  H40 non d ame     -29.620   6.957  23.027  0.00  0.00     0.075 H 
ATOM     82  H41 non d ame     -31.023   7.433  21.858  0.00  0.00     0.075 H 
ATOM     83  C28 non d ame     -32.140   8.459  24.504  0.00  0.00     0.193 C 
ATOM     84  H42 non d ame     -30.014   8.716  24.225  0.00  0.00     0.280 HD
ATOM     85  H43 non d ame     -30.982   9.333  22.904  0.00  0.00     0.280 HD
ATOM     86  H44 non d ame     -33.075   8.931  24.202  0.00  0.00     0.129 H 
ATOM     87  H37 non d ame     -33.500   7.363  24.104  0.00  0.00     0.046 H 
BRANCH  83  88
ATOM     88  O6  non d ame     -31.898   8.911  25.837  0.00  0.00    -0.369 OA
ATOM     89  H45 non d ame     -31.051   9.363  25.873  0.00  0.00     0.212 HD
ENDBRANCH  83  88
ENDBRANCH  72  75
ENDBRANCH  47  72
ENDBRANCH  45  47
ENDBRANCH   1  43
BRANCH   1  90
ATOM     90  C16 non d ame     -36.797  10.254  27.510  0.00  0.00    -0.035 C 
ATOM     91  H21 non d ame     -36.686  11.315  27.732  0.00  0.00     0.037 H 
ATOM     92  H22 non d ame     -36.936   9.924  26.480  0.00  0.00     0.037 H 
BRANCH  90  93
ATOM     93  C17 non d ame     -38.052   9.767  28.302  0.00  0.00    -0.059 C 
ATOM     94  H23 non d ame     -37.702   9.302  29.224  0.00  0.00     0.038 H 
BRANCH  93  95
ATOM     95  C18 non d ame     -38.997  10.948  28.693  0.00  0.00    -0.073 C 
ATOM     96  H24 non d ame     -39.944  10.847  28.163  0.00  0.00     0.028 H 
ATOM     97  H25 non d ame     -39.179  10.928  29.767  0.00  0.00     0.028 H 
ATOM     98  H26 non d ame     -38.528  11.893  28.422  0.00  0.00     0.028 H 
ENDBRANCH  93  95
BRANCH  93  99
ATOM     99  C19 non d ame     -38.814   8.697  27.516  0.00  0.00    -0.073 C 
ATOM    100  H27 non d ame     -39.706   9.140  27.070  0.00  0.00     0.028 H 
ATOM    101  H28 non d ame     -38.174   8.300  26.728  0.00  0.00     0.028 H 
ATOM    102  H29 non d ame     -39.106   7.891  28.188  0.00  0.00     0.028 H 
ENDBRANCH  93  99
ENDBRANCH  90  93
ENDBRANCH   1  90
TORSDOF 26
ENDMDL
MODEL 7
REMARK VINA RESULT:      -6.2      2.687      6.508
REMARK  26 active torsions:
REMARK  status: ('A' for Active; 'I' for Inactive)
REMARK    1  A    between atoms: C2_2  and  C3_3 
REMARK    2  A    between atoms: C4_6  and  C5_7 
REMARK       I    between atoms: C5_7  and  N2_9 
REMARK    3  A    between atoms: N2_9  and  C6_10 
REMARK    4  A    between atoms: C6_10  and  C7_11 
REMARK    5  A    between atoms: C6_10  and  C8_13 
REMARK       I    between atoms: C7_11  and  N3_14 
REMARK    6  A    between atoms: N3_14  and  C9_15 
REMARK    7  A    between atoms: C9_15  and  C10_16 
REMARK    8  A    between atoms: C9_15  and  C11_18 
REMARK       I    between atoms: C10_16  and  N4_21 
REMARK    9  A    between atoms: C11_18  and  C12_19 
REMARK   10  A    between atoms: C11_18  and  C13_20 
REMARK   11  A    between atoms: N4_21  and  C14_22 
REMARK   12  A    between atoms: C14_22  and  C15_23 
REMARK   13  A    between atoms: C14_22  and  C16_25 
REMARK       I    between atoms: C15_23  and  N6_40 
REMARK   14  A    between atoms: C16_25  and  C17_26 
REMARK   15  A    between atoms: C17_26  and  C18_27 
REMARK   16  A    between atoms: C17_26  and  C19_28 
REMARK   17  A    between atoms: C20_29  and  C21_30 
REMARK   18  A    between atoms: C20_29  and  C24_33 
REMARK   19  A    between atoms: C20_29  and  N6_40 
REMARK   20  A    between atoms: C21_30  and  C22_31 
REMARK   21  A    between atoms: C22_31  and  C23_32 
REMARK   22  A    between atoms: C23_32  and  O8_43 
REMARK   23  A    between atoms: C24_33  and  C25_34 
REMARK   24  A    between atoms: C28_38  and  O6_39 
REMARK   25  A    between atoms: C29_42  and  O8_43 
REMARK   26  A    between atoms: C29_42  and  C35_49 
ROOT
ATOM      1  C14 non d ame     -35.593   8.494  27.230  0.00  0.00     0.089 C 
ATOM      2  H20 non d ame     -35.522   7.797  28.065  0.00  0.00     0.087 H 
ENDROOT
BRANCH   1   3
ATOM      3  N4  non d ame     -34.810   9.672  27.574  0.00  0.00    -0.346 N 
ATOM      4  C10 non d ame     -33.410   9.524  28.113  0.00  0.00     0.241 C 
ATOM      5  O4  non d ame     -32.934   8.447  28.263  0.00  0.00    -0.271 OA
ATOM      6  H19 non d ame     -35.234  10.579  27.441  0.00  0.00     0.163 HD
BRANCH   4   7
ATOM      7  C9  non d ame     -32.612  10.754  28.458  0.00  0.00     0.092 C 
ATOM      8  H11 non d ame     -31.549  10.513  28.428  0.00  0.00     0.088 H 
BRANCH   7   9
ATOM      9  N3  non d ame     -32.849  11.791  27.450  0.00  0.00    -0.346 N 
ATOM     10  C7  non d ame     -31.862  12.042  26.428  0.00  0.00     0.240 C 
ATOM     11  O3  non d ame     -30.871  11.420  26.404  0.00  0.00    -0.271 OA
ATOM     12  H10 non d ame     -33.699  12.337  27.459  0.00  0.00     0.163 HD
BRANCH  10  13
ATOM     13  C6  non d ame     -32.120  13.149  25.359  0.00  0.00     0.086 C 
ATOM     14  H6  non d ame     -33.074  13.027  24.847  0.00  0.00     0.086 H 
BRANCH  13  15
ATOM     15  N2  non d ame     -32.166  14.442  26.021  0.00  0.00    -0.343 N 
ATOM     16  C5  non d ame     -33.454  14.977  26.469  0.00  0.00     0.273 C 
ATOM     17  O2  non d ame     -34.446  14.361  26.289  0.00  0.00    -0.266 OA
ATOM     18  H5  non d ame     -31.313  14.963  26.168  0.00  0.00     0.163 HD
BRANCH  16  19
ATOM     19  C4  non d ame     -33.518  16.342  27.172  0.00  0.00     0.154 A 
ATOM     20  C1  non d ame     -32.736  17.504  26.876  0.00  0.00    -0.017 A 
ATOM     21  C2  non d ame     -33.175  18.481  27.798  0.00  0.00     0.077 A 
ATOM     22  H1  non d ame     -31.969  17.621  26.110  0.00  0.00     0.091 H 
ATOM     23  O1  non d ame     -34.100  17.934  28.531  0.00  0.00    -0.218 OA
ATOM     24  N1  non d ame     -34.317  16.686  28.185  0.00  0.00    -0.123 NA
BRANCH  21  25
ATOM     25  C3  non d ame     -32.659  19.910  27.911  0.00  0.00    -0.029 C 
ATOM     26  H2  non d ame     -32.832  20.280  28.921  0.00  0.00     0.036 H 
ATOM     27  H3  non d ame     -31.591  19.928  27.695  0.00  0.00     0.036 H 
ATOM     28  H4  non d ame     -33.185  20.543  27.197  0.00  0.00     0.036 H 
ENDBRANCH  21  25
ENDBRANCH  16  19
ENDBRANCH  13  15
BRANCH  13  29
ATOM     29  C8  non d ame     -31.012  13.132  24.337  0.00  0.00    -0.049 C 
ATOM     30  H7  non d ame     -30.318  13.948  24.539  0.00  0.00     0.030 H 
ATOM     31  H8  non d ame     -30.481  12.181  24.393  0.00  0.00     0.030 H 
ATOM     32  H9  non d ame     -31.435  13.253  23.340  0.00  0.00     0.030 H 
ENDBRANCH  13  29
ENDBRANCH  10  13
ENDBRANCH   7   9
BRANCH   7  33
ATOM     33  C11 non d ame     -33.052  11.282  29.855  0.00  0.00    -0.033 C 
ATOM     34  H12 non d ame     -33.832  12.027  29.694  0.00  0.00     0.042 H 
BRANCH  33  35
ATOM     35  C12 non d ame     -33.665  10.142  30.726  0.00  0.00    -0.071 C 
ATOM     36  H13 non d ame     -33.157  10.108  31.690  0.00  0.00     0.028 H 
ATOM     37  H14 non d ame     -34.727  10.334  30.882  0.00  0.00     0.028 H 
ATOM     38  H15 non d ame     -33.540   9.187  30.216  0.00  0.00     0.028 H 
ENDBRANCH  33  35
BRANCH  33  39
ATOM     39  C13 non d ame     -31.863  11.980  30.590  0.00  0.00    -0.071 C 
ATOM     40  H16 non d ame     -32.060  12.000  31.662  0.00  0.00     0.028 H 
ATOM     41  H17 non d ame     -30.943  11.426  30.399  0.00  0.00     0.028 H 
ATOM     42  H18 non d ame     -31.755  13.000  30.220  0.00  0.00     0.028 H 
ENDBRANCH  33  39
ENDBRANCH   7  33
ENDBRANCH   4   7
ENDBRANCH   1   3
BRANCH   1  43
ATOM     43  C15 non d ame     -35.028   7.891  25.912  0.00  0.00     0.240 C 
ATOM     44  O5  non d ame     -35.340   8.361  24.865  0.00  0.00    -0.271 OA
ATOM     45  N6  non d ame     -34.090   6.734  25.954  0.00  0.00    -0.355 N 
ATOM     46  H46 non d ame     -33.813   6.329  26.837  0.00  0.00     0.162 HD
BRANCH  45  47
ATOM     47  C20 non d ame     -33.560   6.173  24.692  0.00  0.00     0.013 C 
ATOM     48  H30 non d ame     -34.191   6.527  23.877  0.00  0.00     0.072 H 
BRANCH  47  49
ATOM     49  C21 non d ame     -33.601   4.663  24.760  0.00  0.00    -0.038 C 
ATOM     50  H31 non d ame     -32.790   4.317  24.120  0.00  0.00     0.036 H 
ATOM     51  H32 non d ame     -33.601   4.416  25.822  0.00  0.00     0.036 H 
BRANCH  49  52
ATOM     52  C22 non d ame     -34.902   4.073  24.174  0.00  0.00     0.018 C 
ATOM     53  H33 non d ame     -35.310   4.845  23.523  0.00  0.00     0.048 H 
ATOM     54  H34 non d ame     -34.626   3.102  23.761  0.00  0.00     0.048 H 
BRANCH  52  55
ATOM     55  C23 non d ame     -35.997   3.789  25.240  0.00  0.00     0.259 C 
ATOM     56  O7  non d ame     -36.993   3.214  24.942  0.00  0.00    -0.265 OA
BRANCH  55  57
ATOM     57  O8  non d ame     -35.801   4.236  26.576  0.00  0.00    -0.317 OA
BRANCH  57  58
ATOM     58  C29 non d ame     -36.975   4.779  27.186  0.00  0.00     0.052 C 
ATOM     59  H47 non d ame     -37.212   5.680  26.619  0.00  0.00     0.082 H 
ATOM     60  H48 non d ame     -37.691   3.959  27.229  0.00  0.00     0.082 H 
BRANCH  58  61
ATOM     61  C35 non d ame     -36.613   5.192  28.637  0.00  0.00    -0.034 A 
ATOM     62  C30 non d ame     -35.281   5.350  29.005  0.00  0.00    -0.075 A 
ATOM     63  C31 non d ame     -34.956   5.721  30.309  0.00  0.00    -0.082 A 
ATOM     64  H49 non d ame     -34.492   5.182  28.272  0.00  0.00     0.084 H 
ATOM     65  C32 non d ame     -35.969   5.932  31.248  0.00  0.00    -0.083 A 
ATOM     66  H50 non d ame     -33.911   5.845  30.594  0.00  0.00     0.083 H 
ATOM     67  C33 non d ame     -37.297   5.770  30.877  0.00  0.00    -0.082 A 
ATOM     68  H51 non d ame     -35.724   6.223  32.269  0.00  0.00     0.083 H 
ATOM     69  C34 non d ame     -37.627   5.402  29.574  0.00  0.00    -0.075 A 
ATOM     70  H52 non d ame     -38.086   5.934  31.612  0.00  0.00     0.083 H 
ATOM     71  H53 non d ame     -38.672   5.278  29.290  0.00  0.00     0.084 H 
ENDBRANCH  58  61
ENDBRANCH  57  58
ENDBRANCH  55  57
ENDBRANCH  52  55
ENDBRANCH  49  52
ENDBRANCH  47  49
BRANCH  47  72
ATOM     72  C24 non d ame     -32.119   6.635  24.487  0.00  0.00    -0.039 C 
ATOM     73  H35 non d ame     -31.802   7.036  25.450  0.00  0.00     0.036 H 
ATOM     74  H36 non d ame     -31.598   5.780  24.056  0.00  0.00     0.036 H 
BRANCH  72  75
ATOM     75  C25 non d ame     -32.025   7.830  23.424  0.00  0.00    -0.001 C 
ATOM     76  C26 non d ame     -30.822   7.527  22.345  0.00  0.00    -0.035 C 
ATOM     77  C27 non d ame     -30.014   8.612  22.276  0.00  0.00     0.085 C 
ATOM     78  H38 non d ame     -30.166   6.745  22.726  0.00  0.00     0.036 H 
ATOM     79  H39 non d ame     -31.233   7.451  21.338  0.00  0.00     0.036 H 
ATOM     80  N5  non d ame     -30.365   9.499  23.446  0.00  0.00    -0.049 N 
ATOM     81  H40 non d ame     -29.002   8.230  22.410  0.00  0.00     0.075 H 
ATOM     82  H41 non d ame     -30.287   9.120  21.352  0.00  0.00     0.075 H 
ATOM     83  C28 non d ame     -31.778   8.956  24.007  0.00  0.00     0.193 C 
ATOM     84  H42 non d ame     -29.658   9.339  24.149  0.00  0.00     0.280 HD
ATOM     85  H43 non d ame     -30.503  10.426  23.070  0.00  0.00     0.280 HD
ATOM     86  H44 non d ame     -32.702   9.495  23.796  0.00  0.00     0.129 H 
ATOM     87  H37 non d ame     -33.000   8.098  23.017  0.00  0.00     0.046 H 
BRANCH  83  88
ATOM     88  O6  non d ame     -31.728   8.827  25.429  0.00  0.00    -0.369 OA
ATOM     89  H45 non d ame     -31.961   7.929  25.677  0.00  0.00     0.212 HD
ENDBRANCH  83  88
ENDBRANCH  72  75
ENDBRANCH  47  72
ENDBRANCH  45  47
ENDBRANCH   1  43
BRANCH   1  90
ATOM     90  C16 non d ame     -37.042   8.904  27.024  0.00  0.00    -0.035 C 
ATOM     91  H21 non d ame     -37.017   9.982  26.866  0.00  0.00     0.037 H 
ATOM     92  H22 non d ame     -37.420   8.247  26.240  0.00  0.00     0.037 H 
BRANCH  90  93
ATOM     93  C17 non d ame     -37.946   8.664  28.275  0.00  0.00    -0.059 C 
ATOM     94  H23 non d ame     -38.073   7.587  28.389  0.00  0.00     0.038 H 
BRANCH  93  95
ATOM     95  C18 non d ame     -37.293   9.207  29.587  0.00  0.00    -0.073 C 
ATOM     96  H24 non d ame     -37.016   8.371  30.228  0.00  0.00     0.028 H 
ATOM     97  H25 non d ame     -36.402   9.783  29.338  0.00  0.00     0.028 H 
ATOM     98  H26 non d ame     -38.005   9.846  30.108  0.00  0.00     0.028 H 
ENDBRANCH  93  95
BRANCH  93  99
ATOM     99  C19 non d ame     -39.337   9.267  28.069  0.00  0.00    -0.073 C 
ATOM    100  H27 non d ame     -39.242  10.255  27.617  0.00  0.00     0.028 H 
ATOM    101  H28 non d ame     -39.920   8.621  27.412  0.00  0.00     0.028 H 
ATOM    102  H29 non d ame     -39.842   9.355  29.031  0.00  0.00     0.028 H 
ENDBRANCH  93  99
ENDBRANCH  90  93
ENDBRANCH   1  90
TORSDOF 26
ENDMDL
MODEL 8
REMARK VINA RESULT:      -6.2      2.409     10.897
REMARK  26 active torsions:
REMARK  status: ('A' for Active; 'I' for Inactive)
REMARK    1  A    between atoms: C2_2  and  C3_3 
REMARK    2  A    between atoms: C4_6  and  C5_7 
REMARK       I    between atoms: C5_7  and  N2_9 
REMARK    3  A    between atoms: N2_9  and  C6_10 
REMARK    4  A    between atoms: C6_10  and  C7_11 
REMARK    5  A    between atoms: C6_10  and  C8_13 
REMARK       I    between atoms: C7_11  and  N3_14 
REMARK    6  A    between atoms: N3_14  and  C9_15 
REMARK    7  A    between atoms: C9_15  and  C10_16 
REMARK    8  A    between atoms: C9_15  and  C11_18 
REMARK       I    between atoms: C10_16  and  N4_21 
REMARK    9  A    between atoms: C11_18  and  C12_19 
REMARK   10  A    between atoms: C11_18  and  C13_20 
REMARK   11  A    between atoms: N4_21  and  C14_22 
REMARK   12  A    between atoms: C14_22  and  C15_23 
REMARK   13  A    between atoms: C14_22  and  C16_25 
REMARK       I    between atoms: C15_23  and  N6_40 
REMARK   14  A    between atoms: C16_25  and  C17_26 
REMARK   15  A    between atoms: C17_26  and  C18_27 
REMARK   16  A    between atoms: C17_26  and  C19_28 
REMARK   17  A    between atoms: C20_29  and  C21_30 
REMARK   18  A    between atoms: C20_29  and  C24_33 
REMARK   19  A    between atoms: C20_29  and  N6_40 
REMARK   20  A    between atoms: C21_30  and  C22_31 
REMARK   21  A    between atoms: C22_31  and  C23_32 
REMARK   22  A    between atoms: C23_32  and  O8_43 
REMARK   23  A    between atoms: C24_33  and  C25_34 
REMARK   24  A    between atoms: C28_38  and  O6_39 
REMARK   25  A    between atoms: C29_42  and  O8_43 
REMARK   26  A    between atoms: C29_42  and  C35_49 
ROOT
ATOM      1  C14 non d ame     -32.880  10.169  25.846  0.00  0.00     0.089 C 
ATOM      2  H20 non d ame     -32.446   9.189  26.042  0.00  0.00     0.087 H 
ENDROOT
BRANCH   1   3
ATOM      3  N4  non d ame     -33.755  10.493  26.962  0.00  0.00    -0.346 N 
ATOM      4  C10 non d ame     -33.716   9.670  28.225  0.00  0.00     0.241 C 
ATOM      5  O4  non d ame     -32.973   8.749  28.318  0.00  0.00    -0.271 OA
ATOM      6  H19 non d ame     -34.381  11.280  26.862  0.00  0.00     0.163 HD
BRANCH   4   7
ATOM      7  C9  non d ame     -34.625  10.023  29.373  0.00  0.00     0.092 C 
ATOM      8  H11 non d ame     -35.314  10.806  29.056  0.00  0.00     0.088 H 
BRANCH   7   9
ATOM      9  N3  non d ame     -35.433   8.855  29.734  0.00  0.00    -0.346 N 
ATOM     10  C7  non d ame     -36.787   8.739  29.252  0.00  0.00     0.240 C 
ATOM     11  O3  non d ame     -37.243   9.577  28.574  0.00  0.00    -0.271 OA
ATOM     12  H10 non d ame     -35.054   8.125  30.320  0.00  0.00     0.163 HD
BRANCH  10  13
ATOM     13  C6  non d ame     -37.643   7.494  29.643  0.00  0.00     0.086 C 
ATOM     14  H6  non d ame     -38.697   7.612  29.392  0.00  0.00     0.086 H 
BRANCH  13  15
ATOM     15  N2  non d ame     -37.165   6.341  28.899  0.00  0.00    -0.343 N 
ATOM     16  C5  non d ame     -38.064   5.207  28.670  0.00  0.00     0.273 C 
ATOM     17  O2  non d ame     -39.168   5.231  29.091  0.00  0.00    -0.266 OA
ATOM     18  H5  non d ame     -36.219   6.327  28.545  0.00  0.00     0.163 HD
BRANCH  16  19
ATOM     19  C4  non d ame     -37.572   3.982  27.884  0.00  0.00     0.154 A 
ATOM     20  C1  non d ame     -36.265   3.769  27.343  0.00  0.00    -0.017 A 
ATOM     21  C2  non d ame     -36.330   2.502  26.720  0.00  0.00     0.077 A 
ATOM     22  H1  non d ame     -35.401   4.432  27.394  0.00  0.00     0.091 H 
ATOM     23  O1  non d ame     -37.538   2.049  26.891  0.00  0.00    -0.218 OA
ATOM     24  N1  non d ame     -38.281   2.894  27.567  0.00  0.00    -0.123 NA
BRANCH  21  25
ATOM     25  C3  non d ame     -35.197   1.799  25.987  0.00  0.00    -0.029 C 
ATOM     26  H2  non d ame     -34.313   2.436  25.986  0.00  0.00     0.036 H 
ATOM     27  H3  non d ame     -34.967   0.860  26.489  0.00  0.00     0.036 H 
ATOM     28  H4  non d ame     -35.499   1.596  24.959  0.00  0.00     0.036 H 
ENDBRANCH  21  25
ENDBRANCH  16  19
ENDBRANCH  13  15
BRANCH  13  29
ATOM     29  C8  non d ame     -37.520   7.241  31.124  0.00  0.00    -0.049 C 
ATOM     30  H7  non d ame     -36.750   6.490  31.301  0.00  0.00     0.030 H 
ATOM     31  H8  non d ame     -37.247   8.167  31.629  0.00  0.00     0.030 H 
ATOM     32  H9  non d ame     -38.474   6.882  31.512  0.00  0.00     0.030 H 
ENDBRANCH  13  29
ENDBRANCH  10  13
ENDBRANCH   7   9
BRANCH   7  33
ATOM     33  C11 non d ame     -33.768  10.457  30.598  0.00  0.00    -0.033 C 
ATOM     34  H12 non d ame     -33.099   9.631  30.841  0.00  0.00     0.042 H 
BRANCH  33  35
ATOM     35  C12 non d ame     -32.880  11.696  30.261  0.00  0.00    -0.071 C 
ATOM     36  H13 non d ame     -33.101  12.036  29.249  0.00  0.00     0.028 H 
ATOM     37  H14 non d ame     -33.091  12.497  30.968  0.00  0.00     0.028 H 
ATOM     38  H15 non d ame     -31.828  11.418  30.329  0.00  0.00     0.028 H 
ENDBRANCH  33  35
BRANCH  33  39
ATOM     39  C13 non d ame     -34.671  10.730  31.843  0.00  0.00    -0.071 C 
ATOM     40  H16 non d ame     -34.468   9.982  32.610  0.00  0.00     0.028 H 
ATOM     41  H17 non d ame     -34.456  11.724  32.238  0.00  0.00     0.028 H 
ATOM     42  H18 non d ame     -35.720  10.676  31.551  0.00  0.00     0.028 H 
ENDBRANCH  33  39
ENDBRANCH   7  33
ENDBRANCH   4   7
ENDBRANCH   1   3
BRANCH   1  43
ATOM     43  C15 non d ame     -31.795  11.278  25.728  0.00  0.00     0.240 C 
ATOM     44  O5  non d ame     -30.823  11.229  26.410  0.00  0.00    -0.271 OA
ATOM     45  N6  non d ame     -31.964  12.397  24.758  0.00  0.00    -0.355 N 
ATOM     46  H46 non d ame     -32.783  12.447  24.169  0.00  0.00     0.162 HD
BRANCH  45  47
ATOM     47  C20 non d ame     -30.924  13.443  24.657  0.00  0.00     0.013 C 
ATOM     48  H30 non d ame     -30.054  13.106  25.220  0.00  0.00     0.072 H 
BRANCH  47  49
ATOM     49  C21 non d ame     -31.452  14.732  25.245  0.00  0.00    -0.038 C 
ATOM     50  H31 non d ame     -30.741  15.504  24.950  0.00  0.00     0.036 H 
ATOM     51  H32 non d ame     -32.492  14.797  24.924  0.00  0.00     0.036 H 
BRANCH  49  52
ATOM     52  C22 non d ame     -31.471  14.723  26.789  0.00  0.00     0.018 C 
ATOM     53  H33 non d ame     -30.909  13.839  27.086  0.00  0.00     0.048 H 
ATOM     54  H34 non d ame     -31.132  15.713  27.094  0.00  0.00     0.048 H 
BRANCH  52  55
ATOM     55  C23 non d ame     -32.891  14.551  27.396  0.00  0.00     0.259 C 
ATOM     56  O7  non d ame     -33.624  13.709  26.988  0.00  0.00    -0.265 OA
BRANCH  55  57
ATOM     57  O8  non d ame     -33.313  15.421  28.440  0.00  0.00    -0.317 OA
BRANCH  57  58
ATOM     58  C29 non d ame     -32.606  16.664  28.483  0.00  0.00     0.052 C 
ATOM     59  H47 non d ame     -32.688  17.014  29.512  0.00  0.00     0.082 H 
ATOM     60  H48 non d ame     -31.626  16.461  28.052  0.00  0.00     0.082 H 
BRANCH  58  61
ATOM     61  C35 non d ame     -33.348  17.669  27.562  0.00  0.00    -0.034 A 
ATOM     62  C30 non d ame     -32.642  18.389  26.604  0.00  0.00    -0.075 A 
ATOM     63  C31 non d ame     -33.308  19.292  25.777  0.00  0.00    -0.082 A 
ATOM     64  H49 non d ame     -31.566  18.246  26.502  0.00  0.00     0.084 H 
ATOM     65  C32 non d ame     -34.687  19.475  25.912  0.00  0.00    -0.083 A 
ATOM     66  H50 non d ame     -32.751  19.853  25.026  0.00  0.00     0.083 H 
ATOM     67  C33 non d ame     -35.387  18.757  26.872  0.00  0.00    -0.082 A 
ATOM     68  H51 non d ame     -35.216  20.179  25.269  0.00  0.00     0.083 H 
ATOM     69  C34 non d ame     -34.726  17.852  27.699  0.00  0.00    -0.075 A 
ATOM     70  H52 non d ame     -36.463  18.904  26.976  0.00  0.00     0.083 H 
ATOM     71  H53 non d ame     -35.283  17.291  28.450  0.00  0.00     0.084 H 
ENDBRANCH  58  61
ENDBRANCH  57  58
ENDBRANCH  55  57
ENDBRANCH  52  55
ENDBRANCH  49  52
ENDBRANCH  47  49
BRANCH  47  72
ATOM     72  C24 non d ame     -30.554  13.665  23.192  0.00  0.00    -0.039 C 
ATOM     73  H35 non d ame     -29.641  13.090  23.033  0.00  0.00     0.036 H 
ATOM     74  H36 non d ame     -31.454  13.424  22.626  0.00  0.00     0.036 H 
BRANCH  72  75
ATOM     75  C25 non d ame     -30.205  15.200  22.894  0.00  0.00    -0.001 C 
ATOM     76  C26 non d ame     -31.326  15.842  21.877  0.00  0.00    -0.035 C 
ATOM     77  C27 non d ame     -30.686  16.438  20.842  0.00  0.00     0.085 C 
ATOM     78  H38 non d ame     -31.897  15.047  21.400  0.00  0.00     0.036 H 
ATOM     79  H39 non d ame     -31.844  16.668  22.365  0.00  0.00     0.036 H 
ATOM     80  N5  non d ame     -29.249  15.978  20.889  0.00  0.00    -0.049 N 
ATOM     81  H40 non d ame     -31.157  16.042  19.942  0.00  0.00     0.075 H 
ATOM     82  H41 non d ame     -30.724  17.506  21.052  0.00  0.00     0.075 H 
ATOM     83  C28 non d ame     -29.041  15.317  22.347  0.00  0.00     0.193 C 
ATOM     84  H42 non d ame     -29.157  15.254  20.191  0.00  0.00     0.280 HD
ATOM     85  H43 non d ame     -28.681  16.812  20.830  0.00  0.00     0.280 HD
ATOM     86  H44 non d ame     -28.507  15.857  23.129  0.00  0.00     0.129 H 
ATOM     87  H37 non d ame     -29.984  15.757  23.805  0.00  0.00     0.046 H 
BRANCH  83  88
ATOM     88  O6  non d ame     -28.373  14.059  22.227  0.00  0.00    -0.369 OA
ATOM     89  H45 non d ame     -27.511  14.114  22.645  0.00  0.00     0.212 HD
ENDBRANCH  83  88
ENDBRANCH  72  75
ENDBRANCH  47  72
ENDBRANCH  45  47
ENDBRANCH   1  43
BRANCH   1  90
ATOM     90  C16 non d ame     -33.702  10.121  24.568  0.00  0.00    -0.035 C 
ATOM     91  H21 non d ame     -34.740  10.061  24.895  0.00  0.00     0.037 H 
ATOM     92  H22 non d ame     -33.366  10.972  23.976  0.00  0.00     0.037 H 
BRANCH  90  93
ATOM     93  C17 non d ame     -33.440   8.849  23.701  0.00  0.00    -0.059 C 
ATOM     94  H23 non d ame     -34.345   8.646  23.129  0.00  0.00     0.038 H 
BRANCH  93  95
ATOM     95  C18 non d ame     -32.271   9.058  22.686  0.00  0.00    -0.073 C 
ATOM     96  H24 non d ame     -31.319   9.024  23.215  0.00  0.00     0.028 H 
ATOM     97  H25 non d ame     -32.296   8.269  21.935  0.00  0.00     0.028 H 
ATOM     98  H26 non d ame     -32.382  10.027  22.199  0.00  0.00     0.028 H 
ENDBRANCH  93  95
BRANCH  93  99
ATOM     99  C19 non d ame     -33.179   7.628  24.587  0.00  0.00    -0.073 C 
ATOM    100  H27 non d ame     -32.118   7.578  24.835  0.00  0.00     0.028 H 
ATOM    101  H28 non d ame     -33.763   7.713  25.504  0.00  0.00     0.028 H 
ATOM    102  H29 non d ame     -33.471   6.723  24.054  0.00  0.00     0.028 H 
ENDBRANCH  93  99
ENDBRANCH  90  93
ENDBRANCH   1  90
TORSDOF 26
ENDMDL
MODEL 9
REMARK VINA RESULT:      -6.1      2.694      8.287
REMARK  26 active torsions:
REMARK  status: ('A' for Active; 'I' for Inactive)
REMARK    1  A    between atoms: C2_2  and  C3_3 
REMARK    2  A    between atoms: C4_6  and  C5_7 
REMARK       I    between atoms: C5_7  and  N2_9 
REMARK    3  A    between atoms: N2_9  and  C6_10 
REMARK    4  A    between atoms: C6_10  and  C7_11 
REMARK    5  A    between atoms: C6_10  and  C8_13 
REMARK       I    between atoms: C7_11  and  N3_14 
REMARK    6  A    between atoms: N3_14  and  C9_15 
REMARK    7  A    between atoms: C9_15  and  C10_16 
REMARK    8  A    between atoms: C9_15  and  C11_18 
REMARK       I    between atoms: C10_16  and  N4_21 
REMARK    9  A    between atoms: C11_18  and  C12_19 
REMARK   10  A    between atoms: C11_18  and  C13_20 
REMARK   11  A    between atoms: N4_21  and  C14_22 
REMARK   12  A    between atoms: C14_22  and  C15_23 
REMARK   13  A    between atoms: C14_22  and  C16_25 
REMARK       I    between atoms: C15_23  and  N6_40 
REMARK   14  A    between atoms: C16_25  and  C17_26 
REMARK   15  A    between atoms: C17_26  and  C18_27 
REMARK   16  A    between atoms: C17_26  and  C19_28 
REMARK   17  A    between atoms: C20_29  and  C21_30 
REMARK   18  A    between atoms: C20_29  and  C24_33 
REMARK   19  A    between atoms: C20_29  and  N6_40 
REMARK   20  A    between atoms: C21_30  and  C22_31 
REMARK   21  A    between atoms: C22_31  and  C23_32 
REMARK   22  A    between atoms: C23_32  and  O8_43 
REMARK   23  A    between atoms: C24_33  and  C25_34 
REMARK   24  A    between atoms: C28_38  and  O6_39 
REMARK   25  A    between atoms: C29_42  and  O8_43 
REMARK   26  A    between atoms: C29_42  and  C35_49 
ROOT
ATOM      1  C14 non d ame     -33.201  11.654  28.740  0.00  0.00     0.089 C 
ATOM      2  H20 non d ame     -33.383  12.041  29.743  0.00  0.00     0.087 H 
ENDROOT
BRANCH   1   3
ATOM      3  N4  non d ame     -33.934  10.403  28.615  0.00  0.00    -0.346 N 
ATOM      4  C10 non d ame     -34.263   9.586  29.839  0.00  0.00     0.241 C 
ATOM      5  O4  non d ame     -33.925   9.955  30.915  0.00  0.00    -0.271 OA
ATOM      6  H19 non d ame     -34.211  10.105  27.690  0.00  0.00     0.163 HD
BRANCH   4   7
ATOM      7  C9  non d ame     -35.027   8.296  29.690  0.00  0.00     0.092 C 
ATOM      8  H11 non d ame     -35.913   8.473  29.081  0.00  0.00     0.088 H 
BRANCH   7   9
ATOM      9  N3  non d ame     -34.200   7.317  28.979  0.00  0.00    -0.346 N 
ATOM     10  C7  non d ame     -34.752   6.577  27.871  0.00  0.00     0.240 C 
ATOM     11  O3  non d ame     -35.860   6.756  27.540  0.00  0.00    -0.271 OA
ATOM     12  H10 non d ame     -33.242   7.150  29.255  0.00  0.00     0.163 HD
BRANCH  10  13
ATOM     13  C6  non d ame     -33.867   5.534  27.120  0.00  0.00     0.086 C 
ATOM     14  H6  non d ame     -34.455   4.752  26.638  0.00  0.00     0.086 H 
BRANCH  13  15
ATOM     15  N2  non d ame     -33.132   6.211  26.066  0.00  0.00    -0.343 N 
ATOM     16  C5  non d ame     -32.826   5.496  24.825  0.00  0.00     0.273 C 
ATOM     17  O2  non d ame     -33.174   4.375  24.686  0.00  0.00    -0.266 OA
ATOM     18  H5  non d ame     -32.836   7.169  26.194  0.00  0.00     0.163 HD
BRANCH  16  19
ATOM     19  C4  non d ame     -32.050   6.201  23.701  0.00  0.00     0.154 A 
ATOM     20  C1  non d ame     -31.384   7.465  23.772  0.00  0.00    -0.017 A 
ATOM     21  C2  non d ame     -30.831   7.657  22.486  0.00  0.00     0.077 A 
ATOM     22  H1  non d ame     -31.313   8.140  24.625  0.00  0.00     0.091 H 
ATOM     23  O1  non d ame     -31.147   6.618  21.770  0.00  0.00    -0.218 OA
ATOM     24  N1  non d ame     -31.858   5.754  22.457  0.00  0.00    -0.123 NA
BRANCH  21  25
ATOM     25  C3  non d ame     -30.016   8.858  22.025  0.00  0.00    -0.029 C 
ATOM     26  H2  non d ame     -30.563   9.393  21.249  0.00  0.00     0.036 H 
ATOM     27  H3  non d ame     -29.840   9.523  22.870  0.00  0.00     0.036 H 
ATOM     28  H4  non d ame     -29.060   8.517  21.627  0.00  0.00     0.036 H 
ENDBRANCH  21  25
ENDBRANCH  16  19
ENDBRANCH  13  15
BRANCH  13  29
ATOM     29  C8  non d ame     -32.908   4.893  28.090  0.00  0.00    -0.049 C 
ATOM     30  H7  non d ame     -33.403   4.752  29.051  0.00  0.00     0.030 H 
ATOM     31  H8  non d ame     -32.588   3.927  27.701  0.00  0.00     0.030 H 
ATOM     32  H9  non d ame     -32.038   5.538  28.221  0.00  0.00     0.030 H 
ENDBRANCH  13  29
ENDBRANCH  10  13
ENDBRANCH   7   9
BRANCH   7  33
ATOM     33  C11 non d ame     -35.386   7.742  31.100  0.00  0.00    -0.033 C 
ATOM     34  H12 non d ame     -34.937   8.405  31.839  0.00  0.00     0.042 H 
BRANCH  33  35
ATOM     35  C12 non d ame     -36.928   7.751  31.338  0.00  0.00    -0.071 C 
ATOM     36  H13 non d ame     -37.436   8.055  30.422  0.00  0.00     0.028 H 
ATOM     37  H14 non d ame     -37.258   6.752  31.622  0.00  0.00     0.028 H 
ATOM     38  H15 non d ame     -37.168   8.454  32.136  0.00  0.00     0.028 H 
ENDBRANCH  33  35
BRANCH  33  39
ATOM     39  C13 non d ame     -34.790   6.312  31.307  0.00  0.00    -0.071 C 
ATOM     40  H16 non d ame     -34.069   6.101  30.517  0.00  0.00     0.028 H 
ATOM     41  H17 non d ame     -34.292   6.263  32.276  0.00  0.00     0.028 H 
ATOM     42  H18 non d ame     -35.592   5.576  31.275  0.00  0.00     0.028 H 
ENDBRANCH  33  39
ENDBRANCH   7  33
ENDBRANCH   4   7
ENDBRANCH   1   3
BRANCH   1  43
ATOM     43  C15 non d ame     -33.696  12.631  27.635  0.00  0.00     0.240 C 
ATOM     44  O5  non d ame     -33.615  12.318  26.491  0.00  0.00    -0.271 OA
ATOM     45  N6  non d ame     -34.278  13.953  28.004  0.00  0.00    -0.355 N 
ATOM     46  H46 non d ame     -34.356  14.227  28.972  0.00  0.00     0.162 HD
BRANCH  45  47
ATOM     47  C20 non d ame     -34.744  14.870  26.941  0.00  0.00     0.013 C 
ATOM     48  H30 non d ame     -34.205  14.625  26.026  0.00  0.00     0.072 H 
BRANCH  47  49
ATOM     49  C21 non d ame     -34.452  16.296  27.348  0.00  0.00    -0.038 C 
ATOM     50  H31 non d ame     -34.712  16.908  26.485  0.00  0.00     0.036 H 
ATOM     51  H32 non d ame     -34.968  16.443  28.297  0.00  0.00     0.036 H 
BRANCH  49  52
ATOM     52  C22 non d ame     -32.953  16.545  27.624  0.00  0.00     0.018 C 
ATOM     53  H33 non d ame     -32.918  17.299  28.409  0.00  0.00     0.048 H 
ATOM     54  H34 non d ame     -32.517  15.560  27.795  0.00  0.00     0.048 H 
BRANCH  52  55
ATOM     55  C23 non d ame     -32.185  17.150  26.416  0.00  0.00     0.259 C 
ATOM     56  O7  non d ame     -32.179  18.324  26.232  0.00  0.00    -0.265 OA
BRANCH  55  57
ATOM     57  O8  non d ame     -31.499  16.282  25.521  0.00  0.00    -0.317 OA
BRANCH  57  58
ATOM     58  C29 non d ame     -32.168  16.087  24.272  0.00  0.00     0.052 C 
ATOM     59  H47 non d ame     -33.023  15.449  24.491  0.00  0.00     0.082 H 
ATOM     60  H48 non d ame     -32.323  17.085  23.862  0.00  0.00     0.082 H 
BRANCH  58  61
ATOM     61  C35 non d ame     -31.206  15.315  23.330  0.00  0.00    -0.034 A 
ATOM     62  C30 non d ame     -30.736  15.917  22.167  0.00  0.00    -0.075 A 
ATOM     63  C31 non d ame     -29.873  15.223  21.321  0.00  0.00    -0.082 A 
ATOM     64  H49 non d ame     -31.045  16.933  21.919  0.00  0.00     0.084 H 
ATOM     65  C32 non d ame     -29.481  13.920  21.640  0.00  0.00    -0.083 A 
ATOM     66  H50 non d ame     -29.505  15.698  20.411  0.00  0.00     0.083 H 
ATOM     67  C33 non d ame     -29.956  13.322  22.799  0.00  0.00    -0.082 A 
ATOM     68  H51 non d ame     -28.806  13.370  20.984  0.00  0.00     0.083 H 
ATOM     69  C34 non d ame     -30.817  14.012  23.649  0.00  0.00    -0.075 A 
ATOM     70  H52 non d ame     -29.650  12.304  23.044  0.00  0.00     0.083 H 
ATOM     71  H53 non d ame     -31.184  13.536  24.559  0.00  0.00     0.084 H 
ENDBRANCH  58  61
ENDBRANCH  57  58
ENDBRANCH  55  57
ENDBRANCH  52  55
ENDBRANCH  49  52
ENDBRANCH  47  49
BRANCH  47  72
ATOM     72  C24 non d ame     -36.248  14.697  26.734  0.00  0.00    -0.039 C 
ATOM     73  H35 non d ame     -36.620  14.259  27.660  0.00  0.00     0.036 H 
ATOM     74  H36 non d ame     -36.609  15.672  26.408  0.00  0.00     0.036 H 
BRANCH  72  75
ATOM     75  C25 non d ame     -36.568  13.657  25.558  0.00  0.00    -0.001 C 
ATOM     76  C26 non d ame     -37.617  14.330  24.485  0.00  0.00    -0.035 C 
ATOM     77  C27 non d ame     -38.651  13.477  24.292  0.00  0.00     0.085 C 
ATOM     78  H38 non d ame     -38.089  15.208  24.925  0.00  0.00     0.036 H 
ATOM     79  H39 non d ame     -37.154  14.396  23.500  0.00  0.00     0.036 H 
ATOM     80  N5  non d ame     -38.570  12.432  25.378  0.00  0.00    -0.049 N 
ATOM     81  H40 non d ame     -39.551  14.074  24.439  0.00  0.00     0.075 H 
ATOM     82  H41 non d ame     -38.462  13.004  23.329  0.00  0.00     0.075 H 
ATOM     83  C28 non d ame     -37.096  12.574  26.022  0.00  0.00     0.193 C 
ATOM     84  H42 non d ame     -39.252  12.691  26.076  0.00  0.00     0.280 HD
ATOM     85  H43 non d ame     -38.634  11.536  24.917  0.00  0.00     0.280 HD
ATOM     86  H44 non d ame     -36.315  11.853  25.782  0.00  0.00     0.129 H 
ATOM     87  H37 non d ame     -35.664  13.204  25.150  0.00  0.00     0.046 H 
BRANCH  83  88
ATOM     88  O6  non d ame     -37.181  12.584  27.448  0.00  0.00    -0.369 OA
ATOM     89  H45 non d ame     -37.057  11.693  27.783  0.00  0.00     0.212 HD
ENDBRANCH  83  88
ENDBRANCH  72  75
ENDBRANCH  47  72
ENDBRANCH  45  47
ENDBRANCH   1  43
BRANCH   1  90
ATOM     90  C16 non d ame     -31.717  11.381  28.555  0.00  0.00    -0.035 C 
ATOM     91  H21 non d ame     -31.550  10.393  28.983  0.00  0.00     0.037 H 
ATOM     92  H22 non d ame     -31.522  11.557  27.497  0.00  0.00     0.037 H 
BRANCH  90  93
ATOM     93  C17 non d ame     -30.796  12.364  29.344  0.00  0.00    -0.059 C 
ATOM     94  H23 non d ame     -29.845  11.860  29.517  0.00  0.00     0.038 H 
BRANCH  93  95
ATOM     95  C18 non d ame     -30.502  13.671  28.538  0.00  0.00    -0.073 C 
ATOM     96  H24 non d ame     -31.319  13.861  27.843  0.00  0.00     0.028 H 
ATOM     97  H25 non d ame     -30.410  14.510  29.228  0.00  0.00     0.028 H 
ATOM     98  H26 non d ame     -29.572  13.553  27.983  0.00  0.00     0.028 H 
ENDBRANCH  93  95
BRANCH  93  99
ATOM     99  C19 non d ame     -31.393  12.692  30.715  0.00  0.00    -0.073 C 
ATOM    100  H27 non d ame     -32.362  12.203  30.815  0.00  0.00     0.028 H 
ATOM    101  H28 non d ame     -30.723  12.336  31.498  0.00  0.00     0.028 H 
ATOM    102  H29 non d ame     -31.518  13.771  30.808  0.00  0.00     0.028 H 
ENDBRANCH  93  99
ENDBRANCH  90  93
ENDBRANCH   1  90
TORSDOF 26
ENDMDL
MODEL 10
REMARK VINA RESULT:      -6.1      3.464      7.319
REMARK  26 active torsions:
REMARK  status: ('A' for Active; 'I' for Inactive)
REMARK    1  A    between atoms: C2_2  and  C3_3 
REMARK    2  A    between atoms: C4_6  and  C5_7 
REMARK       I    between atoms: C5_7  and  N2_9 
REMARK    3  A    between atoms: N2_9  and  C6_10 
REMARK    4  A    between atoms: C6_10  and  C7_11 
REMARK    5  A    between atoms: C6_10  and  C8_13 
REMARK       I    between atoms: C7_11  and  N3_14 
REMARK    6  A    between atoms: N3_14  and  C9_15 
REMARK    7  A    between atoms: C9_15  and  C10_16 
REMARK    8  A    between atoms: C9_15  and  C11_18 
REMARK       I    between atoms: C10_16  and  N4_21 
REMARK    9  A    between atoms: C11_18  and  C12_19 
REMARK   10  A    between atoms: C11_18  and  C13_20 
REMARK   11  A    between atoms: N4_21  and  C14_22 
REMARK   12  A    between atoms: C14_22  and  C15_23 
REMARK   13  A    between atoms: C14_22  and  C16_25 
REMARK       I    between atoms: C15_23  and  N6_40 
REMARK   14  A    between atoms: C16_25  and  C17_26 
REMARK   15  A    between atoms: C17_26  and  C18_27 
REMARK   16  A    between atoms: C17_26  and  C19_28 
REMARK   17  A    between atoms: C20_29  and  C21_30 
REMARK   18  A    between atoms: C20_29  and  C24_33 
REMARK   19  A    between atoms: C20_29  and  N6_40 
REMARK   20  A    between atoms: C21_30  and  C22_31 
REMARK   21  A    between atoms: C22_31  and  C23_32 
REMARK   22  A    between atoms: C23_32  and  O8_43 
REMARK   23  A    between atoms: C24_33  and  C25_34 
REMARK   24  A    between atoms: C28_38  and  O6_39 
REMARK   25  A    between atoms: C29_42  and  O8_43 
REMARK   26  A    between atoms: C29_42  and  C35_49 
ROOT
ATOM      1  C14 non d ame     -34.344  16.107  27.340  0.00  0.00     0.089 C 
ATOM      2  H20 non d ame     -33.762  16.530  26.520  0.00  0.00     0.087 H 
ENDROOT
BRANCH   1   3
ATOM      3  N4  non d ame     -35.262  15.133  26.768  0.00  0.00    -0.346 N 
ATOM      4  C10 non d ame     -35.592  15.169  25.297  0.00  0.00     0.241 C 
ATOM      5  O4  non d ame     -35.107  15.993  24.593  0.00  0.00    -0.271 OA
ATOM      6  H19 non d ame     -35.665  14.441  27.384  0.00  0.00     0.163 HD
BRANCH   4   7
ATOM      7  C9  non d ame     -36.539  14.150  24.721  0.00  0.00     0.092 C 
ATOM      8  H11 non d ame     -36.503  14.202  23.633  0.00  0.00     0.088 H 
BRANCH   7   9
ATOM      9  N3  non d ame     -36.104  12.804  25.106  0.00  0.00    -0.346 N 
ATOM     10  C7  non d ame     -36.439  11.674  24.275  0.00  0.00     0.240 C 
ATOM     11  O3  non d ame     -37.060  11.829  23.295  0.00  0.00    -0.271 OA
ATOM     12  H10 non d ame     -35.569  12.655  25.949  0.00  0.00     0.163 HD
BRANCH  10  13
ATOM     13  C6  non d ame     -35.975  10.243  24.692  0.00  0.00     0.086 C 
ATOM     14  H6  non d ame     -36.579   9.456  24.241  0.00  0.00     0.086 H 
BRANCH  13  15
ATOM     15  N2  non d ame     -34.612  10.037  24.231  0.00  0.00    -0.343 N 
ATOM     16  C5  non d ame     -34.349   9.062  23.170  0.00  0.00     0.273 C 
ATOM     17  O2  non d ame     -35.240   8.447  22.696  0.00  0.00    -0.266 OA
ATOM     18  H5  non d ame     -33.856  10.565  24.643  0.00  0.00     0.163 HD
BRANCH  16  19
ATOM     19  C4  non d ame     -32.913   8.835  22.671  0.00  0.00     0.154 A 
ATOM     20  C1  non d ame     -31.733   9.527  23.091  0.00  0.00    -0.017 A 
ATOM     21  C2  non d ame     -30.686   8.949  22.339  0.00  0.00     0.077 A 
ATOM     22  H1  non d ame     -31.648  10.325  23.828  0.00  0.00     0.091 H 
ATOM     23  O1  non d ame     -31.214   8.033  21.581  0.00  0.00    -0.218 OA
ATOM     24  N1  non d ame     -32.512   7.948  21.757  0.00  0.00    -0.123 NA
BRANCH  21  25
ATOM     25  C3  non d ame     -29.212   9.327  22.405  0.00  0.00    -0.029 C 
ATOM     26  H2  non d ame     -28.815   9.073  23.387  0.00  0.00     0.036 H 
ATOM     27  H3  non d ame     -28.662   8.782  21.639  0.00  0.00     0.036 H 
ATOM     28  H4  non d ame     -29.104  10.399  22.236  0.00  0.00     0.036 H 
ENDBRANCH  21  25
ENDBRANCH  16  19
ENDBRANCH  13  15
BRANCH  13  29
ATOM     29  C8  non d ame     -36.038  10.108  26.192  0.00  0.00    -0.049 C 
ATOM     30  H7  non d ame     -35.135   9.614  26.551  0.00  0.00     0.030 H 
ATOM     31  H8  non d ame     -36.116  11.097  26.642  0.00  0.00     0.030 H 
ATOM     32  H9  non d ame     -36.910   9.514  26.466  0.00  0.00     0.030 H 
ENDBRANCH  13  29
ENDBRANCH  10  13
ENDBRANCH   7   9
BRANCH   7  33
ATOM     33  C11 non d ame     -37.973  14.405  25.272  0.00  0.00    -0.033 C 
ATOM     34  H12 non d ame     -38.680  14.124  24.492  0.00  0.00     0.042 H 
BRANCH  33  35
ATOM     35  C12 non d ame     -38.270  13.514  26.518  0.00  0.00    -0.071 C 
ATOM     36  H13 non d ame     -37.343  13.059  26.869  0.00  0.00     0.028 H 
ATOM     37  H14 non d ame     -38.696  14.128  27.311  0.00  0.00     0.028 H 
ATOM     38  H15 non d ame     -38.977  12.731  26.244  0.00  0.00     0.028 H 
ENDBRANCH  33  35
BRANCH  33  39
ATOM     39  C13 non d ame     -38.186  15.919  25.596  0.00  0.00    -0.071 C 
ATOM     40  H16 non d ame     -38.821  16.016  26.477  0.00  0.00     0.028 H 
ATOM     41  H17 non d ame     -37.222  16.389  25.788  0.00  0.00     0.028 H 
ATOM     42  H18 non d ame     -38.664  16.408  24.747  0.00  0.00     0.028 H 
ENDBRANCH  33  39
ENDBRANCH   7  33
ENDBRANCH   4   7
ENDBRANCH   1   3
BRANCH   1  43
ATOM     43  C15 non d ame     -33.446  15.386  28.386  0.00  0.00     0.240 C 
ATOM     44  O5  non d ame     -32.790  16.026  29.143  0.00  0.00    -0.271 OA
ATOM     45  N6  non d ame     -33.412  13.897  28.451  0.00  0.00    -0.355 N 
ATOM     46  H46 non d ame     -33.969  13.343  27.817  0.00  0.00     0.162 HD
BRANCH  45  47
ATOM     47  C20 non d ame     -32.554  13.227  29.453  0.00  0.00     0.013 C 
ATOM     48  H30 non d ame     -32.105  13.998  30.079  0.00  0.00     0.072 H 
BRANCH  47  49
ATOM     49  C21 non d ame     -31.474  12.445  28.742  0.00  0.00    -0.038 C 
ATOM     50  H31 non d ame     -30.608  12.468  29.405  0.00  0.00     0.036 H 
ATOM     51  H32 non d ame     -31.929  11.491  28.473  0.00  0.00     0.036 H 
BRANCH  49  52
ATOM     52  C22 non d ame     -31.028  13.104  27.419  0.00  0.00     0.018 C 
ATOM     53  H33 non d ame     -31.725  13.924  27.248  0.00  0.00     0.048 H 
ATOM     54  H34 non d ame     -29.963  13.308  27.534  0.00  0.00     0.048 H 
BRANCH  52  55
ATOM     55  C23 non d ame     -31.153  12.172  26.181  0.00  0.00     0.259 C 
ATOM     56  O7  non d ame     -31.060  10.994  26.302  0.00  0.00    -0.265 OA
BRANCH  55  57
ATOM     57  O8  non d ame     -31.368  12.745  24.897  0.00  0.00    -0.317 OA
BRANCH  57  58
ATOM     58  C29 non d ame     -31.367  14.175  24.889  0.00  0.00     0.052 C 
ATOM     59  H47 non d ame     -32.406  14.472  25.027  0.00  0.00     0.082 H 
ATOM     60  H48 non d ame     -30.614  14.473  25.619  0.00  0.00     0.082 H 
BRANCH  58  61
ATOM     61  C35 non d ame     -30.903  14.646  23.485  0.00  0.00    -0.034 A 
ATOM     62  C30 non d ame     -29.958  13.908  22.780  0.00  0.00    -0.075 A 
ATOM     63  C31 non d ame     -29.541  14.331  21.519  0.00  0.00    -0.082 A 
ATOM     64  H49 non d ame     -29.543  12.999  23.215  0.00  0.00     0.084 H 
ATOM     65  C32 non d ame     -30.072  15.499  20.963  0.00  0.00    -0.083 A 
ATOM     66  H50 non d ame     -28.801  13.750  20.968  0.00  0.00     0.083 H 
ATOM     67  C33 non d ame     -31.013  16.233  21.672  0.00  0.00    -0.082 A 
ATOM     68  H51 non d ame     -29.752  15.836  19.978  0.00  0.00     0.083 H 
ATOM     69  C34 non d ame     -31.433  15.813  22.932  0.00  0.00    -0.075 A 
ATOM     70  H52 non d ame     -31.423  17.145  21.237  0.00  0.00     0.083 H 
ATOM     71  H53 non d ame     -32.173  16.395  23.482  0.00  0.00     0.084 H 
ENDBRANCH  58  61
ENDBRANCH  57  58
ENDBRANCH  55  57
ENDBRANCH  52  55
ENDBRANCH  49  52
ENDBRANCH  47  49
BRANCH  47  72
ATOM     72  C24 non d ame     -33.397  12.278  30.302  0.00  0.00    -0.039 C 
ATOM     73  H35 non d ame     -33.226  12.583  31.335  0.00  0.00     0.036 H 
ATOM     74  H36 non d ame     -34.401  12.324  29.879  0.00  0.00     0.036 H 
BRANCH  72  75
ATOM     75  C25 non d ame     -32.897  10.762  30.168  0.00  0.00    -0.001 C 
ATOM     76  C26 non d ame     -33.531  10.081  28.812  0.00  0.00    -0.035 C 
ATOM     77  C27 non d ame     -34.116   8.905  29.147  0.00  0.00     0.085 C 
ATOM     78  H38 non d ame     -34.361  10.683  28.445  0.00  0.00     0.036 H 
ATOM     79  H39 non d ame     -32.731   9.784  28.134  0.00  0.00     0.036 H 
ATOM     80  N5  non d ame     -34.225   8.879  30.652  0.00  0.00    -0.049 N 
ATOM     81  H40 non d ame     -35.117   8.946  28.718  0.00  0.00     0.075 H 
ATOM     82  H41 non d ame     -33.417   8.132  28.828  0.00  0.00     0.075 H 
ATOM     83  C28 non d ame     -33.261  10.058  31.188  0.00  0.00     0.193 C 
ATOM     84  H42 non d ame     -35.181   9.120  30.874  0.00  0.00     0.280 HD
ATOM     85  H43 non d ame     -33.846   7.992  30.951  0.00  0.00     0.280 HD
ATOM     86  H44 non d ame     -32.290   9.824  31.624  0.00  0.00     0.129 H 
ATOM     87  H37 non d ame     -31.821  10.667  30.314  0.00  0.00     0.046 H 
BRANCH  83  88
ATOM     88  O6  non d ame     -33.941  10.843  32.170  0.00  0.00    -0.369 OA
ATOM     89  H45 non d ame     -34.873  10.613  32.173  0.00  0.00     0.212 HD
ENDBRANCH  83  88
ENDBRANCH  72  75
ENDBRANCH  47  72
ENDBRANCH  45  47
ENDBRANCH   1  43
BRANCH   1  90
ATOM     90  C16 non d ame     -35.146  17.203  28.023  0.00  0.00    -0.035 C 
ATOM     91  H21 non d ame     -36.166  16.825  28.075  0.00  0.00     0.037 H 
ATOM     92  H22 non d ame     -34.601  17.431  28.939  0.00  0.00     0.037 H 
BRANCH  90  93
ATOM     93  C17 non d ame     -35.210  18.533  27.206  0.00  0.00    -0.059 C 
ATOM     94  H23 non d ame     -35.995  18.424  26.457  0.00  0.00     0.038 H 
BRANCH  93  95
ATOM     95  C18 non d ame     -35.576  19.759  28.104  0.00  0.00    -0.073 C 
ATOM     96  H24 non d ame     -35.066  19.672  29.062  0.00  0.00     0.028 H 
ATOM     97  H25 non d ame     -35.263  20.678  27.609  0.00  0.00     0.028 H 
ATOM     98  H26 non d ame     -36.653  19.782  28.265  0.00  0.00     0.028 H 
ENDBRANCH  93  95
BRANCH  93  99
ATOM     99  C19 non d ame     -33.898  18.779  26.457  0.00  0.00    -0.073 C 
ATOM    100  H27 non d ame     -34.013  18.480  25.415  0.00  0.00     0.028 H 
ATOM    101  H28 non d ame     -33.645  19.838  26.504  0.00  0.00     0.028 H 
ATOM    102  H29 non d ame     -33.102  18.195  26.918  0.00  0.00     0.028 H 
ENDBRANCH  93  99
ENDBRANCH  90  93
ENDBRANCH   1  90
TORSDOF 26
ENDMDL
MODEL 11
REMARK VINA RESULT:      -6.1      3.603     10.164
REMARK  26 active torsions:
REMARK  status: ('A' for Active; 'I' for Inactive)
REMARK    1  A    between atoms: C2_2  and  C3_3 
REMARK    2  A    between atoms: C4_6  and  C5_7 
REMARK       I    between atoms: C5_7  and  N2_9 
REMARK    3  A    between atoms: N2_9  and  C6_10 
REMARK    4  A    between atoms: C6_10  and  C7_11 
REMARK    5  A    between atoms: C6_10  and  C8_13 
REMARK       I    between atoms: C7_11  and  N3_14 
REMARK    6  A    between atoms: N3_14  and  C9_15 
REMARK    7  A    between atoms: C9_15  and  C10_16 
REMARK    8  A    between atoms: C9_15  and  C11_18 
REMARK       I    between atoms: C10_16  and  N4_21 
REMARK    9  A    between atoms: C11_18  and  C12_19 
REMARK   10  A    between atoms: C11_18  and  C13_20 
REMARK   11  A    between atoms: N4_21  and  C14_22 
REMARK   12  A    between atoms: C14_22  and  C15_23 
REMARK   13  A    between atoms: C14_22  and  C16_25 
REMARK       I    between atoms: C15_23  and  N6_40 
REMARK   14  A    between atoms: C16_25  and  C17_26 
REMARK   15  A    between atoms: C17_26  and  C18_27 
REMARK   16  A    between atoms: C17_26  and  C19_28 
REMARK   17  A    between atoms: C20_29  and  C21_30 
REMARK   18  A    between atoms: C20_29  and  C24_33 
REMARK   19  A    between atoms: C20_29  and  N6_40 
REMARK   20  A    between atoms: C21_30  and  C22_31 
REMARK   21  A    between atoms: C22_31  and  C23_32 
REMARK   22  A    between atoms: C23_32  and  O8_43 
REMARK   23  A    between atoms: C24_33  and  C25_34 
REMARK   24  A    between atoms: C28_38  and  O6_39 
REMARK   25  A    between atoms: C29_42  and  O8_43 
REMARK   26  A    between atoms: C29_42  and  C35_49 
ROOT
ATOM      1  C14 non d ame     -32.447  12.894  27.911  0.00  0.00     0.089 C 
ATOM      2  H20 non d ame     -33.226  13.254  28.583  0.00  0.00     0.087 H 
ENDROOT
BRANCH   1   3
ATOM      3  N4  non d ame     -33.072  11.988  26.959  0.00  0.00    -0.346 N 
ATOM      4  C10 non d ame     -32.239  10.985  26.202  0.00  0.00     0.241 C 
ATOM      5  O4  non d ame     -31.066  10.928  26.373  0.00  0.00    -0.271 OA
ATOM      6  H19 non d ame     -34.071  12.054  26.827  0.00  0.00     0.163 HD
BRANCH   4   7
ATOM      7  C9  non d ame     -32.904  10.051  25.225  0.00  0.00     0.092 C 
ATOM      8  H11 non d ame     -33.287  10.627  24.383  0.00  0.00     0.088 H 
BRANCH   7   9
ATOM      9  N3  non d ame     -31.911   9.113  24.693  0.00  0.00    -0.346 N 
ATOM     10  C7  non d ame     -31.234   9.407  23.454  0.00  0.00     0.240 C 
ATOM     11  O3  non d ame     -31.476  10.393  22.872  0.00  0.00    -0.271 OA
ATOM     12  H10 non d ame     -31.692   8.257  25.183  0.00  0.00     0.163 HD
BRANCH  10  13
ATOM     13  C6  non d ame     -30.180   8.403  22.891  0.00  0.00     0.086 C 
ATOM     14  H6  non d ame     -29.637   7.877  23.675  0.00  0.00     0.086 H 
BRANCH  13  15
ATOM     15  N2  non d ame     -30.867   7.388  22.109  0.00  0.00    -0.343 N 
ATOM     16  C5  non d ame     -31.479   6.245  22.791  0.00  0.00     0.273 C 
ATOM     17  O2  non d ame     -31.410   6.149  23.967  0.00  0.00    -0.266 OA
ATOM     18  H5  non d ame     -30.919   7.475  21.104  0.00  0.00     0.163 HD
BRANCH  16  19
ATOM     19  C4  non d ame     -32.210   5.165  21.978  0.00  0.00     0.154 A 
ATOM     20  C1  non d ame     -31.874   4.692  20.669  0.00  0.00    -0.017 A 
ATOM     21  C2  non d ame     -32.846   3.710  20.377  0.00  0.00     0.077 A 
ATOM     22  H1  non d ame     -31.052   5.013  20.030  0.00  0.00     0.091 H 
ATOM     23  O1  non d ame     -33.641   3.633  21.404  0.00  0.00    -0.218 OA
ATOM     24  N1  non d ame     -33.290   4.473  22.351  0.00  0.00    -0.123 NA
BRANCH  21  25
ATOM     25  C3  non d ame     -32.944   2.891  19.097  0.00  0.00    -0.029 C 
ATOM     26  H2  non d ame     -33.552   3.426  18.368  0.00  0.00     0.036 H 
ATOM     27  H3  non d ame     -31.946   2.732  18.690  0.00  0.00     0.036 H 
ATOM     28  H4  non d ame     -33.404   1.927  19.316  0.00  0.00     0.036 H 
ENDBRANCH  21  25
ENDBRANCH  16  19
ENDBRANCH  13  15
BRANCH  13  29
ATOM     29  C8  non d ame     -29.192   9.141  22.023  0.00  0.00    -0.049 C 
ATOM     30  H7  non d ame     -29.394  10.211  22.073  0.00  0.00     0.030 H 
ATOM     31  H8  non d ame     -28.181   8.945  22.379  0.00  0.00     0.030 H 
ATOM     32  H9  non d ame     -29.288   8.800  20.992  0.00  0.00     0.030 H 
ENDBRANCH  13  29
ENDBRANCH  10  13
ENDBRANCH   7   9
BRANCH   7  33
ATOM     33  C11 non d ame     -34.028   9.256  25.951  0.00  0.00    -0.033 C 
ATOM     34  H12 non d ame     -34.785   9.972  26.269  0.00  0.00     0.042 H 
BRANCH  33  35
ATOM     35  C12 non d ame     -34.718   8.240  24.989  0.00  0.00    -0.071 C 
ATOM     36  H13 non d ame     -35.132   7.414  25.568  0.00  0.00     0.028 H 
ATOM     37  H14 non d ame     -35.519   8.740  24.446  0.00  0.00     0.028 H 
ATOM     38  H15 non d ame     -33.984   7.854  24.281  0.00  0.00     0.028 H 
ENDBRANCH  33  35
BRANCH  33  39
ATOM     39  C13 non d ame     -33.474   8.542  27.226  0.00  0.00    -0.071 C 
ATOM     40  H16 non d ame     -32.670   7.862  26.942  0.00  0.00     0.028 H 
ATOM     41  H17 non d ame     -33.090   9.288  27.923  0.00  0.00     0.028 H 
ATOM     42  H18 non d ame     -34.275   7.978  27.704  0.00  0.00     0.028 H 
ENDBRANCH  33  39
ENDBRANCH   7  33
ENDBRANCH   4   7
ENDBRANCH   1   3
BRANCH   1  43
ATOM     43  C15 non d ame     -31.771  14.052  27.121  0.00  0.00     0.240 C 
ATOM     44  O5  non d ame     -30.680  14.414  27.422  0.00  0.00    -0.271 OA
ATOM     45  N6  non d ame     -32.482  14.704  25.985  0.00  0.00    -0.355 N 
ATOM     46  H46 non d ame     -33.408  14.402  25.718  0.00  0.00     0.162 HD
BRANCH  45  47
ATOM     47  C20 non d ame     -31.826  15.803  25.243  0.00  0.00     0.013 C 
ATOM     48  H30 non d ame     -30.771  15.809  25.517  0.00  0.00     0.072 H 
BRANCH  47  49
ATOM     49  C21 non d ame     -32.467  17.117  25.628  0.00  0.00    -0.038 C 
ATOM     50  H31 non d ame     -31.671  17.713  26.077  0.00  0.00     0.036 H 
ATOM     51  H32 non d ame     -32.973  17.472  24.729  0.00  0.00     0.036 H 
BRANCH  49  52
ATOM     52  C22 non d ame     -33.557  16.959  26.709  0.00  0.00     0.018 C 
ATOM     53  H33 non d ame     -34.508  17.002  26.179  0.00  0.00     0.048 H 
ATOM     54  H34 non d ame     -33.287  16.066  27.273  0.00  0.00     0.048 H 
BRANCH  52  55
ATOM     55  C23 non d ame     -33.590  18.121  27.740  0.00  0.00     0.259 C 
ATOM     56  O7  non d ame     -32.603  18.733  27.991  0.00  0.00    -0.265 OA
BRANCH  55  57
ATOM     57  O8  non d ame     -34.814  18.440  28.392  0.00  0.00    -0.317 OA
BRANCH  57  58
ATOM     58  C29 non d ame     -35.971  17.884  27.762  0.00  0.00     0.052 C 
ATOM     59  H47 non d ame     -35.620  17.004  27.223  0.00  0.00     0.082 H 
ATOM     60  H48 non d ame     -36.715  17.777  28.552  0.00  0.00     0.082 H 
BRANCH  58  61
ATOM     61  C35 non d ame     -36.497  18.916  26.729  0.00  0.00    -0.034 A 
ATOM     62  C30 non d ame     -36.703  18.535  25.407  0.00  0.00    -0.075 A 
ATOM     63  C31 non d ame     -37.175  19.462  24.479  0.00  0.00    -0.082 A 
ATOM     64  H49 non d ame     -36.495  17.510  25.098  0.00  0.00     0.084 H 
ATOM     65  C32 non d ame     -37.438  20.775  24.877  0.00  0.00    -0.083 A 
ATOM     66  H50 non d ame     -37.337  19.160  23.444  0.00  0.00     0.083 H 
ATOM     67  C33 non d ame     -37.227  21.152  26.196  0.00  0.00    -0.082 A 
ATOM     68  H51 non d ame     -37.807  21.506  24.157  0.00  0.00     0.083 H 
ATOM     69  C34 non d ame     -36.758  20.228  27.128  0.00  0.00    -0.075 A 
ATOM     70  H52 non d ame     -37.431  22.178  26.503  0.00  0.00     0.083 H 
ATOM     71  H53 non d ame     -36.596  20.531  28.163  0.00  0.00     0.084 H 
ENDBRANCH  58  61
ENDBRANCH  57  58
ENDBRANCH  55  57
ENDBRANCH  52  55
ENDBRANCH  49  52
ENDBRANCH  47  49
BRANCH  47  72
ATOM     72  C24 non d ame     -31.984  15.579  23.741  0.00  0.00    -0.039 C 
ATOM     73  H35 non d ame     -32.428  14.588  23.641  0.00  0.00     0.036 H 
ATOM     74  H36 non d ame     -32.518  16.454  23.372  0.00  0.00     0.036 H 
BRANCH  72  75
ATOM     75  C25 non d ame     -30.567  15.539  22.996  0.00  0.00    -0.001 C 
ATOM     76  C26 non d ame     -30.699  16.221  21.505  0.00  0.00    -0.035 C 
ATOM     77  C27 non d ame     -30.185  15.368  20.587  0.00  0.00     0.085 C 
ATOM     78  H38 non d ame     -31.748  16.300  21.222  0.00  0.00     0.036 H 
ATOM     79  H39 non d ame     -30.048  17.093  21.434  0.00  0.00     0.036 H 
ATOM     80  N5  non d ame     -30.015  14.033  21.272  0.00  0.00    -0.049 N 
ATOM     81  H40 non d ame     -30.950  15.276  19.816  0.00  0.00     0.075 H 
ATOM     82  H41 non d ame     -29.203  15.766  20.337  0.00  0.00     0.075 H 
ATOM     83  C28 non d ame     -30.146  14.326  22.855  0.00  0.00     0.193 C 
ATOM     84  H42 non d ame     -30.797  13.462  20.985  0.00  0.00     0.280 HD
ATOM     85  H43 non d ame     -29.071  13.731  21.078  0.00  0.00     0.280 HD
ATOM     86  H44 non d ame     -29.260  14.349  23.489  0.00  0.00     0.129 H 
ATOM     87  H37 non d ame     -29.755  15.892  23.632  0.00  0.00     0.046 H 
BRANCH  83  88
ATOM     88  O6  non d ame     -31.026  13.377  23.460  0.00  0.00    -0.369 OA
ATOM     89  H45 non d ame     -31.736  13.164  22.851  0.00  0.00     0.212 HD
ENDBRANCH  83  88
ENDBRANCH  72  75
ENDBRANCH  47  72
ENDBRANCH  45  47
ENDBRANCH   1  43
BRANCH   1  90
ATOM     90  C16 non d ame     -31.395  12.134  28.703  0.00  0.00    -0.035 C 
ATOM     91  H21 non d ame     -31.458  11.104  28.352  0.00  0.00     0.037 H 
ATOM     92  H22 non d ame     -30.471  12.698  28.572  0.00  0.00     0.037 H 
BRANCH  90  93
ATOM     93  C17 non d ame     -31.675  12.094  30.239  0.00  0.00    -0.059 C 
ATOM     94  H23 non d ame     -32.007  13.087  30.540  0.00  0.00     0.038 H 
BRANCH  93  95
ATOM     95  C18 non d ame     -32.806  11.081  30.606  0.00  0.00    -0.073 C 
ATOM     96  H24 non d ame     -32.508  10.506  31.482  0.00  0.00     0.028 H 
ATOM     97  H25 non d ame     -33.724  11.624  30.824  0.00  0.00     0.028 H 
ATOM     98  H26 non d ame     -32.974  10.405  29.768  0.00  0.00     0.028 H 
ENDBRANCH  93  95
BRANCH  93  99
ATOM     99  C19 non d ame     -30.394  11.787  31.020  0.00  0.00    -0.073 C 
ATOM    100  H27 non d ame     -30.360  12.403  31.919  0.00  0.00     0.028 H 
ATOM    101  H28 non d ame     -30.382  10.734  31.301  0.00  0.00     0.028 H 
ATOM    102  H29 non d ame     -29.527  12.006  30.397  0.00  0.00     0.028 H 
ENDBRANCH  93  99
ENDBRANCH  90  93
ENDBRANCH   1  90
TORSDOF 26
ENDMDL
MODEL 12
REMARK VINA RESULT:      -6.0      2.421      5.853
REMARK  26 active torsions:
REMARK  status: ('A' for Active; 'I' for Inactive)
REMARK    1  A    between atoms: C2_2  and  C3_3 
REMARK    2  A    between atoms: C4_6  and  C5_7 
REMARK       I    between atoms: C5_7  and  N2_9 
REMARK    3  A    between atoms: N2_9  and  C6_10 
REMARK    4  A    between atoms: C6_10  and  C7_11 
REMARK    5  A    between atoms: C6_10  and  C8_13 
REMARK       I    between atoms: C7_11  and  N3_14 
REMARK    6  A    between atoms: N3_14  and  C9_15 
REMARK    7  A    between atoms: C9_15  and  C10_16 
REMARK    8  A    between atoms: C9_15  and  C11_18 
REMARK       I    between atoms: C10_16  and  N4_21 
REMARK    9  A    between atoms: C11_18  and  C12_19 
REMARK   10  A    between atoms: C11_18  and  C13_20 
REMARK   11  A    between atoms: N4_21  and  C14_22 
REMARK   12  A    between atoms: C14_22  and  C15_23 
REMARK   13  A    between atoms: C14_22  and  C16_25 
REMARK       I    between atoms: C15_23  and  N6_40 
REMARK   14  A    between atoms: C16_25  and  C17_26 
REMARK   15  A    between atoms: C17_26  and  C18_27 
REMARK   16  A    between atoms: C17_26  and  C19_28 
REMARK   17  A    between atoms: C20_29  and  C21_30 
REMARK   18  A    between atoms: C20_29  and  C24_33 
REMARK   19  A    between atoms: C20_29  and  N6_40 
REMARK   20  A    between atoms: C21_30  and  C22_31 
REMARK   21  A    between atoms: C22_31  and  C23_32 
REMARK   22  A    between atoms: C23_32  and  O8_43 
REMARK   23  A    between atoms: C24_33  and  C25_34 
REMARK   24  A    between atoms: C28_38  and  O6_39 
REMARK   25  A    between atoms: C29_42  and  O8_43 
REMARK   26  A    between atoms: C29_42  and  C35_49 
ROOT
ATOM      1  C14 non d ame     -35.285   8.867  26.836  0.00  0.00     0.089 C 
ATOM      2  H20 non d ame     -35.298   7.990  27.485  0.00  0.00     0.087 H 
ENDROOT
BRANCH   1   3
ATOM      3  N4  non d ame     -34.508   9.898  27.508  0.00  0.00    -0.346 N 
ATOM      4  C10 non d ame     -33.094   9.618  27.951  0.00  0.00     0.241 C 
ATOM      5  O4  non d ame     -32.604   8.554  27.759  0.00  0.00    -0.271 OA
ATOM      6  H19 non d ame     -34.944  10.795  27.664  0.00  0.00     0.163 HD
BRANCH   4   7
ATOM      7  C9  non d ame     -32.302  10.699  28.640  0.00  0.00     0.092 C 
ATOM      8  H11 non d ame     -31.242  10.551  28.435  0.00  0.00     0.088 H 
BRANCH   7   9
ATOM      9  N3  non d ame     -32.673  12.005  28.086  0.00  0.00    -0.346 N 
ATOM     10  C7  non d ame     -31.871  12.599  27.044  0.00  0.00     0.240 C 
ATOM     11  O3  non d ame     -30.925  12.041  26.641  0.00  0.00    -0.271 OA
ATOM     12  H10 non d ame     -33.485  12.499  28.425  0.00  0.00     0.163 HD
BRANCH  10  13
ATOM     13  C6  non d ame     -32.269  13.990  26.460  0.00  0.00     0.086 C 
ATOM     14  H6  non d ame     -31.832  14.820  27.016  0.00  0.00     0.086 H 
BRANCH  13  15
ATOM     15  N2  non d ame     -31.769  14.091  25.100  0.00  0.00    -0.343 N 
ATOM     16  C5  non d ame     -31.127  15.331  24.657  0.00  0.00     0.273 C 
ATOM     17  O2  non d ame     -31.020  16.242  25.403  0.00  0.00    -0.266 OA
ATOM     18  H5  non d ame     -31.866  13.309  24.468  0.00  0.00     0.163 HD
BRANCH  16  19
ATOM     19  C4  non d ame     -30.592  15.451  23.222  0.00  0.00     0.154 A 
ATOM     20  C1  non d ame     -31.351  15.698  22.034  0.00  0.00    -0.017 A 
ATOM     21  C2  non d ame     -30.398  15.717  20.991  0.00  0.00     0.077 A 
ATOM     22  H1  non d ame     -32.427  15.842  21.943  0.00  0.00     0.091 H 
ATOM     23  O1  non d ame     -29.232  15.506  21.528  0.00  0.00    -0.218 OA
ATOM     24  N1  non d ame     -29.319  15.347  22.828  0.00  0.00    -0.123 NA
BRANCH  21  25
ATOM     25  C3  non d ame     -30.684  15.943  19.512  0.00  0.00    -0.029 C 
ATOM     26  H2  non d ame     -31.494  15.287  19.194  0.00  0.00     0.036 H 
ATOM     27  H3  non d ame     -30.975  16.982  19.354  0.00  0.00     0.036 H 
ATOM     28  H4  non d ame     -29.789  15.724  18.931  0.00  0.00     0.036 H 
ENDBRANCH  21  25
ENDBRANCH  16  19
ENDBRANCH  13  15
BRANCH  13  29
ATOM     29  C8  non d ame     -33.770  14.133  26.471  0.00  0.00    -0.049 C 
ATOM     30  H7  non d ame     -34.157  13.975  25.464  0.00  0.00     0.030 H 
ATOM     31  H8  non d ame     -34.200  13.393  27.145  0.00  0.00     0.030 H 
ATOM     32  H9  non d ame     -34.038  15.133  26.810  0.00  0.00     0.030 H 
ENDBRANCH  13  29
ENDBRANCH  10  13
ENDBRANCH   7   9
BRANCH   7  33
ATOM     33  C11 non d ame     -32.614  10.678  30.165  0.00  0.00    -0.033 C 
ATOM     34  H12 non d ame     -31.912   9.989  30.634  0.00  0.00     0.042 H 
BRANCH  33  35
ATOM     35  C12 non d ame     -32.394  12.083  30.809  0.00  0.00    -0.071 C 
ATOM     36  H13 non d ame     -33.299  12.680  30.697  0.00  0.00     0.028 H 
ATOM     37  H14 non d ame     -32.165  11.965  31.868  0.00  0.00     0.028 H 
ATOM     38  H15 non d ame     -31.564  12.585  30.311  0.00  0.00     0.028 H 
ENDBRANCH  33  35
BRANCH  33  39
ATOM     39  C13 non d ame     -34.060  10.152  30.433  0.00  0.00    -0.071 C 
ATOM     40  H16 non d ame     -34.289   9.346  29.735  0.00  0.00     0.028 H 
ATOM     41  H17 non d ame     -34.127   9.778  31.455  0.00  0.00     0.028 H 
ATOM     42  H18 non d ame     -34.773  10.965  30.298  0.00  0.00     0.028 H 
ENDBRANCH  33  39
ENDBRANCH   7  33
ENDBRANCH   4   7
ENDBRANCH   1   3
BRANCH   1  43
ATOM     43  C15 non d ame     -34.627   8.568  25.459  0.00  0.00     0.240 C 
ATOM     44  O5  non d ame     -34.670   9.383  24.595  0.00  0.00    -0.271 OA
ATOM     45  N6  non d ame     -33.936   7.269  25.220  0.00  0.00    -0.355 N 
ATOM     46  H46 non d ame     -33.889   6.571  25.948  0.00  0.00     0.162 HD
BRANCH  45  47
ATOM     47  C20 non d ame     -33.314   7.001  23.905  0.00  0.00     0.013 C 
ATOM     48  H30 non d ame     -33.881   7.543  23.149  0.00  0.00     0.072 H 
BRANCH  47  49
ATOM     49  C21 non d ame     -33.363   5.517  23.622  0.00  0.00    -0.038 C 
ATOM     50  H31 non d ame     -32.403   5.272  23.168  0.00  0.00     0.036 H 
ATOM     51  H32 non d ame     -33.657   5.048  24.562  0.00  0.00     0.036 H 
BRANCH  49  52
ATOM     52  C22 non d ame     -34.445   5.139  22.588  0.00  0.00     0.018 C 
ATOM     53  H33 non d ame     -34.613   6.037  21.995  0.00  0.00     0.048 H 
ATOM     54  H34 non d ame     -34.089   4.227  22.108  0.00  0.00     0.048 H 
BRANCH  52  55
ATOM     55  C23 non d ame     -35.818   4.782  23.221  0.00  0.00     0.259 C 
ATOM     56  O7  non d ame     -36.704   4.368  22.545  0.00  0.00    -0.265 OA
BRANCH  55  57
ATOM     57  O8  non d ame     -36.011   4.966  24.618  0.00  0.00    -0.317 OA
BRANCH  57  58
ATOM     58  C29 non d ame     -35.785   3.788  25.397  0.00  0.00     0.052 C 
ATOM     59  H47 non d ame     -36.774   3.377  25.603  0.00  0.00     0.082 H 
ATOM     60  H48 non d ame     -35.057   3.200  24.840  0.00  0.00     0.082 H 
BRANCH  58  61
ATOM     61  C35 non d ame     -35.143   4.219  26.742  0.00  0.00    -0.034 A 
ATOM     62  C30 non d ame     -33.826   3.873  27.028  0.00  0.00    -0.075 A 
ATOM     63  C31 non d ame     -33.249   4.260  28.236  0.00  0.00    -0.082 A 
ATOM     64  H49 non d ame     -33.247   3.298  26.306  0.00  0.00     0.084 H 
ATOM     65  C32 non d ame     -33.994   4.994  29.163  0.00  0.00    -0.083 A 
ATOM     66  H50 non d ame     -32.216   3.988  28.457  0.00  0.00     0.083 H 
ATOM     67  C33 non d ame     -35.309   5.335  28.874  0.00  0.00    -0.082 A 
ATOM     68  H51 non d ame     -33.550   5.301  30.109  0.00  0.00     0.083 H 
ATOM     69  C34 non d ame     -35.889   4.952  27.667  0.00  0.00    -0.075 A 
ATOM     70  H52 non d ame     -35.889   5.906  29.600  0.00  0.00     0.083 H 
ATOM     71  H53 non d ame     -36.922   5.224  27.448  0.00  0.00     0.084 H 
ENDBRANCH  58  61
ENDBRANCH  57  58
ENDBRANCH  55  57
ENDBRANCH  52  55
ENDBRANCH  49  52
ENDBRANCH  47  49
BRANCH  47  72
ATOM     72  C24 non d ame     -31.861   7.471  23.916  0.00  0.00    -0.039 C 
ATOM     73  H35 non d ame     -31.669   7.798  24.938  0.00  0.00     0.036 H 
ATOM     74  H36 non d ame     -31.287   6.648  23.490  0.00  0.00     0.036 H 
BRANCH  72  75
ATOM     75  C25 non d ame     -31.641   8.742  22.965  0.00  0.00    -0.001 C 
ATOM     76  C26 non d ame     -30.355   8.484  21.973  0.00  0.00    -0.035 C 
ATOM     77  C27 non d ame     -29.516   9.543  22.063  0.00  0.00     0.085 C 
ATOM     78  H38 non d ame     -29.757   7.653  22.346  0.00  0.00     0.036 H 
ATOM     79  H39 non d ame     -30.677   8.500  20.932  0.00  0.00     0.036 H 
ATOM     80  N5  non d ame     -29.946  10.347  23.266  0.00  0.00    -0.049 N 
ATOM     81  H40 non d ame     -28.530   9.118  22.253  0.00  0.00     0.075 H 
ATOM     82  H41 non d ame     -29.692  10.130  21.162  0.00  0.00     0.075 H 
ATOM     83  C28 non d ame     -31.418   9.809  23.656  0.00  0.00     0.193 C 
ATOM     84  H42 non d ame     -29.309  10.110  24.012  0.00  0.00     0.280 HD
ATOM     85  H43 non d ame     -30.026  11.305  22.955  0.00  0.00     0.280 HD
ATOM     86  H44 non d ame     -32.304  10.394  23.410  0.00  0.00     0.129 H 
ATOM     87  H37 non d ame     -32.569   9.073  22.498  0.00  0.00     0.046 H 
BRANCH  83  88
ATOM     88  O6  non d ame     -31.497   9.568  25.062  0.00  0.00    -0.369 OA
ATOM     89  H45 non d ame     -30.927  10.186  25.525  0.00  0.00     0.212 HD
ENDBRANCH  83  88
ENDBRANCH  72  75
ENDBRANCH  47  72
ENDBRANCH  45  47
ENDBRANCH   1  43
BRANCH   1  90
ATOM     90  C16 non d ame     -36.704   9.372  26.627  0.00  0.00    -0.035 C 
ATOM     91  H21 non d ame     -36.892   9.268  25.559  0.00  0.00     0.037 H 
ATOM     92  H22 non d ame     -37.314   8.824  27.344  0.00  0.00     0.037 H 
BRANCH  90  93
ATOM     93  C17 non d ame     -36.884  10.887  26.960  0.00  0.00    -0.059 C 
ATOM     94  H23 non d ame     -35.906  11.287  27.225  0.00  0.00     0.038 H 
BRANCH  93  95
ATOM     95  C18 non d ame     -37.415  11.701  25.736  0.00  0.00    -0.073 C 
ATOM     96  H24 non d ame     -36.895  12.657  25.682  0.00  0.00     0.028 H 
ATOM     97  H25 non d ame     -37.237  11.138  24.820  0.00  0.00     0.028 H 
ATOM     98  H26 non d ame     -38.485  11.875  25.853  0.00  0.00     0.028 H 
ENDBRANCH  93  95
BRANCH  93  99
ATOM     99  C19 non d ame     -37.796  11.075  28.175  0.00  0.00    -0.073 C 
ATOM    100  H27 non d ame     -37.612  12.053  28.621  0.00  0.00     0.028 H 
ATOM    101  H28 non d ame     -38.838  11.009  27.862  0.00  0.00     0.028 H 
ATOM    102  H29 non d ame     -37.588  10.296  28.909  0.00  0.00     0.028 H 
ENDBRANCH  93  99
ENDBRANCH  90  93
ENDBRANCH   1  90
TORSDOF 26
ENDMDL
MODEL 13
REMARK VINA RESULT:      -6.0      3.015      7.121
REMARK  26 active torsions:
REMARK  status: ('A' for Active; 'I' for Inactive)
REMARK    1  A    between atoms: C2_2  and  C3_3 
REMARK    2  A    between atoms: C4_6  and  C5_7 
REMARK       I    between atoms: C5_7  and  N2_9 
REMARK    3  A    between atoms: N2_9  and  C6_10 
REMARK    4  A    between atoms: C6_10  and  C7_11 
REMARK    5  A    between atoms: C6_10  and  C8_13 
REMARK       I    between atoms: C7_11  and  N3_14 
REMARK    6  A    between atoms: N3_14  and  C9_15 
REMARK    7  A    between atoms: C9_15  and  C10_16 
REMARK    8  A    between atoms: C9_15  and  C11_18 
REMARK       I    between atoms: C10_16  and  N4_21 
REMARK    9  A    between atoms: C11_18  and  C12_19 
REMARK   10  A    between atoms: C11_18  and  C13_20 
REMARK   11  A    between atoms: N4_21  and  C14_22 
REMARK   12  A    between atoms: C14_22  and  C15_23 
REMARK   13  A    between atoms: C14_22  and  C16_25 
REMARK       I    between atoms: C15_23  and  N6_40 
REMARK   14  A    between atoms: C16_25  and  C17_26 
REMARK   15  A    between atoms: C17_26  and  C18_27 
REMARK   16  A    between atoms: C17_26  and  C19_28 
REMARK   17  A    between atoms: C20_29  and  C21_30 
REMARK   18  A    between atoms: C20_29  and  C24_33 
REMARK   19  A    between atoms: C20_29  and  N6_40 
REMARK   20  A    between atoms: C21_30  and  C22_31 
REMARK   21  A    between atoms: C22_31  and  C23_32 
REMARK   22  A    between atoms: C23_32  and  O8_43 
REMARK   23  A    between atoms: C24_33  and  C25_34 
REMARK   24  A    between atoms: C28_38  and  O6_39 
REMARK   25  A    between atoms: C29_42  and  O8_43 
REMARK   26  A    between atoms: C29_42  and  C35_49 
ROOT
ATOM      1  C14 non d ame     -36.819  14.485  25.865  0.00  0.00     0.089 C 
ATOM      2  H20 non d ame     -37.907  14.464  25.920  0.00  0.00     0.087 H 
ENDROOT
BRANCH   1   3
ATOM      3  N4  non d ame     -36.384  15.805  26.296  0.00  0.00    -0.346 N 
ATOM      4  C10 non d ame     -37.255  17.012  26.051  0.00  0.00     0.241 C 
ATOM      5  O4  non d ame     -38.300  16.896  25.502  0.00  0.00    -0.271 OA
ATOM      6  H19 non d ame     -35.490  15.883  26.760  0.00  0.00     0.163 HD
BRANCH   4   7
ATOM      7  C9  non d ame     -36.792  18.370  26.509  0.00  0.00     0.092 C 
ATOM      8  H11 non d ame     -37.117  18.531  27.537  0.00  0.00     0.088 H 
BRANCH   7   9
ATOM      9  N3  non d ame     -35.326  18.414  26.506  0.00  0.00    -0.346 N 
ATOM     10  C7  non d ame     -34.605  18.471  27.754  0.00  0.00     0.240 C 
ATOM     11  O3  non d ame     -35.187  18.484  28.769  0.00  0.00    -0.271 OA
ATOM     12  H10 non d ame     -34.810  18.405  25.639  0.00  0.00     0.163 HD
BRANCH  10  13
ATOM     13  C6  non d ame     -33.045  18.520  27.744  0.00  0.00     0.086 C 
ATOM     14  H6  non d ame     -32.600  17.927  28.543  0.00  0.00     0.086 H 
BRANCH  13  15
ATOM     15  N2  non d ame     -32.564  17.961  26.492  0.00  0.00    -0.343 N 
ATOM     16  C5  non d ame     -32.259  16.531  26.411  0.00  0.00     0.273 C 
ATOM     17  O2  non d ame     -32.403  15.840  27.359  0.00  0.00    -0.266 OA
ATOM     18  H5  non d ame     -32.442  18.560  25.688  0.00  0.00     0.163 HD
BRANCH  16  19
ATOM     19  C4  non d ame     -31.751  15.926  25.093  0.00  0.00     0.154 A 
ATOM     20  C1  non d ame     -31.139  14.645  24.909  0.00  0.00    -0.017 A 
ATOM     21  C2  non d ame     -30.860  14.571  23.526  0.00  0.00     0.077 A 
ATOM     22  H1  non d ame     -30.930  13.886  25.663  0.00  0.00     0.091 H 
ATOM     23  O1  non d ame     -31.269  15.683  22.988  0.00  0.00    -0.218 OA
ATOM     24  N1  non d ame     -31.792  16.490  23.883  0.00  0.00    -0.123 NA
BRANCH  21  25
ATOM     25  C3  non d ame     -30.203  13.405  22.800  0.00  0.00    -0.029 C 
ATOM     26  H2  non d ame     -30.461  13.443  21.742  0.00  0.00     0.036 H 
ATOM     27  H3  non d ame     -29.121  13.471  22.912  0.00  0.00     0.036 H 
ATOM     28  H4  non d ame     -30.556  12.466  23.226  0.00  0.00     0.036 H 
ENDBRANCH  21  25
ENDBRANCH  16  19
ENDBRANCH  13  15
BRANCH  13  29
ATOM     29  C8  non d ame     -32.584  19.949  27.883  0.00  0.00    -0.049 C 
ATOM     30  H7  non d ame     -33.133  20.577  27.181  0.00  0.00     0.030 H 
ATOM     31  H8  non d ame     -32.770  20.293  28.900  0.00  0.00     0.030 H 
ATOM     32  H9  non d ame     -31.517  20.009  27.668  0.00  0.00     0.030 H 
ENDBRANCH  13  29
ENDBRANCH  10  13
ENDBRANCH   7   9
BRANCH   7  33
ATOM     33  C11 non d ame     -37.343  19.459  25.543  0.00  0.00    -0.033 C 
ATOM     34  H12 non d ame     -38.314  19.119  25.184  0.00  0.00     0.042 H 
BRANCH  33  35
ATOM     35  C12 non d ame     -37.564  20.815  26.282  0.00  0.00    -0.071 C 
ATOM     36  H13 non d ame     -38.481  20.764  26.869  0.00  0.00     0.028 H 
ATOM     37  H14 non d ame     -36.720  21.011  26.943  0.00  0.00     0.028 H 
ATOM     38  H15 non d ame     -37.646  21.619  25.550  0.00  0.00     0.028 H 
ENDBRANCH  33  35
BRANCH  33  39
ATOM     39  C13 non d ame     -36.405  19.634  24.305  0.00  0.00    -0.071 C 
ATOM     40  H16 non d ame     -35.366  19.655  24.637  0.00  0.00     0.028 H 
ATOM     41  H17 non d ame     -36.551  18.801  23.618  0.00  0.00     0.028 H 
ATOM     42  H18 non d ame     -36.644  20.569  23.798  0.00  0.00     0.028 H 
ENDBRANCH  33  39
ENDBRANCH   7  33
ENDBRANCH   4   7
ENDBRANCH   1   3
BRANCH   1  43
ATOM     43  C15 non d ame     -36.163  13.421  26.791  0.00  0.00     0.240 C 
ATOM     44  O5  non d ame     -36.832  12.565  27.273  0.00  0.00    -0.271 OA
ATOM     45  N6  non d ame     -34.699  13.464  27.069  0.00  0.00    -0.355 N 
ATOM     46  H46 non d ame     -34.120  14.183  26.661  0.00  0.00     0.162 HD
BRANCH  45  47
ATOM     47  C20 non d ame     -34.091  12.443  27.950  0.00  0.00     0.013 C 
ATOM     48  H30 non d ame     -34.723  12.342  28.832  0.00  0.00     0.072 H 
BRANCH  47  49
ATOM     49  C21 non d ame     -32.706  12.896  28.356  0.00  0.00    -0.038 C 
ATOM     50  H31 non d ame     -32.036  12.084  28.071  0.00  0.00     0.036 H 
ATOM     51  H32 non d ame     -32.580  13.886  27.919  0.00  0.00     0.036 H 
BRANCH  49  52
ATOM     52  C22 non d ame     -32.556  13.069  29.883  0.00  0.00     0.018 C 
ATOM     53  H33 non d ame     -31.848  13.886  30.019  0.00  0.00     0.048 H 
ATOM     54  H34 non d ame     -33.571  13.157  30.271  0.00  0.00     0.048 H 
BRANCH  52  55
ATOM     55  C23 non d ame     -31.930  11.838  30.595  0.00  0.00     0.259 C 
ATOM     56  O7  non d ame     -30.801  11.865  30.965  0.00  0.00    -0.265 OA
BRANCH  55  57
ATOM     57  O8  non d ame     -32.718  10.670  30.789  0.00  0.00    -0.317 OA
BRANCH  57  58
ATOM     58  C29 non d ame     -33.991  10.921  31.393  0.00  0.00     0.052 C 
ATOM     59  H47 non d ame     -33.815  10.902  32.469  0.00  0.00     0.082 H 
ATOM     60  H48 non d ame     -34.369  11.826  30.919  0.00  0.00     0.082 H 
BRANCH  58  61
ATOM     61  C35 non d ame     -34.934   9.744  31.028  0.00  0.00    -0.034 A 
ATOM     62  C30 non d ame     -34.815   8.525  31.688  0.00  0.00    -0.075 A 
ATOM     63  C31 non d ame     -35.662   7.467  31.361  0.00  0.00    -0.082 A 
ATOM     64  H49 non d ame     -34.057   8.398  32.462  0.00  0.00     0.084 H 
ATOM     65  C32 non d ame     -36.629   7.631  30.366  0.00  0.00    -0.083 A 
ATOM     66  H50 non d ame     -35.567   6.514  31.881  0.00  0.00     0.083 H 
ATOM     67  C33 non d ame     -36.742   8.848  29.707  0.00  0.00    -0.082 A 
ATOM     68  H51 non d ame     -37.296   6.810  30.104  0.00  0.00     0.083 H 
ATOM     69  C34 non d ame     -35.899   9.908  30.033  0.00  0.00    -0.075 A 
ATOM     70  H52 non d ame     -37.497   8.972  28.930  0.00  0.00     0.083 H 
ATOM     71  H53 non d ame     -35.995  10.861  29.512  0.00  0.00     0.084 H 
ENDBRANCH  58  61
ENDBRANCH  57  58
ENDBRANCH  55  57
ENDBRANCH  52  55
ENDBRANCH  49  52
ENDBRANCH  47  49
BRANCH  47  72
ATOM     72  C24 non d ame     -33.995  11.111  27.209  0.00  0.00    -0.039 C 
ATOM     73  H35 non d ame     -34.251  10.350  27.947  0.00  0.00     0.036 H 
ATOM     74  H36 non d ame     -34.608  11.232  26.316  0.00  0.00     0.036 H 
BRANCH  72  75
ATOM     75  C25 non d ame     -32.500  10.811  26.720  0.00  0.00    -0.001 C 
ATOM     76  C26 non d ame     -32.355  11.156  25.118  0.00  0.00    -0.035 C 
ATOM     77  C27 non d ame     -31.809  10.087  24.490  0.00  0.00     0.085 C 
ATOM     78  H38 non d ame     -33.342  11.242  24.664  0.00  0.00     0.036 H 
ATOM     79  H39 non d ame     -31.616  11.943  24.971  0.00  0.00     0.036 H 
ATOM     80  N5  non d ame     -31.871   8.928  25.454  0.00  0.00    -0.049 N 
ATOM     81  H40 non d ame     -32.464   9.882  23.643  0.00  0.00     0.075 H 
ATOM     82  H41 non d ame     -30.766  10.352  24.319  0.00  0.00     0.075 H 
ATOM     83  C28 non d ame     -32.189   9.571  26.901  0.00  0.00     0.193 C 
ATOM     84  H42 non d ame     -32.659   8.363  25.173  0.00  0.00     0.280 HD
ATOM     85  H43 non d ame     -30.944   8.526  25.478  0.00  0.00     0.280 HD
ATOM     86  H44 non d ame     -31.401   9.671  27.648  0.00  0.00     0.129 H 
ATOM     87  H37 non d ame     -31.753  11.238  27.389  0.00  0.00     0.046 H 
BRANCH  83  88
ATOM     88  O6  non d ame     -33.235   8.841  27.545  0.00  0.00    -0.369 OA
ATOM     89  H45 non d ame     -33.251   7.941  27.211  0.00  0.00     0.212 HD
ENDBRANCH  83  88
ENDBRANCH  72  75
ENDBRANCH  47  72
ENDBRANCH  45  47
ENDBRANCH   1  43
BRANCH   1  90
ATOM     90  C16 non d ame     -36.371  14.260  24.430  0.00  0.00    -0.035 C 
ATOM     91  H21 non d ame     -36.277  15.255  23.997  0.00  0.00     0.037 H 
ATOM     92  H22 non d ame     -35.498  13.611  24.498  0.00  0.00     0.037 H 
BRANCH  90  93
ATOM     93  C17 non d ame     -37.420  13.498  23.558  0.00  0.00    -0.059 C 
ATOM     94  H23 non d ame     -37.107  12.455  23.501  0.00  0.00     0.038 H 
BRANCH  93  95
ATOM     95  C18 non d ame     -38.848  13.533  24.190  0.00  0.00    -0.073 C 
ATOM     96  H24 non d ame     -39.538  12.974  23.560  0.00  0.00     0.028 H 
ATOM     97  H25 non d ame     -38.818  13.084  25.183  0.00  0.00     0.028 H 
ATOM     98  H26 non d ame     -39.185  14.567  24.270  0.00  0.00     0.028 H 
ENDBRANCH  93  95
BRANCH  93  99
ATOM     99  C19 non d ame     -37.443  14.045  22.129  0.00  0.00    -0.073 C 
ATOM    100  H27 non d ame     -37.137  13.261  21.435  0.00  0.00     0.028 H 
ATOM    101  H28 non d ame     -38.452  14.375  21.882  0.00  0.00     0.028 H 
ATOM    102  H29 non d ame     -36.757  14.888  22.051  0.00  0.00     0.028 H 
ENDBRANCH  93  99
ENDBRANCH  90  93
ENDBRANCH   1  90
TORSDOF 26
ENDMDL
MODEL 14
REMARK VINA RESULT:      -6.0      2.903      6.159
REMARK  26 active torsions:
REMARK  status: ('A' for Active; 'I' for Inactive)
REMARK    1  A    between atoms: C2_2  and  C3_3 
REMARK    2  A    between atoms: C4_6  and  C5_7 
REMARK       I    between atoms: C5_7  and  N2_9 
REMARK    3  A    between atoms: N2_9  and  C6_10 
REMARK    4  A    between atoms: C6_10  and  C7_11 
REMARK    5  A    between atoms: C6_10  and  C8_13 
REMARK       I    between atoms: C7_11  and  N3_14 
REMARK    6  A    between atoms: N3_14  and  C9_15 
REMARK    7  A    between atoms: C9_15  and  C10_16 
REMARK    8  A    between atoms: C9_15  and  C11_18 
REMARK       I    between atoms: C10_16  and  N4_21 
REMARK    9  A    between atoms: C11_18  and  C12_19 
REMARK   10  A    between atoms: C11_18  and  C13_20 
REMARK   11  A    between atoms: N4_21  and  C14_22 
REMARK   12  A    between atoms: C14_22  and  C15_23 
REMARK   13  A    between atoms: C14_22  and  C16_25 
REMARK       I    between atoms: C15_23  and  N6_40 
REMARK   14  A    between atoms: C16_25  and  C17_26 
REMARK   15  A    between atoms: C17_26  and  C18_27 
REMARK   16  A    between atoms: C17_26  and  C19_28 
REMARK   17  A    between atoms: C20_29  and  C21_30 
REMARK   18  A    between atoms: C20_29  and  C24_33 
REMARK   19  A    between atoms: C20_29  and  N6_40 
REMARK   20  A    between atoms: C21_30  and  C22_31 
REMARK   21  A    between atoms: C22_31  and  C23_32 
REMARK   22  A    between atoms: C23_32  and  O8_43 
REMARK   23  A    between atoms: C24_33  and  C25_34 
REMARK   24  A    between atoms: C28_38  and  O6_39 
REMARK   25  A    between atoms: C29_42  and  O8_43 
REMARK   26  A    between atoms: C29_42  and  C35_49 
ROOT
ATOM      1  C14 non d ame     -36.918  13.527  25.851  0.00  0.00     0.089 C 
ATOM      2  H20 non d ame     -37.733  13.529  26.575  0.00  0.00     0.087 H 
ENDROOT
BRANCH   1   3
ATOM      3  N4  non d ame     -36.513  14.910  25.646  0.00  0.00    -0.346 N 
ATOM      4  C10 non d ame     -37.142  16.017  26.453  0.00  0.00     0.241 C 
ATOM      5  O4  non d ame     -37.976  15.770  27.262  0.00  0.00    -0.271 OA
ATOM      6  H19 non d ame     -35.803  15.099  24.951  0.00  0.00     0.163 HD
BRANCH   4   7
ATOM      7  C9  non d ame     -36.706  17.441  26.232  0.00  0.00     0.092 C 
ATOM      8  H11 non d ame     -37.066  18.058  27.055  0.00  0.00     0.088 H 
BRANCH   7   9
ATOM      9  N3  non d ame     -35.241  17.512  26.245  0.00  0.00    -0.346 N 
ATOM     10  C7  non d ame     -34.551  17.933  27.440  0.00  0.00     0.240 C 
ATOM     11  O3  non d ame     -35.159  18.219  28.398  0.00  0.00    -0.271 OA
ATOM     12  H10 non d ame     -34.704  17.269  25.425  0.00  0.00     0.163 HD
BRANCH  10  13
ATOM     13  C6  non d ame     -32.993  18.009  27.447  0.00  0.00     0.086 C 
ATOM     14  H6  non d ame     -32.541  17.332  28.172  0.00  0.00     0.086 H 
BRANCH  13  15
ATOM     15  N2  non d ame     -32.496  17.612  26.140  0.00  0.00    -0.343 N 
ATOM     16  C5  non d ame     -31.893  16.288  25.970  0.00  0.00     0.273 C 
ATOM     17  O2  non d ame     -31.810  15.551  26.890  0.00  0.00    -0.266 OA
ATOM     18  H5  non d ame     -32.568  18.249  25.360  0.00  0.00     0.163 HD
BRANCH  16  19
ATOM     19  C4  non d ame     -31.364  15.855  24.594  0.00  0.00     0.154 A 
ATOM     20  C1  non d ame     -30.694  14.632  24.271  0.00  0.00    -0.017 A 
ATOM     21  C2  non d ame     -30.420  14.722  22.888  0.00  0.00     0.077 A 
ATOM     22  H1  non d ame     -30.446  13.806  24.937  0.00  0.00     0.091 H 
ATOM     23  O1  non d ame     -30.883  15.866  22.475  0.00  0.00    -0.218 OA
ATOM     24  N1  non d ame     -31.438  16.544  23.452  0.00  0.00    -0.123 NA
BRANCH  21  25
ATOM     25  C3  non d ame     -29.714  13.674  22.038  0.00  0.00    -0.029 C 
ATOM     26  H2  non d ame     -30.343  13.409  21.190  0.00  0.00     0.036 H 
ATOM     27  H3  non d ame     -28.768  14.076  21.677  0.00  0.00     0.036 H 
ATOM     28  H4  non d ame     -29.523  12.786  22.641  0.00  0.00     0.036 H 
ENDBRANCH  21  25
ENDBRANCH  16  19
ENDBRANCH  13  15
BRANCH  13  29
ATOM     29  C8  non d ame     -32.558  19.418  27.759  0.00  0.00    -0.049 C 
ATOM     30  H7  non d ame     -31.472  19.451  27.851  0.00  0.00     0.030 H 
ATOM     31  H8  non d ame     -32.874  20.082  26.955  0.00  0.00     0.030 H 
ATOM     32  H9  non d ame     -33.012  19.740  28.697  0.00  0.00     0.030 H 
ENDBRANCH  13  29
ENDBRANCH  10  13
ENDBRANCH   7   9
BRANCH   7  33
ATOM     33  C11 non d ame     -37.234  17.936  24.853  0.00  0.00    -0.033 C 
ATOM     34  H12 non d ame     -36.811  17.287  24.087  0.00  0.00     0.042 H 
BRANCH  33  35
ATOM     35  C12 non d ame     -38.787  17.819  24.764  0.00  0.00    -0.071 C 
ATOM     36  H13 non d ame     -39.213  17.859  25.767  0.00  0.00     0.028 H 
ATOM     37  H14 non d ame     -39.180  18.643  24.170  0.00  0.00     0.028 H 
ATOM     38  H15 non d ame     -39.053  16.872  24.295  0.00  0.00     0.028 H 
ENDBRANCH  33  35
BRANCH  33  39
ATOM     39  C13 non d ame     -36.758  19.397  24.565  0.00  0.00    -0.071 C 
ATOM     40  H16 non d ame     -37.070  19.688  23.561  0.00  0.00     0.028 H 
ATOM     41  H17 non d ame     -37.202  20.074  25.295  0.00  0.00     0.028 H 
ATOM     42  H18 non d ame     -35.672  19.446  24.637  0.00  0.00     0.028 H 
ENDBRANCH  33  39
ENDBRANCH   7  33
ENDBRANCH   4   7
ENDBRANCH   1   3
BRANCH   1  43
ATOM     43  C15 non d ame     -35.688  12.719  26.353  0.00  0.00     0.240 C 
ATOM     44  O5  non d ame     -34.626  12.883  25.845  0.00  0.00    -0.271 OA
ATOM     45  N6  non d ame     -35.832  11.746  27.473  0.00  0.00    -0.355 N 
ATOM     46  H46 non d ame     -36.728  11.601  27.915  0.00  0.00     0.162 HD
BRANCH  45  47
ATOM     47  C20 non d ame     -34.652  10.986  27.940  0.00  0.00     0.013 C 
ATOM     48  H30 non d ame     -34.040  10.749  27.069  0.00  0.00     0.072 H 
BRANCH  47  49
ATOM     49  C21 non d ame     -35.111   9.712  28.612  0.00  0.00    -0.038 C 
ATOM     50  H31 non d ame     -35.504   9.083  27.813  0.00  0.00     0.036 H 
ATOM     51  H32 non d ame     -34.265   9.372  29.208  0.00  0.00     0.036 H 
BRANCH  49  52
ATOM     52  C22 non d ame     -36.276   9.942  29.599  0.00  0.00     0.018 C 
ATOM     53  H33 non d ame     -35.866   9.749  30.589  0.00  0.00     0.048 H 
ATOM     54  H34 non d ame     -36.679  10.926  29.357  0.00  0.00     0.048 H 
BRANCH  52  55
ATOM     55  C23 non d ame     -37.454   8.943  29.421  0.00  0.00     0.259 C 
ATOM     56  O7  non d ame     -38.452   9.070  30.052  0.00  0.00    -0.265 OA
BRANCH  55  57
ATOM     57  O8  non d ame     -37.320   7.864  28.504  0.00  0.00    -0.317 OA
BRANCH  57  58
ATOM     58  C29 non d ame     -37.640   6.585  29.058  0.00  0.00     0.052 C 
ATOM     59  H47 non d ame     -38.386   6.776  29.830  0.00  0.00     0.082 H 
ATOM     60  H48 non d ame     -37.886   5.949  28.209  0.00  0.00     0.082 H 
BRANCH  58  61
ATOM     61  C35 non d ame     -36.362   6.024  29.738  0.00  0.00    -0.034 A 
ATOM     62  C30 non d ame     -35.319   5.531  28.960  0.00  0.00    -0.075 A 
ATOM     63  C31 non d ame     -34.172   5.027  29.571  0.00  0.00    -0.082 A 
ATOM     64  H49 non d ame     -35.401   5.539  27.873  0.00  0.00     0.084 H 
ATOM     65  C32 non d ame     -34.071   5.015  30.964  0.00  0.00    -0.083 A 
ATOM     66  H50 non d ame     -33.355   4.643  28.959  0.00  0.00     0.083 H 
ATOM     67  C33 non d ame     -35.115   5.505  31.736  0.00  0.00    -0.082 A 
ATOM     68  H51 non d ame     -33.177   4.623  31.450  0.00  0.00     0.083 H 
ATOM     69  C34 non d ame     -36.263   6.012  31.130  0.00  0.00    -0.075 A 
ATOM     70  H52 non d ame     -35.034   5.492  32.823  0.00  0.00     0.083 H 
ATOM     71  H53 non d ame     -37.079   6.396  31.743  0.00  0.00     0.084 H 
ENDBRANCH  58  61
ENDBRANCH  57  58
ENDBRANCH  55  57
ENDBRANCH  52  55
ENDBRANCH  49  52
ENDBRANCH  47  49
BRANCH  47  72
ATOM     72  C24 non d ame     -33.855  11.829  28.934  0.00  0.00    -0.039 C 
ATOM     73  H35 non d ame     -33.810  12.827  28.498  0.00  0.00     0.036 H 
ATOM     74  H36 non d ame     -34.342  11.677  29.898  0.00  0.00     0.036 H 
BRANCH  72  75
ATOM     75  C25 non d ame     -32.348  11.307  29.079  0.00  0.00    -0.001 C 
ATOM     76  C26 non d ame     -31.856  11.442  30.642  0.00  0.00    -0.035 C 
ATOM     77  C27 non d ame     -30.672  12.100  30.672  0.00  0.00     0.085 C 
ATOM     78  H38 non d ame     -32.528  12.102  31.190  0.00  0.00     0.036 H 
ATOM     79  H39 non d ame     -31.611  10.459  31.044  0.00  0.00     0.036 H 
ATOM     80  N5  non d ame     -30.473  12.712  29.306  0.00  0.00    -0.049 N 
ATOM     81  H40 non d ame     -30.801  12.898  31.404  0.00  0.00     0.075 H 
ATOM     82  H41 non d ame     -29.916  11.332  30.830  0.00  0.00     0.075 H 
ATOM     83  C28 non d ame     -31.543  11.991  28.336  0.00  0.00     0.193 C 
ATOM     84  H42 non d ame     -30.722  13.687  29.391  0.00  0.00     0.280 HD
ATOM     85  H43 non d ame     -29.543  12.452  29.010  0.00  0.00     0.280 HD
ATOM     86  H44 non d ame     -31.222  11.223  27.632  0.00  0.00     0.129 H 
ATOM     87  H37 non d ame     -32.196  10.343  28.593  0.00  0.00     0.046 H 
BRANCH  83  88
ATOM     88  O6  non d ame     -32.231  12.965  27.551  0.00  0.00    -0.369 OA
ATOM     89  H45 non d ame     -32.602  13.638  28.127  0.00  0.00     0.212 HD
ENDBRANCH  83  88
ENDBRANCH  72  75
ENDBRANCH  47  72
ENDBRANCH  45  47
ENDBRANCH   1  43
BRANCH   1  90
ATOM     90  C16 non d ame     -37.404  12.952  24.530  0.00  0.00    -0.035 C 
ATOM     91  H21 non d ame     -36.571  13.072  23.839  0.00  0.00     0.037 H 
ATOM     92  H22 non d ame     -37.775  11.954  24.769  0.00  0.00     0.037 H 
BRANCH  90  93
ATOM     93  C17 non d ame     -38.607  13.732  23.911  0.00  0.00    -0.059 C 
ATOM     94  H23 non d ame     -38.900  14.506  24.621  0.00  0.00     0.038 H 
BRANCH  93  95
ATOM     95  C18 non d ame     -38.224  14.437  22.570  0.00  0.00    -0.073 C 
ATOM     96  H24 non d ame     -38.144  15.511  22.734  0.00  0.00     0.028 H 
ATOM     97  H25 non d ame     -37.268  14.052  22.217  0.00  0.00     0.028 H 
ATOM     98  H26 non d ame     -38.993  14.239  21.824  0.00  0.00     0.028 H 
ENDBRANCH  93  95
BRANCH  93  99
ATOM     99  C19 non d ame     -39.815  12.812  23.717  0.00  0.00    -0.073 C 
ATOM    100  H27 non d ame     -39.516  11.778  23.893  0.00  0.00     0.028 H 
ATOM    101  H28 non d ame     -40.599  13.088  24.422  0.00  0.00     0.028 H 
ATOM    102  H29 non d ame     -40.189  12.913  22.699  0.00  0.00     0.028 H 
ENDBRANCH  93  99
ENDBRANCH  90  93
ENDBRANCH   1  90
TORSDOF 26
ENDMDL
MODEL 15
REMARK VINA RESULT:      -5.9      2.621      8.303
REMARK  26 active torsions:
REMARK  status: ('A' for Active; 'I' for Inactive)
REMARK    1  A    between atoms: C2_2  and  C3_3 
REMARK    2  A    between atoms: C4_6  and  C5_7 
REMARK       I    between atoms: C5_7  and  N2_9 
REMARK    3  A    between atoms: N2_9  and  C6_10 
REMARK    4  A    between atoms: C6_10  and  C7_11 
REMARK    5  A    between atoms: C6_10  and  C8_13 
REMARK       I    between atoms: C7_11  and  N3_14 
REMARK    6  A    between atoms: N3_14  and  C9_15 
REMARK    7  A    between atoms: C9_15  and  C10_16 
REMARK    8  A    between atoms: C9_15  and  C11_18 
REMARK       I    between atoms: C10_16  and  N4_21 
REMARK    9  A    between atoms: C11_18  and  C12_19 
REMARK   10  A    between atoms: C11_18  and  C13_20 
REMARK   11  A    between atoms: N4_21  and  C14_22 
REMARK   12  A    between atoms: C14_22  and  C15_23 
REMARK   13  A    between atoms: C14_22  and  C16_25 
REMARK       I    between atoms: C15_23  and  N6_40 
REMARK   14  A    between atoms: C16_25  and  C17_26 
REMARK   15  A    between atoms: C17_26  and  C18_27 
REMARK   16  A    between atoms: C17_26  and  C19_28 
REMARK   17  A    between atoms: C20_29  and  C21_30 
REMARK   18  A    between atoms: C20_29  and  C24_33 
REMARK   19  A    between atoms: C20_29  and  N6_40 
REMARK   20  A    between atoms: C21_30  and  C22_31 
REMARK   21  A    between atoms: C22_31  and  C23_32 
REMARK   22  A    between atoms: C23_32  and  O8_43 
REMARK   23  A    between atoms: C24_33  and  C25_34 
REMARK   24  A    between atoms: C28_38  and  O6_39 
REMARK   25  A    between atoms: C29_42  and  O8_43 
REMARK   26  A    between atoms: C29_42  and  C35_49 
ROOT
ATOM      1  C14 non d ame     -36.082   8.637  28.680  0.00  0.00     0.089 C 
ATOM      2  H20 non d ame     -36.983   8.484  28.085  0.00  0.00     0.087 H 
ENDROOT
BRANCH   1   3
ATOM      3  N4  non d ame     -35.128   7.605  28.303  0.00  0.00    -0.346 N 
ATOM      4  C10 non d ame     -35.600   6.336  27.640  0.00  0.00     0.241 C 
ATOM      5  O4  non d ame     -36.754   6.166  27.422  0.00  0.00    -0.271 OA
ATOM      6  H19 non d ame     -34.150   7.768  28.499  0.00  0.00     0.163 HD
BRANCH   4   7
ATOM      7  C9  non d ame     -34.597   5.282  27.251  0.00  0.00     0.092 C 
ATOM      8  H11 non d ame     -35.015   4.296  27.456  0.00  0.00     0.088 H 
BRANCH   7   9
ATOM      9  N3  non d ame     -34.345   5.354  25.809  0.00  0.00    -0.346 N 
ATOM     10  C7  non d ame     -34.206   4.142  25.040  0.00  0.00     0.240 C 
ATOM     11  O3  non d ame     -34.292   3.100  25.566  0.00  0.00    -0.271 OA
ATOM     12  H10 non d ame     -34.267   6.246  25.341  0.00  0.00     0.163 HD
BRANCH  10  13
ATOM     13  C6  non d ame     -33.935   4.225  23.505  0.00  0.00     0.086 C 
ATOM     14  H6  non d ame     -34.816   4.521  22.937  0.00  0.00     0.086 H 
BRANCH  13  15
ATOM     15  N2  non d ame     -32.923   5.239  23.260  0.00  0.00    -0.343 N 
ATOM     16  C5  non d ame     -33.335   6.602  22.918  0.00  0.00     0.273 C 
ATOM     17  O2  non d ame     -34.483   6.872  22.841  0.00  0.00    -0.266 OA
ATOM     18  H5  non d ame     -31.944   4.999  23.326  0.00  0.00     0.163 HD
BRANCH  16  19
ATOM     19  C4  non d ame     -32.275   7.684  22.658  0.00  0.00     0.154 A 
ATOM     20  C1  non d ame     -32.066   8.887  23.404  0.00  0.00    -0.017 A 
ATOM     21  C2  non d ame     -30.983   9.529  22.764  0.00  0.00     0.077 A 
ATOM     22  H1  non d ame     -32.616   9.240  24.277  0.00  0.00     0.091 H 
ATOM     23  O1  non d ame     -30.619   8.774  21.768  0.00  0.00    -0.218 OA
ATOM     24  N1  non d ame     -31.359   7.692  21.686  0.00  0.00    -0.123 NA
BRANCH  21  25
ATOM     25  C3  non d ame     -30.356  10.857  23.166  0.00  0.00    -0.029 C 
ATOM     26  H2  non d ame     -30.891  11.267  24.022  0.00  0.00     0.036 H 
ATOM     27  H3  non d ame     -29.311  10.700  23.432  0.00  0.00     0.036 H 
ATOM     28  H4  non d ame     -30.418  11.555  22.331  0.00  0.00     0.036 H 
ENDBRANCH  21  25
ENDBRANCH  16  19
ENDBRANCH  13  15
BRANCH  13  29
ATOM     29  C8  non d ame     -33.458   2.886  23.003  0.00  0.00    -0.049 C 
ATOM     30  H7  non d ame     -34.236   2.429  22.392  0.00  0.00     0.030 H 
ATOM     31  H8  non d ame     -32.559   3.023  22.403  0.00  0.00     0.030 H 
ATOM     32  H9  non d ame     -33.234   2.239  23.851  0.00  0.00     0.030 H 
ENDBRANCH  13  29
ENDBRANCH  10  13
ENDBRANCH   7   9
BRANCH   7  33
ATOM     33  C11 non d ame     -33.265   5.524  28.020  0.00  0.00    -0.033 C 
ATOM     34  H12 non d ame     -33.465   6.258  28.801  0.00  0.00     0.042 H 
BRANCH  33  35
ATOM     35  C12 non d ame     -32.766   4.220  28.718  0.00  0.00    -0.071 C 
ATOM     36  H13 non d ame     -31.764   4.381  29.115  0.00  0.00     0.028 H 
ATOM     37  H14 non d ame     -33.443   3.963  29.532  0.00  0.00     0.028 H 
ATOM     38  H15 non d ame     -32.743   3.407  27.993  0.00  0.00     0.028 H 
ENDBRANCH  33  35
BRANCH  33  39
ATOM     39  C13 non d ame     -32.171   6.113  27.072  0.00  0.00    -0.071 C 
ATOM     40  H16 non d ame     -31.295   6.393  27.658  0.00  0.00     0.028 H 
ATOM     41  H17 non d ame     -31.890   5.364  26.332  0.00  0.00     0.028 H 
ATOM     42  H18 non d ame     -32.566   6.993  26.565  0.00  0.00     0.028 H 
ENDBRANCH  33  39
ENDBRANCH   7  33
ENDBRANCH   4   7
ENDBRANCH   1   3
BRANCH   1  43
ATOM     43  C15 non d ame     -35.437  10.028  28.421  0.00  0.00     0.240 C 
ATOM     44  O5  non d ame     -36.064  11.018  28.623  0.00  0.00    -0.271 OA
ATOM     45  N6  non d ame     -34.033  10.127  27.929  0.00  0.00    -0.355 N 
ATOM     46  H46 non d ame     -33.489   9.294  27.758  0.00  0.00     0.162 HD
BRANCH  45  47
ATOM     47  C20 non d ame     -33.433  11.458  27.689  0.00  0.00     0.013 C 
ATOM     48  H30 non d ame     -33.902  12.165  28.372  0.00  0.00     0.072 H 
BRANCH  47  49
ATOM     49  C21 non d ame     -33.693  11.872  26.258  0.00  0.00    -0.038 C 
ATOM     50  H31 non d ame     -32.709  12.014  25.809  0.00  0.00     0.036 H 
ATOM     51  H32 non d ame     -34.374  11.123  25.854  0.00  0.00     0.036 H 
BRANCH  49  52
ATOM     52  C22 non d ame     -34.422  13.229  26.150  0.00  0.00     0.018 C 
ATOM     53  H33 non d ame     -35.063  13.150  25.272  0.00  0.00     0.048 H 
ATOM     54  H34 non d ame     -34.861  13.407  27.132  0.00  0.00     0.048 H 
BRANCH  52  55
ATOM     55  C23 non d ame     -33.473  14.430  25.881  0.00  0.00     0.259 C 
ATOM     56  O7  non d ame     -33.785  15.529  26.207  0.00  0.00    -0.265 OA
BRANCH  55  57
ATOM     57  O8  non d ame     -32.231  14.203  25.227  0.00  0.00    -0.317 OA
BRANCH  57  58
ATOM     58  C29 non d ame     -31.442  15.383  25.050  0.00  0.00     0.052 C 
ATOM     59  H47 non d ame     -32.138  16.218  25.132  0.00  0.00     0.082 H 
ATOM     60  H48 non d ame     -30.614  15.293  25.754  0.00  0.00     0.082 H 
BRANCH  58  61
ATOM     61  C35 non d ame     -30.865  15.363  23.609  0.00  0.00    -0.034 A 
ATOM     62  C30 non d ame     -31.440  16.152  22.618  0.00  0.00    -0.075 A 
ATOM     63  C31 non d ame     -30.922  16.134  21.324  0.00  0.00    -0.082 A 
ATOM     64  H49 non d ame     -32.296  16.785  22.855  0.00  0.00     0.084 H 
ATOM     65  C32 non d ame     -29.827  15.320  21.022  0.00  0.00    -0.083 A 
ATOM     66  H50 non d ame     -31.374  16.755  20.549  0.00  0.00     0.083 H 
ATOM     67  C33 non d ame     -29.260  14.532  22.013  0.00  0.00    -0.082 A 
ATOM     68  H51 non d ame     -29.416  15.300  20.012  0.00  0.00     0.083 H 
ATOM     69  C34 non d ame     -29.772  14.548  23.309  0.00  0.00    -0.075 A 
ATOM     70  H52 non d ame     -28.407  13.896  21.774  0.00  0.00     0.083 H 
ATOM     71  H53 non d ame     -29.320  13.927  24.082  0.00  0.00     0.084 H 
ENDBRANCH  58  61
ENDBRANCH  57  58
ENDBRANCH  55  57
ENDBRANCH  52  55
ENDBRANCH  49  52
ENDBRANCH  47  49
BRANCH  47  72
ATOM     72  C24 non d ame     -31.927  11.398  27.937  0.00  0.00    -0.039 C 
ATOM     73  H35 non d ame     -31.750  10.432  28.411  0.00  0.00     0.036 H 
ATOM     74  H36 non d ame     -31.466  11.626  26.976  0.00  0.00     0.036 H 
BRANCH  72  75
ATOM     75  C25 non d ame     -31.452  12.526  28.970  0.00  0.00    -0.001 C 
ATOM     76  C26 non d ame     -32.760  13.308  29.587  0.00  0.00    -0.035 C 
ATOM     77  C27 non d ame     -32.578  14.642  29.445  0.00  0.00     0.085 C 
ATOM     78  H38 non d ame     -33.640  13.104  28.977  0.00  0.00     0.036 H 
ATOM     79  H39 non d ame     -32.803  13.170  30.668  0.00  0.00     0.036 H 
ATOM     80  N5  non d ame     -31.420  14.831  28.495  0.00  0.00    -0.049 N 
ATOM     81  H40 non d ame     -33.489  15.012  28.973  0.00  0.00     0.075 H 
ATOM     82  H41 non d ame     -32.291  15.004  30.431  0.00  0.00     0.075 H 
ATOM     83  C28 non d ame     -30.689  13.395  28.395  0.00  0.00     0.193 C 
ATOM     84  H42 non d ame     -31.821  15.052  27.595  0.00  0.00     0.280 HD
ATOM     85  H43 non d ame     -30.789  15.483  28.941  0.00  0.00     0.280 HD
ATOM     86  H44 non d ame     -29.751  13.213  28.919  0.00  0.00     0.129 H 
ATOM     87  H37 non d ame     -30.717  12.150  29.683  0.00  0.00     0.046 H 
BRANCH  83  88
ATOM     88  O6  non d ame     -30.434  13.067  27.028  0.00  0.00    -0.369 OA
ATOM     89  H45 non d ame     -29.511  12.820  26.925  0.00  0.00     0.212 HD
ENDBRANCH  83  88
ENDBRANCH  72  75
ENDBRANCH  47  72
ENDBRANCH  45  47
ENDBRANCH   1  43
BRANCH   1  90
ATOM     90  C16 non d ame     -36.411   8.493  30.158  0.00  0.00    -0.035 C 
ATOM     91  H21 non d ame     -35.680   7.785  30.548  0.00  0.00     0.037 H 
ATOM     92  H22 non d ame     -36.445   9.511  30.546  0.00  0.00     0.037 H 
BRANCH  90  93
ATOM     93  C17 non d ame     -37.817   7.869  30.429  0.00  0.00    -0.059 C 
ATOM     94  H23 non d ame     -38.357   7.848  29.483  0.00  0.00     0.038 H 
BRANCH  93  95
ATOM     95  C18 non d ame     -37.718   6.401  30.955  0.00  0.00    -0.073 C 
ATOM     96  H24 non d ame     -38.604   6.166  31.545  0.00  0.00     0.028 H 
ATOM     97  H25 non d ame     -37.654   5.716  30.110  0.00  0.00     0.028 H 
ATOM     98  H26 non d ame     -36.829   6.297  31.576  0.00  0.00     0.028 H 
ENDBRANCH  93  95
BRANCH  93  99
ATOM     99  C19 non d ame     -38.624   8.741  31.395  0.00  0.00    -0.073 C 
ATOM    100  H27 non d ame     -38.902   9.671  30.899  0.00  0.00     0.028 H 
ATOM    101  H28 non d ame     -39.525   8.208  31.700  0.00  0.00     0.028 H 
ATOM    102  H29 non d ame     -38.020   8.963  32.275  0.00  0.00     0.028 H 
ENDBRANCH  93  99
ENDBRANCH  90  93
ENDBRANCH   1  90
TORSDOF 26
ENDMDL
MODEL 16
REMARK VINA RESULT:      -5.9      3.372      6.075
REMARK  26 active torsions:
REMARK  status: ('A' for Active; 'I' for Inactive)
REMARK    1  A    between atoms: C2_2  and  C3_3 
REMARK    2  A    between atoms: C4_6  and  C5_7 
REMARK       I    between atoms: C5_7  and  N2_9 
REMARK    3  A    between atoms: N2_9  and  C6_10 
REMARK    4  A    between atoms: C6_10  and  C7_11 
REMARK    5  A    between atoms: C6_10  and  C8_13 
REMARK       I    between atoms: C7_11  and  N3_14 
REMARK    6  A    between atoms: N3_14  and  C9_15 
REMARK    7  A    between atoms: C9_15  and  C10_16 
REMARK    8  A    between atoms: C9_15  and  C11_18 
REMARK       I    between atoms: C10_16  and  N4_21 
REMARK    9  A    between atoms: C11_18  and  C12_19 
REMARK   10  A    between atoms: C11_18  and  C13_20 
REMARK   11  A    between atoms: N4_21  and  C14_22 
REMARK   12  A    between atoms: C14_22  and  C15_23 
REMARK   13  A    between atoms: C14_22  and  C16_25 
REMARK       I    between atoms: C15_23  and  N6_40 
REMARK   14  A    between atoms: C16_25  and  C17_26 
REMARK   15  A    between atoms: C17_26  and  C18_27 
REMARK   16  A    between atoms: C17_26  and  C19_28 
REMARK   17  A    between atoms: C20_29  and  C21_30 
REMARK   18  A    between atoms: C20_29  and  C24_33 
REMARK   19  A    between atoms: C20_29  and  N6_40 
REMARK   20  A    between atoms: C21_30  and  C22_31 
REMARK   21  A    between atoms: C22_31  and  C23_32 
REMARK   22  A    between atoms: C23_32  and  O8_43 
REMARK   23  A    between atoms: C24_33  and  C25_34 
REMARK   24  A    between atoms: C28_38  and  O6_39 
REMARK   25  A    between atoms: C29_42  and  O8_43 
REMARK   26  A    between atoms: C29_42  and  C35_49 
ROOT
ATOM      1  C14 non d ame     -36.084  13.396  25.992  0.00  0.00     0.089 C 
ATOM      2  H20 non d ame     -36.817  13.216  26.779  0.00  0.00     0.087 H 
ENDROOT
BRANCH   1   3
ATOM      3  N4  non d ame     -35.877  14.834  25.906  0.00  0.00    -0.346 N 
ATOM      4  C10 non d ame     -36.906  15.786  26.461  0.00  0.00     0.241 C 
ATOM      5  O4  non d ame     -37.895  15.371  26.970  0.00  0.00    -0.271 OA
ATOM      6  H19 non d ame     -35.030  15.166  25.467  0.00  0.00     0.163 HD
BRANCH   4   7
ATOM      7  C9  non d ame     -36.673  17.271  26.369  0.00  0.00     0.092 C 
ATOM      8  H11 non d ame     -36.916  17.732  27.326  0.00  0.00     0.088 H 
BRANCH   7   9
ATOM      9  N3  non d ame     -35.252  17.528  26.113  0.00  0.00    -0.346 N 
ATOM     10  C7  non d ame     -34.322  17.594  27.214  0.00  0.00     0.240 C 
ATOM     11  O3  non d ame     -34.700  17.444  28.311  0.00  0.00    -0.271 OA
ATOM     12  H10 non d ame     -34.912  17.661  25.172  0.00  0.00     0.163 HD
BRANCH  10  13
ATOM     13  C6  non d ame     -32.812  17.871  26.935  0.00  0.00     0.086 C 
ATOM     14  H6  non d ame     -32.156  17.418  27.678  0.00  0.00     0.086 H 
BRANCH  13  15
ATOM     15  N2  non d ame     -32.454  17.286  25.653  0.00  0.00    -0.343 N 
ATOM     16  C5  non d ame     -31.670  16.049  25.619  0.00  0.00     0.273 C 
ATOM     17  O2  non d ame     -31.330  15.535  26.627  0.00  0.00    -0.266 OA
ATOM     18  H5  non d ame     -32.747  17.734  24.796  0.00  0.00     0.163 HD
BRANCH  16  19
ATOM     19  C4  non d ame     -31.286  15.419  24.271  0.00  0.00     0.154 A 
ATOM     20  C1  non d ame     -31.113  16.091  23.020  0.00  0.00    -0.017 A 
ATOM     21  C2  non d ame     -30.766  15.073  22.104  0.00  0.00     0.077 A 
ATOM     22  H1  non d ame     -31.223  17.155  22.808  0.00  0.00     0.091 H 
ATOM     23  O1  non d ame     -30.743  13.951  22.763  0.00  0.00    -0.218 OA
ATOM     24  N1  non d ame     -31.044  14.127  24.029  0.00  0.00    -0.123 NA
BRANCH  21  25
ATOM     25  C3  non d ame     -30.471  15.255  20.622  0.00  0.00    -0.029 C 
ATOM     26  H2  non d ame     -30.596  14.303  20.106  0.00  0.00     0.036 H 
ATOM     27  H3  non d ame     -31.160  15.988  20.202  0.00  0.00     0.036 H 
ATOM     28  H4  non d ame     -29.447  15.606  20.495  0.00  0.00     0.036 H 
ENDBRANCH  21  25
ENDBRANCH  16  19
ENDBRANCH  13  15
BRANCH  13  29
ATOM     29  C8  non d ame     -32.567  19.358  26.910  0.00  0.00    -0.049 C 
ATOM     30  H7  non d ame     -33.023  19.816  27.788  0.00  0.00     0.030 H 
ATOM     31  H8  non d ame     -31.495  19.549  26.917  0.00  0.00     0.030 H 
ATOM     32  H9  non d ame     -33.007  19.784  26.008  0.00  0.00     0.030 H 
ENDBRANCH  13  29
ENDBRANCH  10  13
ENDBRANCH   7   9
BRANCH   7  33
ATOM     33  C11 non d ame     -37.522  17.858  25.203  0.00  0.00    -0.033 C 
ATOM     34  H12 non d ame     -38.561  17.877  25.531  0.00  0.00     0.042 H 
BRANCH  33  35
ATOM     35  C12 non d ame     -37.104  19.326  24.880  0.00  0.00    -0.071 C 
ATOM     36  H13 non d ame     -36.624  19.361  23.902  0.00  0.00     0.028 H 
ATOM     37  H14 non d ame     -37.989  19.962  24.872  0.00  0.00     0.028 H 
ATOM     38  H15 non d ame     -36.408  19.682  25.639  0.00  0.00     0.028 H 
ENDBRANCH  33  35
BRANCH  33  39
ATOM     39  C13 non d ame     -37.432  16.951  23.934  0.00  0.00    -0.071 C 
ATOM     40  H16 non d ame     -36.439  17.039  23.494  0.00  0.00     0.028 H 
ATOM     41  H17 non d ame     -37.614  15.913  24.216  0.00  0.00     0.028 H 
ATOM     42  H18 non d ame     -38.182  17.266  23.209  0.00  0.00     0.028 H 
ENDBRANCH  33  39
ENDBRANCH   7  33
ENDBRANCH   4   7
ENDBRANCH   1   3
BRANCH   1  43
ATOM     43  C15 non d ame     -34.718  12.716  26.296  0.00  0.00     0.240 C 
ATOM     44  O5  non d ame     -33.706  13.298  26.073  0.00  0.00    -0.271 OA
ATOM     45  N6  non d ame     -34.672  11.342  26.872  0.00  0.00    -0.355 N 
ATOM     46  H46 non d ame     -35.526  10.840  27.070  0.00  0.00     0.162 HD
BRANCH  45  47
ATOM     47  C20 non d ame     -33.366  10.710  27.156  0.00  0.00     0.013 C 
ATOM     48  H30 non d ame     -32.584  11.398  26.835  0.00  0.00     0.072 H 
BRANCH  47  49
ATOM     49  C21 non d ame     -33.261   9.412  26.387  0.00  0.00    -0.038 C 
ATOM     50  H31 non d ame     -32.193   9.224  26.271  0.00  0.00     0.036 H 
ATOM     51  H32 non d ame     -33.885   8.699  26.927  0.00  0.00     0.036 H 
BRANCH  49  52
ATOM     52  C22 non d ame     -33.844   9.512  24.961  0.00  0.00     0.018 C 
ATOM     53  H33 non d ame     -34.915   9.664  25.090  0.00  0.00     0.048 H 
ATOM     54  H34 non d ame     -33.244  10.265  24.449  0.00  0.00     0.048 H 
BRANCH  52  55
ATOM     55  C23 non d ame     -33.695   8.207  24.131  0.00  0.00     0.259 C 
ATOM     56  O7  non d ame     -34.653   7.659  23.691  0.00  0.00    -0.265 OA
BRANCH  55  57
ATOM     57  O8  non d ame     -32.398   7.666  23.912  0.00  0.00    -0.317 OA
BRANCH  57  58
ATOM     58  C29 non d ame     -31.813   8.043  22.662  0.00  0.00     0.052 C 
ATOM     59  H47 non d ame     -32.352   8.934  22.341  0.00  0.00     0.082 H 
ATOM     60  H48 non d ame     -30.739   8.091  22.842  0.00  0.00     0.082 H 
BRANCH  58  61
ATOM     61  C35 non d ame     -32.089   6.907  21.641  0.00  0.00    -0.034 A 
ATOM     62  C30 non d ame     -31.554   5.640  21.847  0.00  0.00    -0.075 A 
ATOM     63  C31 non d ame     -31.801   4.620  20.930  0.00  0.00    -0.082 A 
ATOM     64  H49 non d ame     -30.940   5.446  22.727  0.00  0.00     0.084 H 
ATOM     65  C32 non d ame     -32.586   4.871  19.801  0.00  0.00    -0.083 A 
ATOM     66  H50 non d ame     -31.382   3.627  21.096  0.00  0.00     0.083 H 
ATOM     67  C33 non d ame     -33.115   6.139  19.598  0.00  0.00    -0.082 A 
ATOM     68  H51 non d ame     -32.785   4.079  19.080  0.00  0.00     0.083 H 
ATOM     69  C34 non d ame     -32.872   7.161  20.513  0.00  0.00    -0.075 A 
ATOM     70  H52 non d ame     -33.724   6.333  18.715  0.00  0.00     0.083 H 
ATOM     71  H53 non d ame     -33.291   8.153  20.347  0.00  0.00     0.084 H 
ENDBRANCH  58  61
ENDBRANCH  57  58
ENDBRANCH  55  57
ENDBRANCH  52  55
ENDBRANCH  49  52
ENDBRANCH  47  49
BRANCH  47  72
ATOM     72  C24 non d ame     -33.243  10.427  28.652  0.00  0.00    -0.039 C 
ATOM     73  H35 non d ame     -34.248  10.159  28.980  0.00  0.00     0.036 H 
ATOM     74  H36 non d ame     -32.430   9.708  28.746  0.00  0.00     0.036 H 
BRANCH  72  75
ATOM     75  C25 non d ame     -32.813  11.737  29.469  0.00  0.00    -0.001 C 
ATOM     76  C26 non d ame     -31.418  12.349  28.851  0.00  0.00    -0.035 C 
ATOM     77  C27 non d ame     -30.536  12.532  29.863  0.00  0.00     0.085 C 
ATOM     78  H38 non d ame     -30.931  11.606  28.220  0.00  0.00     0.036 H 
ATOM     79  H39 non d ame     -31.587  13.358  28.475  0.00  0.00     0.036 H 
ATOM     80  N5  non d ame     -31.082  11.797  31.063  0.00  0.00    -0.049 N 
ATOM     81  H40 non d ame     -29.615  12.047  29.538  0.00  0.00     0.075 H 
ATOM     82  H41 non d ame     -30.545  13.602  30.068  0.00  0.00     0.075 H 
ATOM     83  C28 non d ame     -32.624  11.467  30.718  0.00  0.00     0.193 C 
ATOM     84  H42 non d ame     -30.572  10.927  31.122  0.00  0.00     0.280 HD
ATOM     85  H43 non d ame     -31.057  12.450  31.833  0.00  0.00     0.280 HD
ATOM     86  H44 non d ame     -33.429  12.047  31.170  0.00  0.00     0.129 H 
ATOM     87  H37 non d ame     -33.643  12.431  29.603  0.00  0.00     0.046 H 
BRANCH  83  88
ATOM     88  O6  non d ame     -32.917  10.103  31.026  0.00  0.00    -0.369 OA
ATOM     89  H45 non d ame     -33.850  10.016  31.237  0.00  0.00     0.212 HD
ENDBRANCH  83  88
ENDBRANCH  72  75
ENDBRANCH  47  72
ENDBRANCH  45  47
ENDBRANCH   1  43
BRANCH   1  90
ATOM     90  C16 non d ame     -36.622  12.892  24.662  0.00  0.00    -0.035 C 
ATOM     91  H21 non d ame     -36.196  13.554  23.909  0.00  0.00     0.037 H 
ATOM     92  H22 non d ame     -36.393  11.826  24.644  0.00  0.00     0.037 H 
BRANCH  90  93
ATOM     93  C17 non d ame     -38.173  13.012  24.528  0.00  0.00    -0.059 C 
ATOM     94  H23 non d ame     -38.500  13.821  25.182  0.00  0.00     0.038 H 
BRANCH  93  95
ATOM     95  C18 non d ame     -38.612  13.370  23.072  0.00  0.00    -0.073 C 
ATOM     96  H24 non d ame     -39.230  12.568  22.670  0.00  0.00     0.028 H 
ATOM     97  H25 non d ame     -39.184  14.298  23.082  0.00  0.00     0.028 H 
ATOM     98  H26 non d ame     -37.728  13.496  22.446  0.00  0.00     0.028 H 
ENDBRANCH  93  95
BRANCH  93  99
ATOM     99  C19 non d ame     -38.865  11.733  25.006  0.00  0.00    -0.073 C 
ATOM    100  H27 non d ame     -39.674  11.991  25.689  0.00  0.00     0.028 H 
ATOM    101  H28 non d ame     -39.270  11.196  24.148  0.00  0.00     0.028 H 
ATOM    102  H29 non d ame     -38.142  11.100  25.521  0.00  0.00     0.028 H 
ENDBRANCH  93  99
ENDBRANCH  90  93
ENDBRANCH   1  90
TORSDOF 26
ENDMDL
MODEL 17
REMARK VINA RESULT:      -5.8      2.756      4.964
REMARK  26 active torsions:
REMARK  status: ('A' for Active; 'I' for Inactive)
REMARK    1  A    between atoms: C2_2  and  C3_3 
REMARK    2  A    between atoms: C4_6  and  C5_7 
REMARK       I    between atoms: C5_7  and  N2_9 
REMARK    3  A    between atoms: N2_9  and  C6_10 
REMARK    4  A    between atoms: C6_10  and  C7_11 
REMARK    5  A    between atoms: C6_10  and  C8_13 
REMARK       I    between atoms: C7_11  and  N3_14 
REMARK    6  A    between atoms: N3_14  and  C9_15 
REMARK    7  A    between atoms: C9_15  and  C10_16 
REMARK    8  A    between atoms: C9_15  and  C11_18 
REMARK       I    between atoms: C10_16  and  N4_21 
REMARK    9  A    between atoms: C11_18  and  C12_19 
REMARK   10  A    between atoms: C11_18  and  C13_20 
REMARK   11  A    between atoms: N4_21  and  C14_22 
REMARK   12  A    between atoms: C14_22  and  C15_23 
REMARK   13  A    between atoms: C14_22  and  C16_25 
REMARK       I    between atoms: C15_23  and  N6_40 
REMARK   14  A    between atoms: C16_25  and  C17_26 
REMARK   15  A    between atoms: C17_26  and  C18_27 
REMARK   16  A    between atoms: C17_26  and  C19_28 
REMARK   17  A    between atoms: C20_29  and  C21_30 
REMARK   18  A    between atoms: C20_29  and  C24_33 
REMARK   19  A    between atoms: C20_29  and  N6_40 
REMARK   20  A    between atoms: C21_30  and  C22_31 
REMARK   21  A    between atoms: C22_31  and  C23_32 
REMARK   22  A    between atoms: C23_32  and  O8_43 
REMARK   23  A    between atoms: C24_33  and  C25_34 
REMARK   24  A    between atoms: C28_38  and  O6_39 
REMARK   25  A    between atoms: C29_42  and  O8_43 
REMARK   26  A    between atoms: C29_42  and  C35_49 
ROOT
ATOM      1  C14 non d ame     -36.304   9.947  29.021  0.00  0.00     0.089 C 
ATOM      2  H20 non d ame     -36.000   8.923  29.241  0.00  0.00     0.087 H 
ENDROOT
BRANCH   1   3
ATOM      3  N4  non d ame     -35.108  10.776  29.055  0.00  0.00    -0.346 N 
ATOM      4  C10 non d ame     -33.740  10.140  29.045  0.00  0.00     0.241 C 
ATOM      5  O4  non d ame     -33.628   8.959  29.013  0.00  0.00    -0.271 OA
ATOM      6  H19 non d ame     -35.225  11.779  29.084  0.00  0.00     0.163 HD
BRANCH   4   7
ATOM      7  C9  non d ame     -32.513  11.013  29.075  0.00  0.00     0.092 C 
ATOM      8  H11 non d ame     -31.723  10.540  28.493  0.00  0.00     0.088 H 
BRANCH   7   9
ATOM      9  N3  non d ame     -32.812  12.298  28.436  0.00  0.00    -0.346 N 
ATOM     10  C7  non d ame     -31.993  12.769  27.346  0.00  0.00     0.240 C 
ATOM     11  O3  non d ame     -31.089  12.126  26.971  0.00  0.00    -0.271 OA
ATOM     12  H10 non d ame     -33.587  12.864  28.750  0.00  0.00     0.163 HD
BRANCH  10  13
ATOM     13  C6  non d ame     -32.314  14.139  26.673  0.00  0.00     0.086 C 
ATOM     14  H6  non d ame     -31.838  14.979  27.178  0.00  0.00     0.086 H 
BRANCH  13  15
ATOM     15  N2  non d ame     -31.801  14.127  25.313  0.00  0.00    -0.343 N 
ATOM     16  C5  non d ame     -31.181  15.336  24.765  0.00  0.00     0.273 C 
ATOM     17  O2  non d ame     -31.101  16.313  25.426  0.00  0.00    -0.266 OA
ATOM     18  H5  non d ame     -31.875  13.289  24.754  0.00  0.00     0.163 HD
BRANCH  16  19
ATOM     19  C4  non d ame     -30.633  15.337  23.330  0.00  0.00     0.154 A 
ATOM     20  C1  non d ame     -31.380  15.490  22.119  0.00  0.00    -0.017 A 
ATOM     21  C2  non d ame     -30.418  15.420  21.087  0.00  0.00     0.077 A 
ATOM     22  H1  non d ame     -32.455  15.630  22.007  0.00  0.00     0.091 H 
ATOM     23  O1  non d ame     -29.258  15.249  21.649  0.00  0.00    -0.218 OA
ATOM     24  N1  non d ame     -29.357  15.197  22.957  0.00  0.00    -0.123 NA
BRANCH  21  25
ATOM     25  C3  non d ame     -30.691  15.528  19.592  0.00  0.00    -0.029 C 
ATOM     26  H2  non d ame     -29.768  15.781  19.072  0.00  0.00     0.036 H 
ATOM     27  H3  non d ame     -31.065  14.574  19.222  0.00  0.00     0.036 H 
ATOM     28  H4  non d ame     -31.434  16.304  19.413  0.00  0.00     0.036 H 
ENDBRANCH  21  25
ENDBRANCH  16  19
ENDBRANCH  13  15
BRANCH  13  29
ATOM     29  C8  non d ame     -33.805  14.359  26.660  0.00  0.00    -0.049 C 
ATOM     30  H7  non d ame     -34.283  13.578  26.069  0.00  0.00     0.030 H 
ATOM     31  H8  non d ame     -34.186  14.326  27.681  0.00  0.00     0.030 H 
ATOM     32  H9  non d ame     -34.026  15.332  26.222  0.00  0.00     0.030 H 
ENDBRANCH  13  29
ENDBRANCH  10  13
ENDBRANCH   7   9
BRANCH   7  33
ATOM     33  C11 non d ame     -32.086  11.258  30.552  0.00  0.00    -0.033 C 
ATOM     34  H12 non d ame     -31.534  10.379  30.884  0.00  0.00     0.042 H 
BRANCH  33  35
ATOM     35  C12 non d ame     -31.130  12.485  30.671  0.00  0.00    -0.071 C 
ATOM     36  H13 non d ame     -30.605  12.630  29.727  0.00  0.00     0.028 H 
ATOM     37  H14 non d ame     -31.711  13.377  30.905  0.00  0.00     0.028 H 
ATOM     38  H15 non d ame     -30.405  12.305  31.465  0.00  0.00     0.028 H 
ENDBRANCH  33  35
BRANCH  33  39
ATOM     39  C13 non d ame     -33.336  11.421  31.476  0.00  0.00    -0.071 C 
ATOM     40  H16 non d ame     -33.876  10.476  31.527  0.00  0.00     0.028 H 
ATOM     41  H17 non d ame     -33.013  11.710  32.476  0.00  0.00     0.028 H 
ATOM     42  H18 non d ame     -33.990  12.193  31.069  0.00  0.00     0.028 H 
ENDBRANCH  33  39
ENDBRANCH   7  33
ENDBRANCH   4   7
ENDBRANCH   1   3
BRANCH   1  43
ATOM     43  C15 non d ame     -36.957  10.077  27.616  0.00  0.00     0.240 C 
ATOM     44  O5  non d ame     -38.138   9.999  27.503  0.00  0.00    -0.271 OA
ATOM     45  N6  non d ame     -36.111  10.307  26.410  0.00  0.00    -0.355 N 
ATOM     46  H46 non d ame     -35.107  10.380  26.494  0.00  0.00     0.162 HD
BRANCH  45  47
ATOM     47  C20 non d ame     -36.747  10.430  25.081  0.00  0.00     0.013 C 
ATOM     48  H30 non d ame     -37.791  10.133  25.180  0.00  0.00     0.072 H 
BRANCH  47  49
ATOM     49  C21 non d ame     -36.041   9.519  24.103  0.00  0.00    -0.038 C 
ATOM     50  H31 non d ame     -36.479   9.735  23.128  0.00  0.00     0.036 H 
ATOM     51  H32 non d ame     -34.975   9.678  24.269  0.00  0.00     0.036 H 
BRANCH  49  52
ATOM     52  C22 non d ame     -36.307   8.023  24.378  0.00  0.00     0.018 C 
ATOM     53  H33 non d ame     -37.194   7.992  25.010  0.00  0.00     0.048 H 
ATOM     54  H34 non d ame     -36.318   7.540  23.400  0.00  0.00     0.048 H 
BRANCH  52  55
ATOM     55  C23 non d ame     -35.180   7.325  25.188  0.00  0.00     0.259 C 
ATOM     56  O7  non d ame     -35.184   6.146  25.336  0.00  0.00    -0.265 OA
BRANCH  55  57
ATOM     57  O8  non d ame     -34.146   8.113  25.765  0.00  0.00    -0.317 OA
BRANCH  57  58
ATOM     58  C29 non d ame     -32.866   7.474  25.780  0.00  0.00     0.052 C 
ATOM     59  H47 non d ame     -32.279   8.008  26.527  0.00  0.00     0.082 H 
ATOM     60  H48 non d ame     -33.068   6.411  25.904  0.00  0.00     0.082 H 
BRANCH  58  61
ATOM     61  C35 non d ame     -32.207   7.690  24.391  0.00  0.00    -0.034 A 
ATOM     62  C30 non d ame     -31.744   6.599  23.663  0.00  0.00    -0.075 A 
ATOM     63  C31 non d ame     -31.152   6.792  22.416  0.00  0.00    -0.082 A 
ATOM     64  H49 non d ame     -31.845   5.592  24.069  0.00  0.00     0.084 H 
ATOM     65  C32 non d ame     -31.021   8.083  21.898  0.00  0.00    -0.083 A 
ATOM     66  H50 non d ame     -30.792   5.935  21.847  0.00  0.00     0.083 H 
ATOM     67  C33 non d ame     -31.482   9.170  22.630  0.00  0.00    -0.082 A 
ATOM     68  H51 non d ame     -30.560   8.244  20.923  0.00  0.00     0.083 H 
ATOM     69  C34 non d ame     -32.076   8.981  23.876  0.00  0.00    -0.075 A 
ATOM     70  H52 non d ame     -31.376  10.176  22.224  0.00  0.00     0.083 H 
ATOM     71  H53 non d ame     -32.436   9.839  24.444  0.00  0.00     0.084 H 
ENDBRANCH  58  61
ENDBRANCH  57  58
ENDBRANCH  55  57
ENDBRANCH  52  55
ENDBRANCH  49  52
ENDBRANCH  47  49
BRANCH  47  72
ATOM     72  C24 non d ame     -36.650  11.874  24.593  0.00  0.00    -0.039 C 
ATOM     73  H35 non d ame     -36.116  12.410  25.378  0.00  0.00     0.036 H 
ATOM     74  H36 non d ame     -36.228  11.814  23.590  0.00  0.00     0.036 H 
BRANCH  72  75
ATOM     75  C25 non d ame     -38.096  12.552  24.458  0.00  0.00    -0.001 C 
ATOM     76  C26 non d ame     -39.243  11.390  24.263  0.00  0.00    -0.035 C 
ATOM     77  C27 non d ame     -39.997  11.700  23.181  0.00  0.00     0.085 C 
ATOM     78  H38 non d ame     -38.775  10.446  23.986  0.00  0.00     0.036 H 
ATOM     79  H39 non d ame     -39.955  11.425  25.088  0.00  0.00     0.036 H 
ATOM     80  N5  non d ame     -39.267  12.787  22.430  0.00  0.00    -0.049 N 
ATOM     81  H40 non d ame     -40.015  10.797  22.571  0.00  0.00     0.075 H 
ATOM     82  H41 non d ame     -40.926  12.106  23.580  0.00  0.00     0.075 H 
ATOM     83  C28 non d ame     -38.145  13.351  23.445  0.00  0.00     0.193 C 
ATOM     84  H42 non d ame     -38.802  12.337  21.654  0.00  0.00     0.280 HD
ATOM     85  H43 non d ame     -39.942  13.519  22.259  0.00  0.00     0.280 HD
ATOM     86  H44 non d ame     -38.285  14.306  23.951  0.00  0.00     0.129 H 
ATOM     87  H37 non d ame     -38.274  13.301  25.230  0.00  0.00     0.046 H 
BRANCH  83  88
ATOM     88  O6  non d ame     -36.885  13.454  22.778  0.00  0.00    -0.369 OA
ATOM     89  H45 non d ame     -36.640  14.379  22.698  0.00  0.00     0.212 HD
ENDBRANCH  83  88
ENDBRANCH  72  75
ENDBRANCH  47  72
ENDBRANCH  45  47
ENDBRANCH   1  43
BRANCH   1  90
ATOM     90  C16 non d ame     -37.275  10.435  30.084  0.00  0.00    -0.035 C 
ATOM     91  H21 non d ame     -36.813  11.324  30.511  0.00  0.00     0.037 H 
ATOM     92  H22 non d ame     -38.239  10.511  29.580  0.00  0.00     0.037 H 
BRANCH  90  93
ATOM     93  C17 non d ame     -37.471   9.430  31.263  0.00  0.00    -0.059 C 
ATOM     94  H23 non d ame     -37.906   9.980  32.098  0.00  0.00     0.038 H 
BRANCH  93  95
ATOM     95  C18 non d ame     -38.453   8.272  30.894  0.00  0.00    -0.073 C 
ATOM     96  H24 non d ame     -38.446   7.523  31.685  0.00  0.00     0.028 H 
ATOM     97  H25 non d ame     -39.461   8.672  30.782  0.00  0.00     0.028 H 
ATOM     98  H26 non d ame     -38.138   7.814  29.956  0.00  0.00     0.028 H 
ENDBRANCH  93  95
BRANCH  93  99
ATOM     99  C19 non d ame     -36.126   8.874  31.736  0.00  0.00    -0.073 C 
ATOM    100  H27 non d ame     -35.332   9.236  31.082  0.00  0.00     0.028 H 
ATOM    101  H28 non d ame     -35.934   9.204  32.757  0.00  0.00     0.028 H 
ATOM    102  H29 non d ame     -36.153   7.785  31.706  0.00  0.00     0.028 H 
ENDBRANCH  93  99
ENDBRANCH  90  93
ENDBRANCH   1  90
TORSDOF 26
ENDMDL
MODEL 18
REMARK VINA RESULT:      -5.7      3.619     10.209
REMARK  26 active torsions:
REMARK  status: ('A' for Active; 'I' for Inactive)
REMARK    1  A    between atoms: C2_2  and  C3_3 
REMARK    2  A    between atoms: C4_6  and  C5_7 
REMARK       I    between atoms: C5_7  and  N2_9 
REMARK    3  A    between atoms: N2_9  and  C6_10 
REMARK    4  A    between atoms: C6_10  and  C7_11 
REMARK    5  A    between atoms: C6_10  and  C8_13 
REMARK       I    between atoms: C7_11  and  N3_14 
REMARK    6  A    between atoms: N3_14  and  C9_15 
REMARK    7  A    between atoms: C9_15  and  C10_16 
REMARK    8  A    between atoms: C9_15  and  C11_18 
REMARK       I    between atoms: C10_16  and  N4_21 
REMARK    9  A    between atoms: C11_18  and  C12_19 
REMARK   10  A    between atoms: C11_18  and  C13_20 
REMARK   11  A    between atoms: N4_21  and  C14_22 
REMARK   12  A    between atoms: C14_22  and  C15_23 
REMARK   13  A    between atoms: C14_22  and  C16_25 
REMARK       I    between atoms: C15_23  and  N6_40 
REMARK   14  A    between atoms: C16_25  and  C17_26 
REMARK   15  A    between atoms: C17_26  and  C18_27 
REMARK   16  A    between atoms: C17_26  and  C19_28 
REMARK   17  A    between atoms: C20_29  and  C21_30 
REMARK   18  A    between atoms: C20_29  and  C24_33 
REMARK   19  A    between atoms: C20_29  and  N6_40 
REMARK   20  A    between atoms: C21_30  and  C22_31 
REMARK   21  A    between atoms: C22_31  and  C23_32 
REMARK   22  A    between atoms: C23_32  and  O8_43 
REMARK   23  A    between atoms: C24_33  and  C25_34 
REMARK   24  A    between atoms: C28_38  and  O6_39 
REMARK   25  A    between atoms: C29_42  and  O8_43 
REMARK   26  A    between atoms: C29_42  and  C35_49 
ROOT
ATOM      1  C14 non d ame     -30.920  13.423  24.457  0.00  0.00     0.089 C 
ATOM      2  H20 non d ame     -29.871  13.199  24.655  0.00  0.00     0.087 H 
ENDROOT
BRANCH   1   3
ATOM      3  N4  non d ame     -31.656  12.170  24.520  0.00  0.00    -0.346 N 
ATOM      4  C10 non d ame     -31.076  10.914  23.919  0.00  0.00     0.241 C 
ATOM      5  O4  non d ame     -30.015  10.938  23.387  0.00  0.00    -0.271 OA
ATOM      6  H19 non d ame     -32.558  12.171  24.975  0.00  0.00     0.163 HD
BRANCH   4   7
ATOM      7  C9  non d ame     -31.849   9.624  23.998  0.00  0.00     0.092 C 
ATOM      8  H11 non d ame     -31.473   9.032  24.832  0.00  0.00     0.088 H 
BRANCH   7   9
ATOM      9  N3  non d ame     -33.259   9.916  24.274  0.00  0.00    -0.346 N 
ATOM     10  C7  non d ame     -33.918   9.291  25.395  0.00  0.00     0.240 C 
ATOM     11  O3  non d ame     -33.329   8.550  26.084  0.00  0.00    -0.271 OA
ATOM     12  H10 non d ame     -33.781  10.552  23.688  0.00  0.00     0.163 HD
BRANCH  10  13
ATOM     13  C6  non d ame     -35.420   9.602  25.682  0.00  0.00     0.086 C 
ATOM     14  H6  non d ame     -36.057   8.722  25.598  0.00  0.00     0.086 H 
BRANCH  13  15
ATOM     15  N2  non d ame     -35.549  10.081  27.048  0.00  0.00    -0.343 N 
ATOM     16  C5  non d ame     -36.021   9.167  28.091  0.00  0.00     0.273 C 
ATOM     17  O2  non d ame     -36.297   8.050  27.819  0.00  0.00    -0.266 OA
ATOM     18  H5  non d ame     -35.314  11.038  27.271  0.00  0.00     0.163 HD
BRANCH  16  19
ATOM     19  C4  non d ame     -36.161   9.658  29.540  0.00  0.00     0.154 A 
ATOM     20  C1  non d ame     -35.191   9.553  30.586  0.00  0.00    -0.017 A 
ATOM     21  C2  non d ame     -35.802  10.151  31.711  0.00  0.00     0.077 A 
ATOM     22  H1  non d ame     -34.195   9.111  30.537  0.00  0.00     0.091 H 
ATOM     23  O1  non d ame     -36.984  10.550  31.342  0.00  0.00    -0.218 OA
ATOM     24  N1  non d ame     -37.217  10.274  30.080  0.00  0.00    -0.123 NA
BRANCH  21  25
ATOM     25  C3  non d ame     -35.190  10.301  33.097  0.00  0.00    -0.029 C 
ATOM     26  H2  non d ame     -34.301   9.674  33.172  0.00  0.00     0.036 H 
ATOM     27  H3  non d ame     -34.915  11.342  33.262  0.00  0.00     0.036 H 
ATOM     28  H4  non d ame     -35.915   9.993  33.850  0.00  0.00     0.036 H 
ENDBRANCH  21  25
ENDBRANCH  16  19
ENDBRANCH  13  15
BRANCH  13  29
ATOM     29  C8  non d ame     -35.911  10.653  24.718  0.00  0.00    -0.049 C 
ATOM     30  H7  non d ame     -35.069  11.258  24.380  0.00  0.00     0.030 H 
ATOM     31  H8  non d ame     -36.378  10.169  23.861  0.00  0.00     0.030 H 
ATOM     32  H9  non d ame     -36.640  11.292  25.218  0.00  0.00     0.030 H 
ENDBRANCH  13  29
ENDBRANCH  10  13
ENDBRANCH   7   9
BRANCH   7  33
ATOM     33  C11 non d ame     -31.735   8.867  22.643  0.00  0.00    -0.033 C 
ATOM     34  H12 non d ame     -31.259   9.539  21.930  0.00  0.00     0.042 H 
BRANCH  33  35
ATOM     35  C12 non d ame     -30.829   7.603  22.773  0.00  0.00    -0.071 C 
ATOM     36  H13 non d ame     -29.841   7.898  23.128  0.00  0.00     0.028 H 
ATOM     37  H14 non d ame     -31.276   6.907  23.482  0.00  0.00     0.028 H 
ATOM     38  H15 non d ame     -30.735   7.121  21.800  0.00  0.00     0.028 H 
ENDBRANCH  33  35
BRANCH  33  39
ATOM     39  C13 non d ame     -33.148   8.496  22.088  0.00  0.00    -0.071 C 
ATOM     40  H16 non d ame     -33.779   8.148  22.906  0.00  0.00     0.028 H 
ATOM     41  H17 non d ame     -33.600   9.375  21.628  0.00  0.00     0.028 H 
ATOM     42  H18 non d ame     -33.050   7.707  21.343  0.00  0.00     0.028 H 
ENDBRANCH  33  39
ENDBRANCH   7  33
ENDBRANCH   4   7
ENDBRANCH   1   3
BRANCH   1  43
ATOM     43  C15 non d ame     -31.519  14.403  25.505  0.00  0.00     0.240 C 
ATOM     44  O5  non d ame     -31.015  14.503  26.577  0.00  0.00    -0.271 OA
ATOM     45  N6  non d ame     -32.717  15.225  25.170  0.00  0.00    -0.355 N 
ATOM     46  H46 non d ame     -33.151  15.152  24.261  0.00  0.00     0.162 HD
BRANCH  45  47
ATOM     47  C20 non d ame     -33.275  16.153  26.178  0.00  0.00     0.013 C 
ATOM     48  H30 non d ame     -32.470  16.432  26.858  0.00  0.00     0.072 H 
BRANCH  47  49
ATOM     49  C21 non d ame     -34.379  15.458  26.941  0.00  0.00    -0.038 C 
ATOM     50  H31 non d ame     -35.077  15.097  26.185  0.00  0.00     0.036 H 
ATOM     51  H32 non d ame     -33.880  14.751  27.604  0.00  0.00     0.036 H 
BRANCH  49  52
ATOM     52  C22 non d ame     -35.177  16.419  27.848  0.00  0.00     0.018 C 
ATOM     53  H33 non d ame     -35.287  15.902  28.801  0.00  0.00     0.048 H 
ATOM     54  H34 non d ame     -34.652  17.373  27.803  0.00  0.00     0.048 H 
BRANCH  52  55
ATOM     55  C23 non d ame     -36.621  16.701  27.346  0.00  0.00     0.259 C 
ATOM     56  O7  non d ame     -37.412  15.819  27.258  0.00  0.00    -0.265 OA
BRANCH  55  57
ATOM     57  O8  non d ame     -36.984  18.026  26.979  0.00  0.00    -0.317 OA
BRANCH  57  58
ATOM     58  C29 non d ame     -38.209  18.477  27.565  0.00  0.00     0.052 C 
ATOM     59  H47 non d ame     -38.577  19.265  26.908  0.00  0.00     0.082 H 
ATOM     60  H48 non d ame     -38.806  17.580  27.728  0.00  0.00     0.082 H 
BRANCH  58  61
ATOM     61  C35 non d ame     -37.878  19.103  28.946  0.00  0.00    -0.034 A 
ATOM     62  C30 non d ame     -38.479  18.607  30.098  0.00  0.00    -0.075 A 
ATOM     63  C31 non d ame     -38.182  19.169  31.339  0.00  0.00    -0.082 A 
ATOM     64  H49 non d ame     -39.184  17.778  30.029  0.00  0.00     0.084 H 
ATOM     65  C32 non d ame     -37.281  20.234  31.424  0.00  0.00    -0.083 A 
ATOM     66  H50 non d ame     -38.654  18.777  32.240  0.00  0.00     0.083 H 
ATOM     67  C33 non d ame     -36.685  20.727  30.271  0.00  0.00    -0.082 A 
ATOM     68  H51 non d ame     -37.042  20.679  32.390  0.00  0.00     0.083 H 
ATOM     69  C34 non d ame     -36.978  20.167  29.030  0.00  0.00    -0.075 A 
ATOM     70  H52 non d ame     -35.984  21.560  30.341  0.00  0.00     0.083 H 
ATOM     71  H53 non d ame     -36.505  20.560  28.129  0.00  0.00     0.084 H 
ENDBRANCH  58  61
ENDBRANCH  57  58
ENDBRANCH  55  57
ENDBRANCH  52  55
ENDBRANCH  49  52
ENDBRANCH  47  49
BRANCH  47  72
ATOM     72  C24 non d ame     -33.836  17.392  25.484  0.00  0.00    -0.039 C 
ATOM     73  H35 non d ame     -33.724  17.203  24.416  0.00  0.00     0.036 H 
ATOM     74  H36 non d ame     -34.828  17.539  25.910  0.00  0.00     0.036 H 
BRANCH  72  75
ATOM     75  C25 non d ame     -32.977  18.702  25.823  0.00  0.00    -0.001 C 
ATOM     76  C26 non d ame     -32.280  18.545  27.305  0.00  0.00    -0.035 C 
ATOM     77  C27 non d ame     -32.566  19.646  28.040  0.00  0.00     0.085 C 
ATOM     78  H38 non d ame     -32.757  17.737  27.859  0.00  0.00     0.036 H 
ATOM     79  H39 non d ame     -31.194  18.576  27.212  0.00  0.00     0.036 H 
ATOM     80  N5  non d ame     -33.663  20.388  27.316  0.00  0.00    -0.049 N 
ATOM     81  H40 non d ame     -32.956  19.271  28.986  0.00  0.00     0.075 H 
ATOM     82  H41 non d ame     -31.660  20.250  28.025  0.00  0.00     0.075 H 
ATOM     83  C28 non d ame     -33.719  19.758  25.830  0.00  0.00     0.193 C 
ATOM     84  H42 non d ame     -34.524  20.163  27.793  0.00  0.00     0.280 HD
ATOM     85  H43 non d ame     -33.360  21.349  27.247  0.00  0.00     0.280 HD
ATOM     86  H44 non d ame     -33.299  20.301  24.983  0.00  0.00     0.129 H 
ATOM     87  H37 non d ame     -32.328  18.995  24.998  0.00  0.00     0.046 H 
BRANCH  83  88
ATOM     88  O6  non d ame     -35.071  19.471  25.467  0.00  0.00    -0.369 OA
ATOM     89  H45 non d ame     -35.507  19.018  26.193  0.00  0.00     0.212 HD
ENDBRANCH  83  88
ENDBRANCH  72  75
ENDBRANCH  47  72
ENDBRANCH  45  47
ENDBRANCH   1  43
BRANCH   1  90
ATOM     90  C16 non d ame     -31.065  14.014  23.063  0.00  0.00    -0.035 C 
ATOM     91  H21 non d ame     -30.589  13.297  22.395  0.00  0.00     0.037 H 
ATOM     92  H22 non d ame     -32.125  14.240  22.955  0.00  0.00     0.037 H 
BRANCH  90  93
ATOM     93  C17 non d ame     -30.304  15.365  22.873  0.00  0.00    -0.059 C 
ATOM     94  H23 non d ame     -30.279  15.870  23.839  0.00  0.00     0.038 H 
BRANCH  93  95
ATOM     95  C18 non d ame     -28.827  15.149  22.411  0.00  0.00    -0.073 C 
ATOM     96  H24 non d ame     -28.153  15.660  23.098  0.00  0.00     0.028 H 
ATOM     97  H25 non d ame     -28.600  14.084  22.405  0.00  0.00     0.028 H 
ATOM     98  H26 non d ame     -28.697  15.554  21.408  0.00  0.00     0.028 H 
ENDBRANCH  93  95
BRANCH  93  99
ATOM     99  C19 non d ame     -31.050  16.281  21.900  0.00  0.00    -0.073 C 
ATOM    100  H27 non d ame     -30.417  17.129  21.641  0.00  0.00     0.028 H 
ATOM    101  H28 non d ame     -31.301  15.725  20.996  0.00  0.00     0.028 H 
ATOM    102  H29 non d ame     -31.966  16.641  22.369  0.00  0.00     0.028 H 
ENDBRANCH  93  99
ENDBRANCH  90  93
ENDBRANCH   1  90
TORSDOF 26
ENDMDL
MODEL 19
REMARK VINA RESULT:      -5.7      2.660      9.689
REMARK  26 active torsions:
REMARK  status: ('A' for Active; 'I' for Inactive)
REMARK    1  A    between atoms: C2_2  and  C3_3 
REMARK    2  A    between atoms: C4_6  and  C5_7 
REMARK       I    between atoms: C5_7  and  N2_9 
REMARK    3  A    between atoms: N2_9  and  C6_10 
REMARK    4  A    between atoms: C6_10  and  C7_11 
REMARK    5  A    between atoms: C6_10  and  C8_13 
REMARK       I    between atoms: C7_11  and  N3_14 
REMARK    6  A    between atoms: N3_14  and  C9_15 
REMARK    7  A    between atoms: C9_15  and  C10_16 
REMARK    8  A    between atoms: C9_15  and  C11_18 
REMARK       I    between atoms: C10_16  and  N4_21 
REMARK    9  A    between atoms: C11_18  and  C12_19 
REMARK   10  A    between atoms: C11_18  and  C13_20 
REMARK   11  A    between atoms: N4_21  and  C14_22 
REMARK   12  A    between atoms: C14_22  and  C15_23 
REMARK   13  A    between atoms: C14_22  and  C16_25 
REMARK       I    between atoms: C15_23  and  N6_40 
REMARK   14  A    between atoms: C16_25  and  C17_26 
REMARK   15  A    between atoms: C17_26  and  C18_27 
REMARK   16  A    between atoms: C17_26  and  C19_28 
REMARK   17  A    between atoms: C20_29  and  C21_30 
REMARK   18  A    between atoms: C20_29  and  C24_33 
REMARK   19  A    between atoms: C20_29  and  N6_40 
REMARK   20  A    between atoms: C21_30  and  C22_31 
REMARK   21  A    between atoms: C22_31  and  C23_32 
REMARK   22  A    between atoms: C23_32  and  O8_43 
REMARK   23  A    between atoms: C24_33  and  C25_34 
REMARK   24  A    between atoms: C28_38  and  O6_39 
REMARK   25  A    between atoms: C29_42  and  O8_43 
REMARK   26  A    between atoms: C29_42  and  C35_49 
ROOT
ATOM      1  C14 non d ame     -35.161  12.136  26.396  0.00  0.00     0.089 C 
ATOM      2  H20 non d ame     -35.645  11.756  25.496  0.00  0.00     0.087 H 
ENDROOT
BRANCH   1   3
ATOM      3  N4  non d ame     -35.521  11.252  27.495  0.00  0.00    -0.346 N 
ATOM      4  C10 non d ame     -36.767  10.407  27.415  0.00  0.00     0.241 C 
ATOM      5  O4  non d ame     -37.467  10.458  26.458  0.00  0.00    -0.271 OA
ATOM      6  H19 non d ame     -34.914  11.225  28.302  0.00  0.00     0.163 HD
BRANCH   4   7
ATOM      7  C9  non d ame     -37.122   9.493  28.559  0.00  0.00     0.092 C 
ATOM      8  H11 non d ame     -38.114   9.075  28.390  0.00  0.00     0.088 H 
BRANCH   7   9
ATOM      9  N3  non d ame     -36.179   8.371  28.598  0.00  0.00    -0.346 N 
ATOM     10  C7  non d ame     -36.529   7.115  27.981  0.00  0.00     0.240 C 
ATOM     11  O3  non d ame     -37.565   6.990  27.450  0.00  0.00    -0.271 OA
ATOM     12  H10 non d ame     -35.283   8.463  29.054  0.00  0.00     0.163 HD
BRANCH  10  13
ATOM     13  C6  non d ame     -35.524   5.923  28.028  0.00  0.00     0.086 C 
ATOM     14  H6  non d ame     -35.926   5.014  27.582  0.00  0.00     0.086 H 
BRANCH  13  15
ATOM     15  N2  non d ame     -34.340   6.274  27.261  0.00  0.00    -0.343 N 
ATOM     16  C5  non d ame     -34.360   6.141  25.803  0.00  0.00     0.273 C 
ATOM     17  O2  non d ame     -35.332   5.748  25.257  0.00  0.00    -0.266 OA
ATOM     18  H5  non d ame     -33.513   6.606  27.737  0.00  0.00     0.163 HD
BRANCH  16  19
ATOM     19  C4  non d ame     -33.116   6.510  24.979  0.00  0.00     0.154 A 
ATOM     20  C1  non d ame     -33.005   7.546  23.998  0.00  0.00    -0.017 A 
ATOM     21  C2  non d ame     -31.670   7.471  23.541  0.00  0.00     0.077 A 
ATOM     22  H1  non d ame     -33.774   8.244  23.669  0.00  0.00     0.091 H 
ATOM     23  O1  non d ame     -31.092   6.504  24.190  0.00  0.00    -0.218 OA
ATOM     24  N1  non d ame     -31.915   5.928  25.035  0.00  0.00    -0.123 NA
BRANCH  21  25
ATOM     25  C3  non d ame     -31.029   8.360  22.484  0.00  0.00    -0.029 C 
ATOM     26  H2  non d ame     -31.523   9.331  22.476  0.00  0.00     0.036 H 
ATOM     27  H3  non d ame     -29.972   8.492  22.713  0.00  0.00     0.036 H 
ATOM     28  H4  non d ame     -31.132   7.892  21.504  0.00  0.00     0.036 H 
ENDBRANCH  21  25
ENDBRANCH  16  19
ENDBRANCH  13  15
BRANCH  13  29
ATOM     29  C8  non d ame     -35.146   5.637  29.460  0.00  0.00    -0.049 C 
ATOM     30  H7  non d ame     -35.538   6.425  30.103  0.00  0.00     0.030 H 
ATOM     31  H8  non d ame     -35.567   4.679  29.762  0.00  0.00     0.030 H 
ATOM     32  H9  non d ame     -34.060   5.602  29.549  0.00  0.00     0.030 H 
ENDBRANCH  13  29
ENDBRANCH  10  13
ENDBRANCH   7   9
BRANCH   7  33
ATOM     33  C11 non d ame     -37.039  10.283  29.898  0.00  0.00    -0.033 C 
ATOM     34  H12 non d ame     -36.600  11.256  29.679  0.00  0.00     0.042 H 
BRANCH  33  35
ATOM     35  C12 non d ame     -38.457  10.532  30.499  0.00  0.00    -0.071 C 
ATOM     36  H13 non d ame     -38.410  11.355  31.213  0.00  0.00     0.028 H 
ATOM     37  H14 non d ame     -39.152  10.786  29.699  0.00  0.00     0.028 H 
ATOM     38  H15 non d ame     -38.800   9.631  31.007  0.00  0.00     0.028 H 
ENDBRANCH  33  35
BRANCH  33  39
ATOM     39  C13 non d ame     -36.110   9.553  30.921  0.00  0.00    -0.071 C 
ATOM     40  H16 non d ame     -36.715   9.136  31.727  0.00  0.00     0.028 H 
ATOM     41  H17 non d ame     -35.573   8.750  30.416  0.00  0.00     0.028 H 
ATOM     42  H18 non d ame     -35.394  10.264  31.333  0.00  0.00     0.028 H 
ENDBRANCH  33  39
ENDBRANCH   7  33
ENDBRANCH   4   7
ENDBRANCH   1   3
BRANCH   1  43
ATOM     43  C15 non d ame     -33.611  12.158  26.265  0.00  0.00     0.240 C 
ATOM     44  O5  non d ame     -32.959  11.344  26.834  0.00  0.00    -0.271 OA
ATOM     45  N6  non d ame     -32.941  13.188  25.421  0.00  0.00    -0.355 N 
ATOM     46  H46 non d ame     -33.485  13.881  24.929  0.00  0.00     0.162 HD
BRANCH  45  47
ATOM     47  C20 non d ame     -31.466  13.194  25.306  0.00  0.00     0.013 C 
ATOM     48  H30 non d ame     -31.093  12.261  25.728  0.00  0.00     0.072 H 
BRANCH  47  49
ATOM     49  C21 non d ame     -30.910  14.369  26.077  0.00  0.00    -0.038 C 
ATOM     50  H31 non d ame     -29.928  14.566  25.646  0.00  0.00     0.036 H 
ATOM     51  H32 non d ame     -31.684  15.136  26.044  0.00  0.00     0.036 H 
BRANCH  49  52
ATOM     52  C22 non d ame     -30.675  14.049  27.569  0.00  0.00     0.018 C 
ATOM     53  H33 non d ame     -30.507  12.974  27.618  0.00  0.00     0.048 H 
ATOM     54  H34 non d ame     -29.896  14.738  27.900  0.00  0.00     0.048 H 
BRANCH  52  55
ATOM     55  C23 non d ame     -31.908  14.332  28.472  0.00  0.00     0.259 C 
ATOM     56  O7  non d ame     -32.055  13.743  29.494  0.00  0.00    -0.265 OA
BRANCH  55  57
ATOM     57  O8  non d ame     -32.869  15.295  28.057  0.00  0.00    -0.317 OA
BRANCH  57  58
ATOM     58  C29 non d ame     -32.756  16.555  28.724  0.00  0.00     0.052 C 
ATOM     59  H47 non d ame     -33.602  16.603  29.410  0.00  0.00     0.082 H 
ATOM     60  H48 non d ame     -31.738  16.594  29.111  0.00  0.00     0.082 H 
BRANCH  58  61
ATOM     61  C35 non d ame     -32.921  17.675  27.663  0.00  0.00    -0.034 A 
ATOM     62  C30 non d ame     -32.816  19.011  28.037  0.00  0.00    -0.075 A 
ATOM     63  C31 non d ame     -32.964  20.017  27.084  0.00  0.00    -0.082 A 
ATOM     64  H49 non d ame     -32.618  19.269  29.078  0.00  0.00     0.084 H 
ATOM     65  C32 non d ame     -33.221  19.684  25.751  0.00  0.00    -0.083 A 
ATOM     66  H50 non d ame     -32.880  21.063  27.380  0.00  0.00     0.083 H 
ATOM     67  C33 non d ame     -33.328  18.349  25.383  0.00  0.00    -0.082 A 
ATOM     68  H51 non d ame     -33.337  20.464  24.999  0.00  0.00     0.083 H 
ATOM     69  C34 non d ame     -33.178  17.340  26.332  0.00  0.00    -0.075 A 
ATOM     70  H52 non d ame     -33.530  18.092  24.343  0.00  0.00     0.083 H 
ATOM     71  H53 non d ame     -33.263  16.295  26.034  0.00  0.00     0.084 H 
ENDBRANCH  58  61
ENDBRANCH  57  58
ENDBRANCH  55  57
ENDBRANCH  52  55
ENDBRANCH  49  52
ENDBRANCH  47  49
BRANCH  47  72
ATOM     72  C24 non d ame     -31.064  13.311  23.837  0.00  0.00    -0.039 C 
ATOM     73  H35 non d ame     -30.292  12.556  23.687  0.00  0.00     0.036 H 
ATOM     74  H36 non d ame     -31.997  13.256  23.276  0.00  0.00     0.036 H 
BRANCH  72  75
ATOM     75  C25 non d ame     -30.402  14.734  23.516  0.00  0.00    -0.001 C 
ATOM     76  C26 non d ame     -31.534  15.749  22.888  0.00  0.00    -0.035 C 
ATOM     77  C27 non d ame     -31.053  16.282  21.739  0.00  0.00     0.085 C 
ATOM     78  H38 non d ame     -32.405  15.182  22.561  0.00  0.00     0.036 H 
ATOM     79  H39 non d ame     -31.660  16.616  23.537  0.00  0.00     0.036 H 
ATOM     80  N5  non d ame     -29.836  15.476  21.355  0.00  0.00    -0.049 N 
ATOM     81  H40 non d ame     -31.834  16.123  20.996  0.00  0.00     0.075 H 
ATOM     82  H41 non d ame     -30.743  17.294  21.995  0.00  0.00     0.075 H 
ATOM     83  C28 non d ame     -29.438  14.620  22.664  0.00  0.00     0.193 C 
ATOM     84  H42 non d ame     -30.132  14.838  20.630  0.00  0.00     0.280 HD
ATOM     85  H43 non d ame     -29.099  16.143  21.170  0.00  0.00     0.280 HD
ATOM     86  H44 non d ame     -28.591  14.915  23.283  0.00  0.00     0.129 H 
ATOM     87  H37 non d ame     -29.806  15.110  24.347  0.00  0.00     0.046 H 
BRANCH  83  88
ATOM     88  O6  non d ame     -29.194  13.258  22.307  0.00  0.00    -0.369 OA
ATOM     89  H45 non d ame     -29.385  12.691  23.058  0.00  0.00     0.212 HD
ENDBRANCH  83  88
ENDBRANCH  72  75
ENDBRANCH  47  72
ENDBRANCH  45  47
ENDBRANCH   1  43
BRANCH   1  90
ATOM     90  C16 non d ame     -35.668  13.537  26.700  0.00  0.00    -0.035 C 
ATOM     91  H21 non d ame     -36.289  13.433  27.590  0.00  0.00     0.037 H 
ATOM     92  H22 non d ame     -34.778  14.166  26.728  0.00  0.00     0.037 H 
BRANCH  90  93
ATOM     93  C17 non d ame     -36.590  14.126  25.586  0.00  0.00    -0.059 C 
ATOM     94  H23 non d ame     -37.564  14.324  26.033  0.00  0.00     0.038 H 
BRANCH  93  95
ATOM     95  C18 non d ame     -36.042  15.474  25.018  0.00  0.00    -0.073 C 
ATOM     96  H24 non d ame     -35.368  15.272  24.187  0.00  0.00     0.028 H 
ATOM     97  H25 non d ame     -36.873  16.087  24.671  0.00  0.00     0.028 H 
ATOM     98  H26 non d ame     -35.503  16.005  25.802  0.00  0.00     0.028 H 
ENDBRANCH  93  95
BRANCH  93  99
ATOM     99  C19 non d ame     -36.806  13.109  24.461  0.00  0.00    -0.073 C 
ATOM    100  H27 non d ame     -35.842  12.711  24.141  0.00  0.00     0.028 H 
ATOM    101  H28 non d ame     -37.433  12.294  24.823  0.00  0.00     0.028 H 
ATOM    102  H29 non d ame     -37.295  13.597  23.619  0.00  0.00     0.028 H 
ENDBRANCH  93  99
ENDBRANCH  90  93
ENDBRANCH   1  90
TORSDOF 26
ENDMDL
MODEL 20
REMARK VINA RESULT:      -5.7      2.555      5.126
REMARK  26 active torsions:
REMARK  status: ('A' for Active; 'I' for Inactive)
REMARK    1  A    between atoms: C2_2  and  C3_3 
REMARK    2  A    between atoms: C4_6  and  C5_7 
REMARK       I    between atoms: C5_7  and  N2_9 
REMARK    3  A    between atoms: N2_9  and  C6_10 
REMARK    4  A    between atoms: C6_10  and  C7_11 
REMARK    5  A    between atoms: C6_10  and  C8_13 
REMARK       I    between atoms: C7_11  and  N3_14 
REMARK    6  A    between atoms: N3_14  and  C9_15 
REMARK    7  A    between atoms: C9_15  and  C10_16 
REMARK    8  A    between atoms: C9_15  and  C11_18 
REMARK       I    between atoms: C10_16  and  N4_21 
REMARK    9  A    between atoms: C11_18  and  C12_19 
REMARK   10  A    between atoms: C11_18  and  C13_20 
REMARK   11  A    between atoms: N4_21  and  C14_22 
REMARK   12  A    between atoms: C14_22  and  C15_23 
REMARK   13  A    between atoms: C14_22  and  C16_25 
REMARK       I    between atoms: C15_23  and  N6_40 
REMARK   14  A    between atoms: C16_25  and  C17_26 
REMARK   15  A    between atoms: C17_26  and  C18_27 
REMARK   16  A    between atoms: C17_26  and  C19_28 
REMARK   17  A    between atoms: C20_29  and  C21_30 
REMARK   18  A    between atoms: C20_29  and  C24_33 
REMARK   19  A    between atoms: C20_29  and  N6_40 
REMARK   20  A    between atoms: C21_30  and  C22_31 
REMARK   21  A    between atoms: C22_31  and  C23_32 
REMARK   22  A    between atoms: C23_32  and  O8_43 
REMARK   23  A    between atoms: C24_33  and  C25_34 
REMARK   24  A    between atoms: C28_38  and  O6_39 
REMARK   25  A    between atoms: C29_42  and  O8_43 
REMARK   26  A    between atoms: C29_42  and  C35_49 
ROOT
ATOM      1  C14 non d ame     -35.626   9.591  29.179  0.00  0.00     0.089 C 
ATOM      2  H20 non d ame     -35.076   8.696  29.472  0.00  0.00     0.087 H 
ENDROOT
BRANCH   1   3
ATOM      3  N4  non d ame     -34.708  10.717  29.267  0.00  0.00    -0.346 N 
ATOM      4  C10 non d ame     -33.248  10.538  28.935  0.00  0.00     0.241 C 
ATOM      5  O4  non d ame     -32.834   9.476  28.603  0.00  0.00    -0.271 OA
ATOM      6  H19 non d ame     -35.079  11.612  29.554  0.00  0.00     0.163 HD
BRANCH   4   7
ATOM      7  C9  non d ame     -32.313  11.715  29.026  0.00  0.00     0.092 C 
ATOM      8  H11 non d ame     -31.364  11.457  28.557  0.00  0.00     0.088 H 
BRANCH   7   9
ATOM      9  N3  non d ame     -32.874  12.844  28.276  0.00  0.00    -0.346 N 
ATOM     10  C7  non d ame     -32.270  13.252  27.031  0.00  0.00     0.240 C 
ATOM     11  O3  non d ame     -31.333  12.685  26.619  0.00  0.00    -0.271 OA
ATOM     12  H10 non d ame     -33.681  13.343  28.620  0.00  0.00     0.163 HD
BRANCH  10  13
ATOM     13  C6  non d ame     -32.869  14.455  26.239  0.00  0.00     0.086 C 
ATOM     14  H6  non d ame     -32.626  15.418  26.687  0.00  0.00     0.086 H 
BRANCH  13  15
ATOM     15  N2  non d ame     -32.305  14.465  24.899  0.00  0.00    -0.343 N 
ATOM     16  C5  non d ame     -31.361  15.519  24.522  0.00  0.00     0.273 C 
ATOM     17  O2  non d ame     -31.065  16.356  25.302  0.00  0.00    -0.266 OA
ATOM     18  H5  non d ame     -32.567  13.747  24.238  0.00  0.00     0.163 HD
BRANCH  16  19
ATOM     19  C4  non d ame     -30.756  15.541  23.109  0.00  0.00     0.154 A 
ATOM     20  C1  non d ame     -31.439  15.805  21.880  0.00  0.00    -0.017 A 
ATOM     21  C2  non d ame     -30.444  15.706  20.883  0.00  0.00     0.077 A 
ATOM     22  H1  non d ame     -32.495  16.034  21.734  0.00  0.00     0.091 H 
ATOM     23  O1  non d ame     -29.324  15.420  21.480  0.00  0.00    -0.218 OA
ATOM     24  N1  non d ame     -29.481  15.318  22.779  0.00  0.00    -0.123 NA
BRANCH  21  25
ATOM     25  C3  non d ame     -30.645  15.900  19.386  0.00  0.00    -0.029 C 
ATOM     26  H2  non d ame     -31.281  15.105  18.998  0.00  0.00     0.036 H 
ATOM     27  H3  non d ame     -31.120  16.865  19.205  0.00  0.00     0.036 H 
ATOM     28  H4  non d ame     -29.679  15.871  18.882  0.00  0.00     0.036 H 
ENDBRANCH  21  25
ENDBRANCH  16  19
ENDBRANCH  13  15
BRANCH  13  29
ATOM     29  C8  non d ame     -34.369  14.316  26.167  0.00  0.00    -0.049 C 
ATOM     30  H7  non d ame     -34.791  15.188  25.667  0.00  0.00     0.030 H 
ATOM     31  H8  non d ame     -34.624  13.417  25.607  0.00  0.00     0.030 H 
ATOM     32  H9  non d ame     -34.776  14.244  27.176  0.00  0.00     0.030 H 
ENDBRANCH  13  29
ENDBRANCH  10  13
ENDBRANCH   7   9
BRANCH   7  33
ATOM     33  C11 non d ame     -32.138  12.124  30.518  0.00  0.00    -0.033 C 
ATOM     34  H12 non d ame     -32.327  13.195  30.590  0.00  0.00     0.042 H 
BRANCH  33  35
ATOM     35  C12 non d ame     -33.177  11.402  31.431  0.00  0.00    -0.071 C 
ATOM     36  H13 non d ame     -34.163  11.841  31.277  0.00  0.00     0.028 H 
ATOM     37  H14 non d ame     -33.207  10.342  31.180  0.00  0.00     0.028 H 
ATOM     38  H15 non d ame     -32.887  11.520  32.475  0.00  0.00     0.028 H 
ENDBRANCH  33  35
BRANCH  33  39
ATOM     39  C13 non d ame     -30.676  11.858  31.003  0.00  0.00    -0.071 C 
ATOM     40  H16 non d ame     -30.692  11.538  32.045  0.00  0.00     0.028 H 
ATOM     41  H17 non d ame     -30.226  11.077  30.389  0.00  0.00     0.028 H 
ATOM     42  H18 non d ame     -30.091  12.773  30.911  0.00  0.00     0.028 H 
ENDBRANCH  33  39
ENDBRANCH   7  33
ENDBRANCH   4   7
ENDBRANCH   1   3
BRANCH   1  43
ATOM     43  C15 non d ame     -36.161   9.501  27.722  0.00  0.00     0.240 C 
ATOM     44  O5  non d ame     -37.188   8.945  27.502  0.00  0.00    -0.271 OA
ATOM     45  N6  non d ame     -35.398  10.117  26.599  0.00  0.00    -0.355 N 
ATOM     46  H46 non d ame     -34.527  10.597  26.773  0.00  0.00     0.162 HD
BRANCH  45  47
ATOM     47  C20 non d ame     -35.921  10.024  25.219  0.00  0.00     0.013 C 
ATOM     48  H30 non d ame     -36.635   9.201  25.186  0.00  0.00     0.072 H 
BRANCH  47  49
ATOM     49  C21 non d ame     -34.777   9.755  24.268  0.00  0.00    -0.038 C 
ATOM     50  H31 non d ame     -34.836   8.693  24.029  0.00  0.00     0.036 H 
ATOM     51  H32 non d ame     -34.871  10.498  23.476  0.00  0.00     0.036 H 
BRANCH  49  52
ATOM     52  C22 non d ame     -33.393   9.980  24.916  0.00  0.00     0.018 C 
ATOM     53  H33 non d ame     -33.410  10.999  25.301  0.00  0.00     0.048 H 
ATOM     54  H34 non d ame     -33.246   9.142  25.597  0.00  0.00     0.048 H 
BRANCH  52  55
ATOM     55  C23 non d ame     -32.213   9.923  23.907  0.00  0.00     0.259 C 
ATOM     56  O7  non d ame     -31.167  10.419  24.174  0.00  0.00    -0.265 OA
BRANCH  55  57
ATOM     57  O8  non d ame     -32.399   9.281  22.651  0.00  0.00    -0.317 OA
BRANCH  57  58
ATOM     58  C29 non d ame     -31.595   8.112  22.470  0.00  0.00     0.052 C 
ATOM     59  H47 non d ame     -31.633   7.891  21.403  0.00  0.00     0.082 H 
ATOM     60  H48 non d ame     -30.641   8.334  22.947  0.00  0.00     0.082 H 
BRANCH  58  61
ATOM     61  C35 non d ame     -32.268   6.944  23.238  0.00  0.00    -0.034 A 
ATOM     62  C30 non d ame     -33.448   6.383  22.759  0.00  0.00    -0.075 A 
ATOM     63  C31 non d ame     -34.052   5.333  23.449  0.00  0.00    -0.082 A 
ATOM     64  H49 non d ame     -33.898   6.766  21.843  0.00  0.00     0.084 H 
ATOM     65  C32 non d ame     -33.475   4.846  24.624  0.00  0.00    -0.083 A 
ATOM     66  H50 non d ame     -34.976   4.895  23.070  0.00  0.00     0.083 H 
ATOM     67  C33 non d ame     -32.299   5.411  25.100  0.00  0.00    -0.082 A 
ATOM     68  H51 non d ame     -33.940   4.025  25.169  0.00  0.00     0.083 H 
ATOM     69  C34 non d ame     -31.690   6.459  24.413  0.00  0.00    -0.075 A 
ATOM     70  H52 non d ame     -31.852   5.030  26.019  0.00  0.00     0.083 H 
ATOM     71  H53 non d ame     -30.766   6.896  24.792  0.00  0.00     0.084 H 
ENDBRANCH  58  61
ENDBRANCH  57  58
ENDBRANCH  55  57
ENDBRANCH  52  55
ENDBRANCH  49  52
ENDBRANCH  47  49
BRANCH  47  72
ATOM     72  C24 non d ame     -36.604  11.335  24.836  0.00  0.00    -0.039 C 
ATOM     73  H35 non d ame     -36.687  11.901  25.764  0.00  0.00     0.036 H 
ATOM     74  H36 non d ame     -36.022  11.734  24.005  0.00  0.00     0.036 H 
BRANCH  72  75
ATOM     75  C25 non d ame     -38.093  11.092  24.297  0.00  0.00    -0.001 C 
ATOM     76  C26 non d ame     -38.338   9.488  24.032  0.00  0.00    -0.035 C 
ATOM     77  C27 non d ame     -38.828   9.323  22.780  0.00  0.00     0.085 C 
ATOM     78  H38 non d ame     -37.383   8.964  24.002  0.00  0.00     0.036 H 
ATOM     79  H39 non d ame     -39.141   9.121  24.671  0.00  0.00     0.036 H 
ATOM     80  N5  non d ame     -38.633  10.631  22.053  0.00  0.00    -0.049 N 
ATOM     81  H40 non d ame     -38.199   8.562  22.319  0.00  0.00     0.075 H 
ATOM     82  H41 non d ame     -39.895   9.143  22.907  0.00  0.00     0.075 H 
ATOM     83  C28 non d ame     -38.299  11.726  23.191  0.00  0.00     0.193 C 
ATOM     84  H42 non d ame     -37.818  10.515  21.469  0.00  0.00     0.280 HD
ATOM     85  H43 non d ame     -39.524  10.861  21.636  0.00  0.00     0.280 HD
ATOM     86  H44 non d ame     -39.057  12.441  23.511  0.00  0.00     0.129 H 
ATOM     87  H37 non d ame     -38.839  11.615  24.896  0.00  0.00     0.046 H 
BRANCH  83  88
ATOM     88  O6  non d ame     -37.172  12.513  22.803  0.00  0.00    -0.369 OA
ATOM     89  H45 non d ame     -37.334  12.900  21.939  0.00  0.00     0.212 HD
ENDBRANCH  83  88
ENDBRANCH  72  75
ENDBRANCH  47  72
ENDBRANCH  45  47
ENDBRANCH   1  43
BRANCH   1  90
ATOM     90  C16 non d ame     -36.785   9.820  30.136  0.00  0.00    -0.035 C 
ATOM     91  H21 non d ame     -36.624  10.815  30.552  0.00  0.00     0.037 H 
ATOM     92  H22 non d ame     -37.684   9.610  29.556  0.00  0.00     0.037 H 
BRANCH  90  93
ATOM     93  C17 non d ame     -36.801   8.834  31.348  0.00  0.00    -0.059 C 
ATOM     94  H23 non d ame     -37.804   8.850  31.774  0.00  0.00     0.038 H 
BRANCH  93  95
ATOM     95  C18 non d ame     -36.489   7.366  30.917  0.00  0.00    -0.073 C 
ATOM     96  H24 non d ame     -35.455   7.298  30.578  0.00  0.00     0.028 H 
ATOM     97  H25 non d ame     -36.636   6.698  31.765  0.00  0.00     0.028 H 
ATOM     98  H26 non d ame     -37.157   7.076  30.106  0.00  0.00     0.028 H 
ENDBRANCH  93  95
BRANCH  93  99
ATOM     99  C19 non d ame     -35.835   9.297  32.442  0.00  0.00    -0.073 C 
ATOM    100  H27 non d ame     -36.403   9.614  33.317  0.00  0.00     0.028 H 
ATOM    101  H28 non d ame     -35.175   8.475  32.716  0.00  0.00     0.028 H 
ATOM    102  H29 non d ame     -35.240  10.132  32.073  0.00  0.00     0.028 H 
ENDBRANCH  93  99
ENDBRANCH  90  93
ENDBRANCH   1  90
TORSDOF 26
ENDMDL
