MODEL 1
REMARK VINA RESULT:      -7.2      0.000      0.000
REMARK  26 active torsions:
REMARK  status: ('A' for Active; 'I' for Inactive)
REMARK    1  A    between atoms: C2_2  and  C3_3 
REMARK    2  A    between atoms: C4_6  and  C5_7 
REMARK       I    between atoms: C5_7  and  N2_9 
REMARK    3  A    between atoms: N2_9  and  C6_10 
REMARK    4  A    between atoms: C6_10  and  C7_11 
REMARK    5  A    between atoms: C6_10  and  C8_13 
REMARK       I    between atoms: C7_11  and  N3_14 
REMARK    6  A    between atoms: N3_14  and  C9_15 
REMARK    7  A    between atoms: C9_15  and  C10_16 
REMARK    8  A    between atoms: C9_15  and  C11_18 
REMARK       I    between atoms: C10_16  and  N4_21 
REMARK    9  A    between atoms: C11_18  and  C12_19 
REMARK   10  A    between atoms: C11_18  and  C13_20 
REMARK   11  A    between atoms: N4_21  and  C14_22 
REMARK   12  A    between atoms: C14_22  and  C15_23 
REMARK   13  A    between atoms: C14_22  and  C16_25 
REMARK       I    between atoms: C15_23  and  N6_40 
REMARK   14  A    between atoms: C16_25  and  C17_26 
REMARK   15  A    between atoms: C17_26  and  C18_27 
REMARK   16  A    between atoms: C17_26  and  C19_28 
REMARK   17  A    between atoms: C20_29  and  C21_30 
REMARK   18  A    between atoms: C20_29  and  C24_33 
REMARK   19  A    between atoms: C20_29  and  N6_40 
REMARK   20  A    between atoms: C21_30  and  C22_31 
REMARK   21  A    between atoms: C22_31  and  C23_32 
REMARK   22  A    between atoms: C23_32  and  O8_43 
REMARK   23  A    between atoms: C24_33  and  C25_34 
REMARK   24  A    between atoms: C28_38  and  O6_39 
REMARK   25  A    between atoms: C29_42  and  O8_43 
REMARK   26  A    between atoms: C29_42  and  C35_49 
ROOT
ATOM      1  C14 non d ame     -30.648  14.170  23.673  0.00  0.00     0.089 C 
ATOM      2  H20 non d ame     -29.560  14.112  23.616  0.00  0.00     0.087 H 
ENDROOT
BRANCH   1   3
ATOM      3  N4  non d ame     -31.143  12.832  23.961  0.00  0.00    -0.346 N 
ATOM      4  C10 non d ame     -30.563  11.636  23.249  0.00  0.00     0.241 C 
ATOM      5  O4  non d ame     -29.700  11.775  22.447  0.00  0.00    -0.271 OA
ATOM      6  H19 non d ame     -31.880  12.735  24.645  0.00  0.00     0.163 HD
BRANCH   4   7
ATOM      7  C9  non d ame     -31.084  10.258  23.563  0.00  0.00     0.092 C 
ATOM      8  H11 non d ame     -30.676   9.930  24.520  0.00  0.00     0.088 H 
BRANCH   7   9
ATOM      9  N3  non d ame     -32.542  10.307  23.707  0.00  0.00    -0.346 N 
ATOM     10  C7  non d ame     -33.152   9.987  24.974  0.00  0.00     0.240 C 
ATOM     11  O3  non d ame     -32.485   9.686  25.888  0.00  0.00    -0.271 OA
ATOM     12  H10 non d ame     -33.130  10.563  22.928  0.00  0.00     0.163 HD
BRANCH  10  13
ATOM     13  C6  non d ame     -34.705  10.038  25.120  0.00  0.00     0.086 C 
ATOM     14  H6  non d ame     -35.048   9.697  26.097  0.00  0.00     0.086 H 
BRANCH  13  15
ATOM     15  N2  non d ame     -35.146  11.416  24.982  0.00  0.00    -0.343 N 
ATOM     16  C5  non d ame     -35.974  12.017  26.029  0.00  0.00     0.273 C 
ATOM     17  O2  non d ame     -36.282  11.383  26.978  0.00  0.00    -0.266 OA
ATOM     18  H5  non d ame     -34.880  11.949  24.166  0.00  0.00     0.163 HD
BRANCH  16  19
ATOM     19  C4  non d ame     -36.447  13.473  25.897  0.00  0.00     0.154 A 
ATOM     20  C1  non d ame     -36.402  14.293  24.725  0.00  0.00    -0.017 A 
ATOM     21  C2  non d ame     -36.950  15.531  25.127  0.00  0.00     0.077 A 
ATOM     22  H1  non d ame     -36.029  14.030  23.735  0.00  0.00     0.091 H 
ATOM     23  O1  non d ame     -37.270  15.424  26.383  0.00  0.00    -0.218 OA
ATOM     24  N1  non d ame     -36.986  14.232  26.855  0.00  0.00    -0.123 NA
BRANCH  21  25
ATOM     25  C3  non d ame     -37.133  16.763  24.250  0.00  0.00    -0.029 C 
ATOM     26  H2  non d ame     -37.968  16.604  23.569  0.00  0.00     0.036 H 
ATOM     27  H3  non d ame     -37.339  17.629  24.880  0.00  0.00     0.036 H 
ATOM     28  H4  non d ame     -36.224  16.939  23.676  0.00  0.00     0.036 H 
ENDBRANCH  21  25
ENDBRANCH  16  19
ENDBRANCH  13  15
BRANCH  13  29
ATOM     29  C8  non d ame     -35.341   9.182  24.055  0.00  0.00    -0.049 C 
ATOM     30  H7  non d ame     -36.385   9.469  23.934  0.00  0.00     0.030 H 
ATOM     31  H8  non d ame     -34.814   9.324  23.112  0.00  0.00     0.030 H 
ATOM     32  H9  non d ame     -35.284   8.133  24.348  0.00  0.00     0.030 H 
ENDBRANCH  13  29
ENDBRANCH  10  13
ENDBRANCH   7   9
BRANCH   7  33
ATOM     33  C11 non d ame     -30.712   9.287  22.405  0.00  0.00    -0.033 C 
ATOM     34  H12 non d ame     -30.454   9.893  21.537  0.00  0.00     0.042 H 
BRANCH  33  35
ATOM     35  C12 non d ame     -29.460   8.426  22.764  0.00  0.00    -0.071 C 
ATOM     36  H13 non d ame     -28.587   9.073  22.849  0.00  0.00     0.028 H 
ATOM     37  H14 non d ame     -29.630   7.918  23.713  0.00  0.00     0.028 H 
ATOM     38  H15 non d ame     -29.290   7.688  21.981  0.00  0.00     0.028 H 
ENDBRANCH  33  35
BRANCH  33  39
ATOM     39  C13 non d ame     -31.928   8.384  22.020  0.00  0.00    -0.071 C 
ATOM     40  H16 non d ame     -32.729   8.526  22.745  0.00  0.00     0.028 H 
ATOM     41  H17 non d ame     -32.284   8.659  21.026  0.00  0.00     0.028 H 
ATOM     42  H18 non d ame     -31.619   7.339  22.018  0.00  0.00     0.028 H 
ENDBRANCH  33  39
ENDBRANCH   7  33
ENDBRANCH   4   7
ENDBRANCH   1   3
BRANCH   1  43
ATOM     43  C15 non d ame     -31.126  15.129  24.801  0.00  0.00     0.240 C 
ATOM     44  O5  non d ame     -31.004  16.303  24.670  0.00  0.00    -0.271 OA
ATOM     45  N6  non d ame     -31.744  14.582  26.043  0.00  0.00    -0.355 N 
ATOM     46  H46 non d ame     -31.857  13.586  26.164  0.00  0.00     0.162 HD
BRANCH  45  47
ATOM     47  C20 non d ame     -32.195  15.506  27.105  0.00  0.00     0.013 C 
ATOM     48  H30 non d ame     -31.605  16.419  27.028  0.00  0.00     0.072 H 
BRANCH  47  49
ATOM     49  C21 non d ame     -31.975  14.861  28.455  0.00  0.00    -0.038 C 
ATOM     50  H31 non d ame     -30.919  14.593  28.485  0.00  0.00     0.036 H 
ATOM     51  H32 non d ame     -32.381  15.562  29.185  0.00  0.00     0.036 H 
BRANCH  49  52
ATOM     52  C22 non d ame     -32.765  13.545  28.626  0.00  0.00     0.018 C 
ATOM     53  H33 non d ame     -33.260  13.622  29.594  0.00  0.00     0.048 H 
ATOM     54  H34 non d ame     -33.358  13.436  27.718  0.00  0.00     0.048 H 
BRANCH  52  55
ATOM     55  C23 non d ame     -31.865  12.281  28.705  0.00  0.00     0.259 C 
ATOM     56  O7  non d ame     -31.112  12.021  27.823  0.00  0.00    -0.265 OA
BRANCH  55  57
ATOM     57  O8  non d ame     -31.960  11.427  29.839  0.00  0.00    -0.317 OA
BRANCH  57  58
ATOM     58  C29 non d ame     -32.802  11.933  30.879  0.00  0.00     0.052 C 
ATOM     59  H47 non d ame     -32.144  12.115  31.729  0.00  0.00     0.082 H 
ATOM     60  H48 non d ame     -33.358  12.758  30.434  0.00  0.00     0.082 H 
BRANCH  58  61
ATOM     61  C35 non d ame     -33.807  10.816  31.267  0.00  0.00    -0.034 A 
ATOM     62  C30 non d ame     -34.653  10.988  32.358  0.00  0.00    -0.075 A 
ATOM     63  C31 non d ame     -35.556   9.985  32.707  0.00  0.00    -0.082 A 
ATOM     64  H49 non d ame     -34.608  11.908  32.941  0.00  0.00     0.084 H 
ATOM     65  C32 non d ame     -35.609   8.804  31.961  0.00  0.00    -0.083 A 
ATOM     66  H50 non d ame     -36.218  10.123  33.562  0.00  0.00     0.083 H 
ATOM     67  C33 non d ame     -34.761   8.636  30.875  0.00  0.00    -0.082 A 
ATOM     68  H51 non d ame     -36.313   8.015  32.227  0.00  0.00     0.083 H 
ATOM     69  C34 non d ame     -33.859   9.636  30.522  0.00  0.00    -0.075 A 
ATOM     70  H52 non d ame     -34.804   7.712  30.297  0.00  0.00     0.083 H 
ATOM     71  H53 non d ame     -33.197   9.497  29.666  0.00  0.00     0.084 H 
ENDBRANCH  58  61
ENDBRANCH  57  58
ENDBRANCH  55  57
ENDBRANCH  52  55
ENDBRANCH  49  52
ENDBRANCH  47  49
BRANCH  47  72
ATOM     72  C24 non d ame     -33.680  15.817  26.924  0.00  0.00    -0.039 C 
ATOM     73  H35 non d ame     -33.997  15.226  26.064  0.00  0.00     0.036 H 
ATOM     74  H36 non d ame     -34.133  15.645  27.900  0.00  0.00     0.036 H 
BRANCH  72  75
ATOM     75  C25 non d ame     -33.922  17.356  26.555  0.00  0.00    -0.001 C 
ATOM     76  C26 non d ame     -32.570  18.231  26.885  0.00  0.00    -0.035 C 
ATOM     77  C27 non d ame     -32.915  19.298  27.646  0.00  0.00     0.085 C 
ATOM     78  H38 non d ame     -31.905  17.661  27.534  0.00  0.00     0.036 H 
ATOM     79  H39 non d ame     -32.184  18.684  25.972  0.00  0.00     0.036 H 
ATOM     80  N5  non d ame     -34.322  19.053  28.136  0.00  0.00    -0.049 N 
ATOM     81  H40 non d ame     -32.234  19.282  28.496  0.00  0.00     0.075 H 
ATOM     82  H41 non d ame     -32.919  20.150  26.967  0.00  0.00     0.075 H 
ATOM     83  C28 non d ame     -34.905  17.850  27.231  0.00  0.00     0.193 C 
ATOM     84  H42 non d ame     -34.240  18.729  29.089  0.00  0.00     0.280 HD
ATOM     85  H43 non d ame     -34.846  19.893  27.932  0.00  0.00     0.280 HD
ATOM     86  H44 non d ame     -35.615  18.054  26.430  0.00  0.00     0.129 H 
ATOM     87  H37 non d ame     -34.363  17.479  25.565  0.00  0.00     0.046 H 
BRANCH  83  88
ATOM     88  O6  non d ame     -35.535  16.871  28.060  0.00  0.00    -0.369 OA
ATOM     89  H45 non d ame     -35.848  17.288  28.866  0.00  0.00     0.212 HD
ENDBRANCH  83  88
ENDBRANCH  72  75
ENDBRANCH  47  72
ENDBRANCH  45  47
ENDBRANCH   1  43
BRANCH   1  90
ATOM     90  C16 non d ame     -31.210  14.631  22.338  0.00  0.00    -0.035 C 
ATOM     91  H21 non d ame     -31.806  13.795  21.972  0.00  0.00     0.037 H 
ATOM     92  H22 non d ame     -31.685  15.591  22.541  0.00  0.00     0.037 H 
BRANCH  90  93
ATOM     93  C17 non d ame     -30.116  14.900  21.256  0.00  0.00    -0.059 C 
ATOM     94  H23 non d ame     -29.880  13.948  20.781  0.00  0.00     0.038 H 
BRANCH  93  95
ATOM     95  C18 non d ame     -30.615  15.877  20.144  0.00  0.00    -0.073 C 
ATOM     96  H24 non d ame     -30.822  15.316  19.233  0.00  0.00     0.028 H 
ATOM     97  H25 non d ame     -31.525  16.374  20.478  0.00  0.00     0.028 H 
ATOM     98  H26 non d ame     -29.846  16.623  19.945  0.00  0.00     0.028 H 
ENDBRANCH  93  95
BRANCH  93  99
ATOM     99  C19 non d ame     -28.828  15.419  21.900  0.00  0.00    -0.073 C 
ATOM    100  H27 non d ame     -28.497  16.318  21.378  0.00  0.00     0.028 H 
ATOM    101  H28 non d ame     -29.013  15.655  22.948  0.00  0.00     0.028 H 
ATOM    102  H29 non d ame     -28.054  14.654  21.832  0.00  0.00     0.028 H 
ENDBRANCH  93  99
ENDBRANCH  90  93
ENDBRANCH   1  90
TORSDOF 26
ENDMDL
MODEL 2
REMARK VINA RESULT:      -6.9      2.865      6.062
REMARK  26 active torsions:
REMARK  status: ('A' for Active; 'I' for Inactive)
REMARK    1  A    between atoms: C2_2  and  C3_3 
REMARK    2  A    between atoms: C4_6  and  C5_7 
REMARK       I    between atoms: C5_7  and  N2_9 
REMARK    3  A    between atoms: N2_9  and  C6_10 
REMARK    4  A    between atoms: C6_10  and  C7_11 
REMARK    5  A    between atoms: C6_10  and  C8_13 
REMARK       I    between atoms: C7_11  and  N3_14 
REMARK    6  A    between atoms: N3_14  and  C9_15 
REMARK    7  A    between atoms: C9_15  and  C10_16 
REMARK    8  A    between atoms: C9_15  and  C11_18 
REMARK       I    between atoms: C10_16  and  N4_21 
REMARK    9  A    between atoms: C11_18  and  C12_19 
REMARK   10  A    between atoms: C11_18  and  C13_20 
REMARK   11  A    between atoms: N4_21  and  C14_22 
REMARK   12  A    between atoms: C14_22  and  C15_23 
REMARK   13  A    between atoms: C14_22  and  C16_25 
REMARK       I    between atoms: C15_23  and  N6_40 
REMARK   14  A    between atoms: C16_25  and  C17_26 
REMARK   15  A    between atoms: C17_26  and  C18_27 
REMARK   16  A    between atoms: C17_26  and  C19_28 
REMARK   17  A    between atoms: C20_29  and  C21_30 
REMARK   18  A    between atoms: C20_29  and  C24_33 
REMARK   19  A    between atoms: C20_29  and  N6_40 
REMARK   20  A    between atoms: C21_30  and  C22_31 
REMARK   21  A    between atoms: C22_31  and  C23_32 
REMARK   22  A    between atoms: C23_32  and  O8_43 
REMARK   23  A    between atoms: C24_33  and  C25_34 
REMARK   24  A    between atoms: C28_38  and  O6_39 
REMARK   25  A    between atoms: C29_42  and  O8_43 
REMARK   26  A    between atoms: C29_42  and  C35_49 
ROOT
ATOM      1  C14 non d ame     -33.118  10.890  25.833  0.00  0.00     0.089 C 
ATOM      2  H20 non d ame     -33.823  10.978  25.007  0.00  0.00     0.087 H 
ENDROOT
BRANCH   1   3
ATOM      3  N4  non d ame     -32.646   9.513  25.862  0.00  0.00    -0.346 N 
ATOM      4  C10 non d ame     -33.019   8.557  24.757  0.00  0.00     0.241 C 
ATOM      5  O4  non d ame     -33.704   8.918  23.857  0.00  0.00    -0.271 OA
ATOM      6  H19 non d ame     -32.067   9.226  26.638  0.00  0.00     0.163 HD
BRANCH   4   7
ATOM      7  C9  non d ame     -32.518   7.138  24.800  0.00  0.00     0.092 C 
ATOM      8  H11 non d ame     -31.501   7.129  25.192  0.00  0.00     0.088 H 
BRANCH   7   9
ATOM      9  N3  non d ame     -33.345   6.354  25.722  0.00  0.00    -0.346 N 
ATOM     10  C7  non d ame     -32.848   6.029  27.036  0.00  0.00     0.240 C 
ATOM     11  O3  non d ame     -31.785   6.389  27.368  0.00  0.00    -0.271 OA
ATOM     12  H10 non d ame     -34.264   6.035  25.449  0.00  0.00     0.163 HD
BRANCH  10  13
ATOM     13  C6  non d ame     -33.732   5.192  28.012  0.00  0.00     0.086 C 
ATOM     14  H6  non d ame     -33.261   4.255  28.310  0.00  0.00     0.086 H 
BRANCH  13  15
ATOM     15  N2  non d ame     -33.945   5.956  29.230  0.00  0.00    -0.343 N 
ATOM     16  C5  non d ame     -34.548   7.288  29.149  0.00  0.00     0.273 C 
ATOM     17  O2  non d ame     -34.856   7.737  28.100  0.00  0.00    -0.266 OA
ATOM     18  H5  non d ame     -33.675   5.567  30.122  0.00  0.00     0.163 HD
BRANCH  16  19
ATOM     19  C4  non d ame     -34.779   8.107  30.429  0.00  0.00     0.154 A 
ATOM     20  C1  non d ame     -34.955   9.524  30.529  0.00  0.00    -0.017 A 
ATOM     21  C2  non d ame     -35.131   9.772  31.908  0.00  0.00     0.077 A 
ATOM     22  H1  non d ame     -34.954  10.259  29.724  0.00  0.00     0.091 H 
ATOM     23  O1  non d ame     -35.065   8.626  32.519  0.00  0.00    -0.218 OA
ATOM     24  N1  non d ame     -34.860   7.639  31.677  0.00  0.00    -0.123 NA
BRANCH  21  25
ATOM     25  C3  non d ame     -35.358  11.131  32.558  0.00  0.00    -0.029 C 
ATOM     26  H2  non d ame     -34.498  11.772  32.370  0.00  0.00     0.036 H 
ATOM     27  H3  non d ame     -36.252  11.590  32.137  0.00  0.00     0.036 H 
ATOM     28  H4  non d ame     -35.488  11.002  33.632  0.00  0.00     0.036 H 
ENDBRANCH  21  25
ENDBRANCH  16  19
ENDBRANCH  13  15
BRANCH  13  29
ATOM     29  C8  non d ame     -35.055   4.884  27.358  0.00  0.00    -0.049 C 
ATOM     30  H7  non d ame     -34.928   4.859  26.276  0.00  0.00     0.030 H 
ATOM     31  H8  non d ame     -35.415   3.916  27.704  0.00  0.00     0.030 H 
ATOM     32  H9  non d ame     -35.779   5.657  27.621  0.00  0.00     0.030 H 
ENDBRANCH  13  29
ENDBRANCH  10  13
ENDBRANCH   7   9
BRANCH   7  33
ATOM     33  C11 non d ame     -32.601   6.515  23.375  0.00  0.00    -0.033 C 
ATOM     34  H12 non d ame     -33.297   7.119  22.793  0.00  0.00     0.042 H 
BRANCH  33  35
ATOM     35  C12 non d ame     -31.219   6.564  22.652  0.00  0.00    -0.071 C 
ATOM     36  H13 non d ame     -30.466   6.958  23.334  0.00  0.00     0.028 H 
ATOM     37  H14 non d ame     -30.937   5.559  22.339  0.00  0.00     0.028 H 
ATOM     38  H15 non d ame     -31.290   7.211  21.777  0.00  0.00     0.028 H 
ENDBRANCH  33  35
BRANCH  33  39
ATOM     39  C13 non d ame     -33.158   5.057  23.434  0.00  0.00    -0.071 C 
ATOM     40  H16 non d ame     -34.080   4.996  22.855  0.00  0.00     0.028 H 
ATOM     41  H17 non d ame     -32.421   4.369  23.018  0.00  0.00     0.028 H 
ATOM     42  H18 non d ame     -33.361   4.787  24.470  0.00  0.00     0.028 H 
ENDBRANCH  33  39
ENDBRANCH   7  33
ENDBRANCH   4   7
ENDBRANCH   1   3
BRANCH   1  43
ATOM     43  C15 non d ame     -31.891  11.831  25.662  0.00  0.00     0.240 C 
ATOM     44  O5  non d ame     -30.817  11.473  26.024  0.00  0.00    -0.271 OA
ATOM     45  N6  non d ame     -32.054  13.175  25.038  0.00  0.00    -0.355 N 
ATOM     46  H46 non d ame     -32.960  13.488  24.723  0.00  0.00     0.162 HD
BRANCH  45  47
ATOM     47  C20 non d ame     -30.877  14.057  24.881  0.00  0.00     0.013 C 
ATOM     48  H30 non d ame     -30.101  13.706  25.561  0.00  0.00     0.072 H 
BRANCH  47  49
ATOM     49  C21 non d ame     -31.266  15.476  25.230  0.00  0.00    -0.038 C 
ATOM     50  H31 non d ame     -30.529  15.813  25.959  0.00  0.00     0.036 H 
ATOM     51  H32 non d ame     -31.367  15.996  24.277  0.00  0.00     0.036 H 
BRANCH  49  52
ATOM     52  C22 non d ame     -32.642  15.566  25.925  0.00  0.00     0.018 C 
ATOM     53  H33 non d ame     -33.323  15.975  25.179  0.00  0.00     0.048 H 
ATOM     54  H34 non d ame     -32.825  14.578  26.347  0.00  0.00     0.048 H 
BRANCH  52  55
ATOM     55  C23 non d ame     -32.675  16.556  27.122  0.00  0.00     0.259 C 
ATOM     56  O7  non d ame     -32.712  17.729  26.935  0.00  0.00    -0.265 OA
BRANCH  55  57
ATOM     57  O8  non d ame     -32.647  16.045  28.449  0.00  0.00    -0.317 OA
BRANCH  57  58
ATOM     58  C29 non d ame     -33.385  14.832  28.622  0.00  0.00     0.052 C 
ATOM     59  H47 non d ame     -34.159  15.060  29.356  0.00  0.00     0.082 H 
ATOM     60  H48 non d ame     -33.663  14.511  27.619  0.00  0.00     0.082 H 
BRANCH  58  61
ATOM     61  C35 non d ame     -32.429  13.772  29.231  0.00  0.00    -0.034 A 
ATOM     62  C30 non d ame     -32.903  12.866  30.174  0.00  0.00    -0.075 A 
ATOM     63  C31 non d ame     -32.044  11.914  30.721  0.00  0.00    -0.082 A 
ATOM     64  H49 non d ame     -33.947  12.903  30.486  0.00  0.00     0.084 H 
ATOM     65  C32 non d ame     -30.705  11.871  30.322  0.00  0.00    -0.083 A 
ATOM     66  H50 non d ame     -32.419  11.205  31.459  0.00  0.00     0.083 H 
ATOM     67  C33 non d ame     -30.236  12.779  29.383  0.00  0.00    -0.082 A 
ATOM     68  H51 non d ame     -30.027  11.129  30.744  0.00  0.00     0.083 H 
ATOM     69  C34 non d ame     -31.091  13.731  28.832  0.00  0.00    -0.075 A 
ATOM     70  H52 non d ame     -29.190  12.745  29.076  0.00  0.00     0.083 H 
ATOM     71  H53 non d ame     -30.715  14.440  28.094  0.00  0.00     0.084 H 
ENDBRANCH  58  61
ENDBRANCH  57  58
ENDBRANCH  55  57
ENDBRANCH  52  55
ENDBRANCH  49  52
ENDBRANCH  47  49
BRANCH  47  72
ATOM     72  C24 non d ame     -30.381  14.004  23.438  0.00  0.00    -0.039 C 
ATOM     73  H35 non d ame     -29.424  13.483  23.479  0.00  0.00     0.036 H 
ATOM     74  H36 non d ame     -31.206  13.584  22.863  0.00  0.00     0.036 H 
BRANCH  72  75
ATOM     75  C25 non d ame     -30.096  15.469  22.855  0.00  0.00    -0.001 C 
ATOM     76  C26 non d ame     -31.241  15.861  21.741  0.00  0.00    -0.035 C 
ATOM     77  C27 non d ame     -30.623  16.277  20.609  0.00  0.00     0.085 C 
ATOM     78  H38 non d ame     -31.776  14.966  21.425  0.00  0.00     0.036 H 
ATOM     79  H39 non d ame     -31.795  16.741  22.068  0.00  0.00     0.036 H 
ATOM     80  N5  non d ame     -29.168  15.896  20.734  0.00  0.00    -0.049 N 
ATOM     81  H40 non d ame     -31.075  15.700  19.802  0.00  0.00     0.075 H 
ATOM     82  H41 non d ame     -30.708  17.363  20.615  0.00  0.00     0.075 H 
ATOM     83  C28 non d ame     -28.937  15.530  22.289  0.00  0.00     0.193 C 
ATOM     84  H42 non d ame     -29.043  15.058  20.184  0.00  0.00     0.280 HD
ATOM     85  H43 non d ame     -28.636  16.726  20.517  0.00  0.00     0.280 HD
ATOM     86  H44 non d ame     -28.429  16.229  22.953  0.00  0.00     0.129 H 
ATOM     87  H37 non d ame     -29.902  16.196  23.643  0.00  0.00     0.046 H 
BRANCH  83  88
ATOM     88  O6  non d ame     -28.216  14.302  22.405  0.00  0.00    -0.369 OA
ATOM     89  H45 non d ame     -27.410  14.449  22.906  0.00  0.00     0.212 HD
ENDBRANCH  83  88
ENDBRANCH  72  75
ENDBRANCH  47  72
ENDBRANCH  45  47
ENDBRANCH   1  43
BRANCH   1  90
ATOM     90  C16 non d ame     -33.821  11.200  27.145  0.00  0.00    -0.035 C 
ATOM     91  H21 non d ame     -33.830  10.261  27.697  0.00  0.00     0.037 H 
ATOM     92  H22 non d ame     -33.301  12.067  27.553  0.00  0.00     0.037 H 
BRANCH  90  93
ATOM     93  C17 non d ame     -35.314  11.624  26.971  0.00  0.00    -0.059 C 
ATOM     94  H23 non d ame     -35.736  11.767  27.966  0.00  0.00     0.038 H 
BRANCH  93  95
ATOM     95  C18 non d ame     -35.458  12.972  26.194  0.00  0.00    -0.073 C 
ATOM     96  H24 non d ame     -34.607  13.098  25.525  0.00  0.00     0.028 H 
ATOM     97  H25 non d ame     -36.379  12.960  25.612  0.00  0.00     0.028 H 
ATOM     98  H26 non d ame     -35.487  13.798  26.904  0.00  0.00     0.028 H 
ENDBRANCH  93  95
BRANCH  93  99
ATOM     99  C19 non d ame     -36.121  10.515  26.290  0.00  0.00    -0.073 C 
ATOM    100  H27 non d ame     -36.446  10.853  25.306  0.00  0.00     0.028 H 
ATOM    101  H28 non d ame     -35.498   9.626  26.181  0.00  0.00     0.028 H 
ATOM    102  H29 non d ame     -36.992  10.274  26.898  0.00  0.00     0.028 H 
ENDBRANCH  93  99
ENDBRANCH  90  93
ENDBRANCH   1  90
TORSDOF 26
ENDMDL
MODEL 3
REMARK VINA RESULT:      -6.4      2.419      7.997
REMARK  26 active torsions:
REMARK  status: ('A' for Active; 'I' for Inactive)
REMARK    1  A    between atoms: C2_2  and  C3_3 
REMARK    2  A    between atoms: C4_6  and  C5_7 
REMARK       I    between atoms: C5_7  and  N2_9 
REMARK    3  A    between atoms: N2_9  and  C6_10 
REMARK    4  A    between atoms: C6_10  and  C7_11 
REMARK    5  A    between atoms: C6_10  and  C8_13 
REMARK       I    between atoms: C7_11  and  N3_14 
REMARK    6  A    between atoms: N3_14  and  C9_15 
REMARK    7  A    between atoms: C9_15  and  C10_16 
REMARK    8  A    between atoms: C9_15  and  C11_18 
REMARK       I    between atoms: C10_16  and  N4_21 
REMARK    9  A    between atoms: C11_18  and  C12_19 
REMARK   10  A    between atoms: C11_18  and  C13_20 
REMARK   11  A    between atoms: N4_21  and  C14_22 
REMARK   12  A    between atoms: C14_22  and  C15_23 
REMARK   13  A    between atoms: C14_22  and  C16_25 
REMARK       I    between atoms: C15_23  and  N6_40 
REMARK   14  A    between atoms: C16_25  and  C17_26 
REMARK   15  A    between atoms: C17_26  and  C18_27 
REMARK   16  A    between atoms: C17_26  and  C19_28 
REMARK   17  A    between atoms: C20_29  and  C21_30 
REMARK   18  A    between atoms: C20_29  and  C24_33 
REMARK   19  A    between atoms: C20_29  and  N6_40 
REMARK   20  A    between atoms: C21_30  and  C22_31 
REMARK   21  A    between atoms: C22_31  and  C23_32 
REMARK   22  A    between atoms: C23_32  and  O8_43 
REMARK   23  A    between atoms: C24_33  and  C25_34 
REMARK   24  A    between atoms: C28_38  and  O6_39 
REMARK   25  A    between atoms: C29_42  and  O8_43 
REMARK   26  A    between atoms: C29_42  and  C35_49 
ROOT
ATOM      1  C14 non d ame     -36.793  13.799  25.306  0.00  0.00     0.089 C 
ATOM      2  H20 non d ame     -37.483  13.608  26.128  0.00  0.00     0.087 H 
ENDROOT
BRANCH   1   3
ATOM      3  N4  non d ame     -36.428  15.207  25.359  0.00  0.00    -0.346 N 
ATOM      4  C10 non d ame     -37.177  16.155  26.262  0.00  0.00     0.241 C 
ATOM      5  O4  non d ame     -38.072  15.762  26.934  0.00  0.00    -0.271 OA
ATOM      6  H19 non d ame     -35.665  15.522  24.777  0.00  0.00     0.163 HD
BRANCH   4   7
ATOM      7  C9  non d ame     -36.782  17.608  26.308  0.00  0.00     0.092 C 
ATOM      8  H11 non d ame     -37.211  18.068  27.198  0.00  0.00     0.088 H 
BRANCH   7   9
ATOM      9  N3  non d ame     -35.324  17.715  26.424  0.00  0.00    -0.346 N 
ATOM     10  C7  non d ame     -34.712  17.821  27.726  0.00  0.00     0.240 C 
ATOM     11  O3  non d ame     -35.376  17.823  28.689  0.00  0.00    -0.271 OA
ATOM     12  H10 non d ame     -34.738  17.716  25.602  0.00  0.00     0.163 HD
BRANCH  10  13
ATOM     13  C6  non d ame     -33.160  17.937  27.843  0.00  0.00     0.086 C 
ATOM     14  H6  non d ame     -32.844  18.480  28.734  0.00  0.00     0.086 H 
BRANCH  13  15
ATOM     15  N2  non d ame     -32.593  16.603  27.947  0.00  0.00    -0.343 N 
ATOM     16  C5  non d ame     -31.899  16.207  29.174  0.00  0.00     0.273 C 
ATOM     17  O2  non d ame     -31.799  16.970  30.071  0.00  0.00    -0.266 OA
ATOM     18  H5  non d ame     -32.681  15.958  27.174  0.00  0.00     0.163 HD
BRANCH  16  19
ATOM     19  C4  non d ame     -31.296  14.799  29.297  0.00  0.00     0.154 A 
ATOM     20  C1  non d ame     -31.652  13.786  30.243  0.00  0.00    -0.017 A 
ATOM     21  C2  non d ame     -30.813  12.691  29.936  0.00  0.00     0.077 A 
ATOM     22  H1  non d ame     -32.404  13.837  31.031  0.00  0.00     0.091 H 
ATOM     23  O1  non d ame     -30.068  13.044  28.930  0.00  0.00    -0.218 OA
ATOM     24  N1  non d ame     -30.331  14.270  28.539  0.00  0.00    -0.123 NA
BRANCH  21  25
ATOM     25  C3  non d ame     -30.788  11.347  30.652  0.00  0.00    -0.029 C 
ATOM     26  H2  non d ame     -30.952  10.548  29.929  0.00  0.00     0.036 H 
ATOM     27  H3  non d ame     -29.819  11.209  31.131  0.00  0.00     0.036 H 
ATOM     28  H4  non d ame     -31.573  11.322  31.407  0.00  0.00     0.036 H 
ENDBRANCH  21  25
ENDBRANCH  16  19
ENDBRANCH  13  15
BRANCH  13  29
ATOM     29  C8  non d ame     -32.612  18.638  26.626  0.00  0.00    -0.049 C 
ATOM     30  H7  non d ame     -31.778  19.276  26.919  0.00  0.00     0.030 H 
ATOM     31  H8  non d ame     -32.268  17.898  25.905  0.00  0.00     0.030 H 
ATOM     32  H9  non d ame     -33.395  19.249  26.175  0.00  0.00     0.030 H 
ENDBRANCH  13  29
ENDBRANCH  10  13
ENDBRANCH   7   9
BRANCH   7  33
ATOM     33  C11 non d ame     -37.248  18.314  25.001  0.00  0.00    -0.033 C 
ATOM     34  H12 non d ame     -37.007  17.654  24.167  0.00  0.00     0.042 H 
BRANCH  33  35
ATOM     35  C12 non d ame     -38.793  18.534  24.994  0.00  0.00    -0.071 C 
ATOM     36  H13 non d ame     -39.285  17.641  24.608  0.00  0.00     0.028 H 
ATOM     37  H14 non d ame     -39.137  18.727  26.010  0.00  0.00     0.028 H 
ATOM     38  H15 non d ame     -39.036  19.386  24.359  0.00  0.00     0.028 H 
ENDBRANCH  33  35
BRANCH  33  39
ATOM     39  C13 non d ame     -36.483  19.660  24.789  0.00  0.00    -0.071 C 
ATOM     40  H16 non d ame     -35.760  19.797  25.593  0.00  0.00     0.028 H 
ATOM     41  H17 non d ame     -35.962  19.634  23.832  0.00  0.00     0.028 H 
ATOM     42  H18 non d ame     -37.194  20.486  24.793  0.00  0.00     0.028 H 
ENDBRANCH  33  39
ENDBRANCH   7  33
ENDBRANCH   4   7
ENDBRANCH   1   3
BRANCH   1  43
ATOM     43  C15 non d ame     -35.496  12.947  25.418  0.00  0.00     0.240 C 
ATOM     44  O5  non d ame     -35.559  11.763  25.342  0.00  0.00    -0.271 OA
ATOM     45  N6  non d ame     -34.174  13.608  25.611  0.00  0.00    -0.355 N 
ATOM     46  H46 non d ame     -34.107  14.614  25.672  0.00  0.00     0.162 HD
BRANCH  45  47
ATOM     47  C20 non d ame     -32.951  12.784  25.714  0.00  0.00     0.013 C 
ATOM     48  H30 non d ame     -32.948  12.082  24.880  0.00  0.00     0.072 H 
BRANCH  47  49
ATOM     49  C21 non d ame     -32.966  12.029  27.024  0.00  0.00    -0.038 C 
ATOM     50  H31 non d ame     -32.637  12.743  27.779  0.00  0.00     0.036 H 
ATOM     51  H32 non d ame     -33.956  11.579  27.092  0.00  0.00     0.036 H 
BRANCH  49  52
ATOM     52  C22 non d ame     -31.953  10.864  27.056  0.00  0.00     0.018 C 
ATOM     53  H33 non d ame     -31.534  10.809  26.051  0.00  0.00     0.048 H 
ATOM     54  H34 non d ame     -31.302  11.061  27.908  0.00  0.00     0.048 H 
BRANCH  52  55
ATOM     55  C23 non d ame     -32.601   9.477  27.325  0.00  0.00     0.259 C 
ATOM     56  O7  non d ame     -33.102   9.239  28.376  0.00  0.00    -0.265 OA
BRANCH  55  57
ATOM     57  O8  non d ame     -32.580   8.488  26.303  0.00  0.00    -0.317 OA
BRANCH  57  58
ATOM     58  C29 non d ame     -33.132   8.925  25.058  0.00  0.00     0.052 C 
ATOM     59  H47 non d ame     -33.907   8.200  24.808  0.00  0.00     0.082 H 
ATOM     60  H48 non d ame     -33.393   9.973  25.202  0.00  0.00     0.082 H 
BRANCH  58  61
ATOM     61  C35 non d ame     -32.016   8.841  23.983  0.00  0.00    -0.034 A 
ATOM     62  C30 non d ame     -31.685   7.614  23.416  0.00  0.00    -0.075 A 
ATOM     63  C31 non d ame     -30.682   7.538  22.451  0.00  0.00    -0.082 A 
ATOM     64  H49 non d ame     -32.212   6.712  23.729  0.00  0.00     0.084 H 
ATOM     65  C32 non d ame     -30.007   8.696  22.054  0.00  0.00    -0.083 A 
ATOM     66  H50 non d ame     -30.427   6.576  22.008  0.00  0.00     0.083 H 
ATOM     67  C33 non d ame     -30.338   9.917  22.625  0.00  0.00    -0.082 A 
ATOM     68  H51 non d ame     -29.222   8.645  21.300  0.00  0.00     0.083 H 
ATOM     69  C34 non d ame     -31.341   9.998  23.589  0.00  0.00    -0.075 A 
ATOM     70  H52 non d ame     -29.808  10.818  22.315  0.00  0.00     0.083 H 
ATOM     71  H53 non d ame     -31.596  10.961  24.032  0.00  0.00     0.084 H 
ENDBRANCH  58  61
ENDBRANCH  57  58
ENDBRANCH  55  57
ENDBRANCH  52  55
ENDBRANCH  49  52
ENDBRANCH  47  49
BRANCH  47  72
ATOM     72  C24 non d ame     -31.717  13.682  25.657  0.00  0.00    -0.039 C 
ATOM     73  H35 non d ame     -31.889  14.460  26.401  0.00  0.00     0.036 H 
ATOM     74  H36 non d ame     -30.864  13.010  25.759  0.00  0.00     0.036 H 
BRANCH  72  75
ATOM     75  C25 non d ame     -31.578  14.409  24.236  0.00  0.00    -0.001 C 
ATOM     76  C26 non d ame     -30.629  13.510  23.237  0.00  0.00    -0.035 C 
ATOM     77  C27 non d ame     -29.662  14.306  22.722  0.00  0.00     0.085 C 
ATOM     78  H38 non d ame     -30.072  12.773  23.815  0.00  0.00     0.036 H 
ATOM     79  H39 non d ame     -31.198  13.199  22.361  0.00  0.00     0.036 H 
ATOM     80  N5  non d ame     -29.665  15.583  23.527  0.00  0.00    -0.049 N 
ATOM     81  H40 non d ame     -28.726  13.776  22.897  0.00  0.00     0.075 H 
ATOM     82  H41 non d ame     -29.980  14.528  21.703  0.00  0.00     0.075 H 
ATOM     83  C28 non d ame     -31.048  15.580  24.359  0.00  0.00     0.193 C 
ATOM     84  H42 non d ame     -28.897  15.511  24.179  0.00  0.00     0.280 HD
ATOM     85  H43 non d ame     -29.692  16.341  22.860  0.00  0.00     0.280 HD
ATOM     86  H44 non d ame     -31.882  16.209  24.049  0.00  0.00     0.129 H 
ATOM     87  H37 non d ame     -32.541  14.735  23.843  0.00  0.00     0.046 H 
BRANCH  83  88
ATOM     88  O6  non d ame     -30.802  15.918  25.725  0.00  0.00    -0.369 OA
ATOM     89  H45 non d ame     -31.634  15.949  26.203  0.00  0.00     0.212 HD
ENDBRANCH  83  88
ENDBRANCH  72  75
ENDBRANCH  47  72
ENDBRANCH  45  47
ENDBRANCH   1  43
BRANCH   1  90
ATOM     90  C16 non d ame     -37.479  13.514  23.980  0.00  0.00    -0.035 C 
ATOM     91  H21 non d ame     -37.317  14.405  23.374  0.00  0.00     0.037 H 
ATOM     92  H22 non d ame     -37.085  12.552  23.652  0.00  0.00     0.037 H 
BRANCH  90  93
ATOM     93  C17 non d ame     -39.027  13.339  24.101  0.00  0.00    -0.059 C 
ATOM     94  H23 non d ame     -39.321  12.532  23.430  0.00  0.00     0.038 H 
BRANCH  93  95
ATOM     95  C18 non d ame     -39.464  12.942  25.547  0.00  0.00    -0.073 C 
ATOM     96  H24 non d ame     -39.085  11.947  25.781  0.00  0.00     0.028 H 
ATOM     97  H25 non d ame     -39.060  13.661  26.259  0.00  0.00     0.028 H 
ATOM     98  H26 non d ame     -40.552  12.940  25.610  0.00  0.00     0.028 H 
ENDBRANCH  93  95
BRANCH  93  99
ATOM     99  C19 non d ame     -39.757  14.603  23.639  0.00  0.00    -0.073 C 
ATOM    100  H27 non d ame     -40.436  14.938  24.423  0.00  0.00     0.028 H 
ATOM    101  H28 non d ame     -39.030  15.387  23.428  0.00  0.00     0.028 H 
ATOM    102  H29 non d ame     -40.326  14.384  22.735  0.00  0.00     0.028 H 
ENDBRANCH  93  99
ENDBRANCH  90  93
ENDBRANCH   1  90
TORSDOF 26
ENDMDL
MODEL 4
REMARK VINA RESULT:      -6.4      2.611      8.926
REMARK  26 active torsions:
REMARK  status: ('A' for Active; 'I' for Inactive)
REMARK    1  A    between atoms: C2_2  and  C3_3 
REMARK    2  A    between atoms: C4_6  and  C5_7 
REMARK       I    between atoms: C5_7  and  N2_9 
REMARK    3  A    between atoms: N2_9  and  C6_10 
REMARK    4  A    between atoms: C6_10  and  C7_11 
REMARK    5  A    between atoms: C6_10  and  C8_13 
REMARK       I    between atoms: C7_11  and  N3_14 
REMARK    6  A    between atoms: N3_14  and  C9_15 
REMARK    7  A    between atoms: C9_15  and  C10_16 
REMARK    8  A    between atoms: C9_15  and  C11_18 
REMARK       I    between atoms: C10_16  and  N4_21 
REMARK    9  A    between atoms: C11_18  and  C12_19 
REMARK   10  A    between atoms: C11_18  and  C13_20 
REMARK   11  A    between atoms: N4_21  and  C14_22 
REMARK   12  A    between atoms: C14_22  and  C15_23 
REMARK   13  A    between atoms: C14_22  and  C16_25 
REMARK       I    between atoms: C15_23  and  N6_40 
REMARK   14  A    between atoms: C16_25  and  C17_26 
REMARK   15  A    between atoms: C17_26  and  C18_27 
REMARK   16  A    between atoms: C17_26  and  C19_28 
REMARK   17  A    between atoms: C20_29  and  C21_30 
REMARK   18  A    between atoms: C20_29  and  C24_33 
REMARK   19  A    between atoms: C20_29  and  N6_40 
REMARK   20  A    between atoms: C21_30  and  C22_31 
REMARK   21  A    between atoms: C22_31  and  C23_32 
REMARK   22  A    between atoms: C23_32  and  O8_43 
REMARK   23  A    between atoms: C24_33  and  C25_34 
REMARK   24  A    between atoms: C28_38  and  O6_39 
REMARK   25  A    between atoms: C29_42  and  O8_43 
REMARK   26  A    between atoms: C29_42  and  C35_49 
ROOT
ATOM      1  C14 non d ame     -36.554  10.455  26.301  0.00  0.00     0.089 C 
ATOM      2  H20 non d ame     -37.069  10.389  27.259  0.00  0.00     0.087 H 
ENDROOT
BRANCH   1   3
ATOM      3  N4  non d ame     -36.714  11.816  25.811  0.00  0.00    -0.346 N 
ATOM      4  C10 non d ame     -37.688  12.756  26.476  0.00  0.00     0.241 C 
ATOM      5  O4  non d ame     -38.334  12.393  27.403  0.00  0.00    -0.271 OA
ATOM      6  H19 non d ame     -36.156  12.105  25.019  0.00  0.00     0.163 HD
BRANCH   4   7
ATOM      7  C9  non d ame     -37.836  14.163  25.959  0.00  0.00     0.092 C 
ATOM      8  H11 non d ame     -38.560  14.697  26.576  0.00  0.00     0.088 H 
BRANCH   7   9
ATOM      9  N3  non d ame     -36.557  14.868  26.084  0.00  0.00    -0.346 N 
ATOM     10  C7  non d ame     -36.458  16.037  26.922  0.00  0.00     0.240 C 
ATOM     11  O3  non d ame     -37.397  16.425  27.502  0.00  0.00    -0.271 OA
ATOM     12  H10 non d ame     -35.738  14.545  25.588  0.00  0.00     0.163 HD
BRANCH  10  13
ATOM     13  C6  non d ame     -35.094  16.785  27.049  0.00  0.00     0.086 C 
ATOM     14  H6  non d ame     -35.169  17.702  27.632  0.00  0.00     0.086 H 
BRANCH  13  15
ATOM     15  N2  non d ame     -34.148  15.926  27.743  0.00  0.00    -0.343 N 
ATOM     16  C5  non d ame     -33.094  16.529  28.562  0.00  0.00     0.273 C 
ATOM     17  O2  non d ame     -33.014  17.704  28.654  0.00  0.00    -0.266 OA
ATOM     18  H5  non d ame     -34.223  14.923  27.656  0.00  0.00     0.163 HD
BRANCH  16  19
ATOM     19  C4  non d ame     -32.088  15.633  29.302  0.00  0.00     0.154 A 
ATOM     20  C1  non d ame     -32.044  14.203  29.308  0.00  0.00    -0.017 A 
ATOM     21  C2  non d ame     -30.944  13.876  30.130  0.00  0.00     0.077 A 
ATOM     22  H1  non d ame     -32.709  13.509  28.793  0.00  0.00     0.091 H 
ATOM     23  O1  non d ame     -30.423  14.995  30.543  0.00  0.00    -0.218 OA
ATOM     24  N1  non d ame     -31.074  16.034  30.073  0.00  0.00    -0.123 NA
BRANCH  21  25
ATOM     25  C3  non d ame     -30.457  12.474  30.470  0.00  0.00    -0.029 C 
ATOM     26  H2  non d ame     -29.640  12.536  31.189  0.00  0.00     0.036 H 
ATOM     27  H3  non d ame     -31.277  11.899  30.901  0.00  0.00     0.036 H 
ATOM     28  H4  non d ame     -30.106  11.981  29.563  0.00  0.00     0.036 H 
ENDBRANCH  21  25
ENDBRANCH  16  19
ENDBRANCH  13  15
BRANCH  13  29
ATOM     29  C8  non d ame     -34.573  17.122  25.675  0.00  0.00    -0.049 C 
ATOM     30  H7  non d ame     -33.593  17.590  25.762  0.00  0.00     0.030 H 
ATOM     31  H8  non d ame     -34.489  16.210  25.085  0.00  0.00     0.030 H 
ATOM     32  H9  non d ame     -35.262  17.810  25.184  0.00  0.00     0.030 H 
ENDBRANCH  13  29
ENDBRANCH  10  13
ENDBRANCH   7   9
BRANCH   7  33
ATOM     33  C11 non d ame     -38.260  14.123  24.462  0.00  0.00    -0.033 C 
ATOM     34  H12 non d ame     -37.511  13.541  23.924  0.00  0.00     0.042 H 
BRANCH  33  35
ATOM     35  C12 non d ame     -39.633  13.405  24.278  0.00  0.00    -0.071 C 
ATOM     36  H13 non d ame     -39.465  12.375  23.963  0.00  0.00     0.028 H 
ATOM     37  H14 non d ame     -40.176  13.412  25.222  0.00  0.00     0.028 H 
ATOM     38  H15 non d ame     -40.216  13.925  23.518  0.00  0.00     0.028 H 
ENDBRANCH  33  35
BRANCH  33  39
ATOM     39  C13 non d ame     -38.286  15.560  23.849  0.00  0.00    -0.071 C 
ATOM     40  H16 non d ame     -39.164  16.094  24.213  0.00  0.00     0.028 H 
ATOM     41  H17 non d ame     -37.385  16.098  24.146  0.00  0.00     0.028 H 
ATOM     42  H18 non d ame     -38.326  15.492  22.762  0.00  0.00     0.028 H 
ENDBRANCH  33  39
ENDBRANCH   7  33
ENDBRANCH   4   7
ENDBRANCH   1   3
BRANCH   1  43
ATOM     43  C15 non d ame     -35.033  10.151  26.429  0.00  0.00     0.240 C 
ATOM     44  O5  non d ame     -34.583   9.825  27.479  0.00  0.00    -0.271 OA
ATOM     45  N6  non d ame     -34.141  10.257  25.240  0.00  0.00    -0.355 N 
ATOM     46  H46 non d ame     -34.513  10.528  24.341  0.00  0.00     0.162 HD
BRANCH  45  47
ATOM     47  C20 non d ame     -32.698   9.962  25.378  0.00  0.00     0.013 C 
ATOM     48  H30 non d ame     -32.498   9.751  26.428  0.00  0.00     0.072 H 
BRANCH  47  49
ATOM     49  C21 non d ame     -31.898  11.165  24.932  0.00  0.00    -0.038 C 
ATOM     50  H31 non d ame     -30.883  10.801  24.772  0.00  0.00     0.036 H 
ATOM     51  H32 non d ame     -32.458  11.601  24.104  0.00  0.00     0.036 H 
BRANCH  49  52
ATOM     52  C22 non d ame     -31.803  12.259  26.018  0.00  0.00     0.018 C 
ATOM     53  H33 non d ame     -31.984  11.750  26.965  0.00  0.00     0.048 H 
ATOM     54  H34 non d ame     -30.854  12.767  25.844  0.00  0.00     0.048 H 
BRANCH  52  55
ATOM     55  C23 non d ame     -32.902  13.352  25.904  0.00  0.00     0.259 C 
ATOM     56  O7  non d ame     -33.953  13.209  26.439  0.00  0.00    -0.265 OA
BRANCH  55  57
ATOM     57  O8  non d ame     -32.642  14.523  25.140  0.00  0.00    -0.317 OA
BRANCH  57  58
ATOM     58  C29 non d ame     -31.258  14.882  25.076  0.00  0.00     0.052 C 
ATOM     59  H47 non d ame     -31.194  15.886  25.495  0.00  0.00     0.082 H 
ATOM     60  H48 non d ame     -30.719  14.060  25.546  0.00  0.00     0.082 H 
BRANCH  58  61
ATOM     61  C35 non d ame     -30.849  14.946  23.581  0.00  0.00    -0.034 A 
ATOM     62  C30 non d ame     -30.087  13.925  23.022  0.00  0.00    -0.075 A 
ATOM     63  C31 non d ame     -29.719  13.983  21.679  0.00  0.00    -0.082 A 
ATOM     64  H49 non d ame     -29.778  13.079  23.637  0.00  0.00     0.084 H 
ATOM     65  C32 non d ame     -30.113  15.070  20.893  0.00  0.00    -0.083 A 
ATOM     66  H50 non d ame     -29.123  13.180  21.244  0.00  0.00     0.083 H 
ATOM     67  C33 non d ame     -30.870  16.088  21.456  0.00  0.00    -0.082 A 
ATOM     68  H51 non d ame     -29.830  15.123  19.842  0.00  0.00     0.083 H 
ATOM     69  C34 non d ame     -31.242  16.033  22.798  0.00  0.00    -0.075 A 
ATOM     70  H52 non d ame     -31.174  16.936  20.841  0.00  0.00     0.083 H 
ATOM     71  H53 non d ame     -31.838  16.837  23.232  0.00  0.00     0.084 H 
ENDBRANCH  58  61
ENDBRANCH  57  58
ENDBRANCH  55  57
ENDBRANCH  52  55
ENDBRANCH  49  52
ENDBRANCH  47  49
BRANCH  47  72
ATOM     72  C24 non d ame     -32.332   8.757  24.514  0.00  0.00    -0.039 C 
ATOM     73  H35 non d ame     -31.322   8.479  24.817  0.00  0.00     0.036 H 
ATOM     74  H36 non d ame     -33.152   8.050  24.640  0.00  0.00     0.036 H 
BRANCH  72  75
ATOM     75  C25 non d ame     -32.270   9.139  22.960  0.00  0.00    -0.001 C 
ATOM     76  C26 non d ame     -33.524   8.437  22.161  0.00  0.00    -0.035 C 
ATOM     77  C27 non d ame     -33.038   7.770  21.086  0.00  0.00     0.085 C 
ATOM     78  H38 non d ame     -33.963   7.649  22.772  0.00  0.00     0.036 H 
ATOM     79  H39 non d ame     -34.162   9.203  21.718  0.00  0.00     0.036 H 
ATOM     80  N5  non d ame     -31.542   7.679  21.263  0.00  0.00    -0.049 N 
ATOM     81  H40 non d ame     -33.465   6.769  21.148  0.00  0.00     0.075 H 
ATOM     82  H41 non d ame     -33.257   8.403  20.227  0.00  0.00     0.075 H 
ATOM     83  C28 non d ame     -31.167   8.737  22.423  0.00  0.00     0.193 C 
ATOM     84  H42 non d ame     -31.350   6.748  21.602  0.00  0.00     0.280 HD
ATOM     85  H43 non d ame     -31.133   7.995  20.395  0.00  0.00     0.280 HD
ATOM     86  H44 non d ame     -30.708   9.694  22.173  0.00  0.00     0.129 H 
ATOM     87  H37 non d ame     -32.118  10.207  22.802  0.00  0.00     0.046 H 
BRANCH  83  88
ATOM     88  O6  non d ame     -30.292   8.133  23.377  0.00  0.00    -0.369 OA
ATOM     89  H45 non d ame     -29.391   8.423  23.215  0.00  0.00     0.212 HD
ENDBRANCH  83  88
ENDBRANCH  72  75
ENDBRANCH  47  72
ENDBRANCH  45  47
ENDBRANCH   1  43
BRANCH   1  90
ATOM     90  C16 non d ame     -37.186   9.493  25.308  0.00  0.00    -0.035 C 
ATOM     91  H21 non d ame     -37.819  10.110  24.671  0.00  0.00     0.037 H 
ATOM     92  H22 non d ame     -36.354   8.937  24.875  0.00  0.00     0.037 H 
BRANCH  90  93
ATOM     93  C17 non d ame     -38.125   8.436  25.971  0.00  0.00    -0.059 C 
ATOM     94  H23 non d ame     -39.076   8.459  25.440  0.00  0.00     0.038 H 
BRANCH  93  95
ATOM     95  C18 non d ame     -37.552   6.987  25.859  0.00  0.00    -0.073 C 
ATOM     96  H24 non d ame     -37.742   6.597  24.860  0.00  0.00     0.028 H 
ATOM     97  H25 non d ame     -36.479   7.005  26.043  0.00  0.00     0.028 H 
ATOM     98  H26 non d ame     -38.037   6.347  26.597  0.00  0.00     0.028 H 
ENDBRANCH  93  95
BRANCH  93  99
ATOM     99  C19 non d ame     -38.410   8.798  27.431  0.00  0.00    -0.073 C 
ATOM    100  H27 non d ame     -39.307   9.416  27.484  0.00  0.00     0.028 H 
ATOM    101  H28 non d ame     -38.564   7.886  28.008  0.00  0.00     0.028 H 
ATOM    102  H29 non d ame     -37.564   9.349  27.841  0.00  0.00     0.028 H 
ENDBRANCH  93  99
ENDBRANCH  90  93
ENDBRANCH   1  90
TORSDOF 26
ENDMDL
MODEL 5
REMARK VINA RESULT:      -6.4      2.685      7.168
REMARK  26 active torsions:
REMARK  status: ('A' for Active; 'I' for Inactive)
REMARK    1  A    between atoms: C2_2  and  C3_3 
REMARK    2  A    between atoms: C4_6  and  C5_7 
REMARK       I    between atoms: C5_7  and  N2_9 
REMARK    3  A    between atoms: N2_9  and  C6_10 
REMARK    4  A    between atoms: C6_10  and  C7_11 
REMARK    5  A    between atoms: C6_10  and  C8_13 
REMARK       I    between atoms: C7_11  and  N3_14 
REMARK    6  A    between atoms: N3_14  and  C9_15 
REMARK    7  A    between atoms: C9_15  and  C10_16 
REMARK    8  A    between atoms: C9_15  and  C11_18 
REMARK       I    between atoms: C10_16  and  N4_21 
REMARK    9  A    between atoms: C11_18  and  C12_19 
REMARK   10  A    between atoms: C11_18  and  C13_20 
REMARK   11  A    between atoms: N4_21  and  C14_22 
REMARK   12  A    between atoms: C14_22  and  C15_23 
REMARK   13  A    between atoms: C14_22  and  C16_25 
REMARK       I    between atoms: C15_23  and  N6_40 
REMARK   14  A    between atoms: C16_25  and  C17_26 
REMARK   15  A    between atoms: C17_26  and  C18_27 
REMARK   16  A    between atoms: C17_26  and  C19_28 
REMARK   17  A    between atoms: C20_29  and  C21_30 
REMARK   18  A    between atoms: C20_29  and  C24_33 
REMARK   19  A    between atoms: C20_29  and  N6_40 
REMARK   20  A    between atoms: C21_30  and  C22_31 
REMARK   21  A    between atoms: C22_31  and  C23_32 
REMARK   22  A    between atoms: C23_32  and  O8_43 
REMARK   23  A    between atoms: C24_33  and  C25_34 
REMARK   24  A    between atoms: C28_38  and  O6_39 
REMARK   25  A    between atoms: C29_42  and  O8_43 
REMARK   26  A    between atoms: C29_42  and  C35_49 
ROOT
ATOM      1  C14 non d ame     -35.352  10.268  24.824  0.00  0.00     0.089 C 
ATOM      2  H20 non d ame     -35.383  10.732  23.838  0.00  0.00     0.087 H 
ENDROOT
BRANCH   1   3
ATOM      3  N4  non d ame     -34.463   9.119  24.740  0.00  0.00    -0.346 N 
ATOM      4  C10 non d ame     -34.002   8.609  23.398  0.00  0.00     0.241 C 
ATOM      5  O4  non d ame     -34.362   9.137  22.399  0.00  0.00    -0.271 OA
ATOM      6  H19 non d ame     -34.169   8.682  25.602  0.00  0.00     0.163 HD
BRANCH   4   7
ATOM      7  C9  non d ame     -33.077   7.422  23.331  0.00  0.00     0.092 C 
ATOM      8  H11 non d ame     -33.293   6.849  22.429  0.00  0.00     0.088 H 
BRANCH   7   9
ATOM      9  N3  non d ame     -31.690   7.888  23.226  0.00  0.00    -0.346 N 
ATOM     10  C7  non d ame     -31.068   8.011  21.930  0.00  0.00     0.240 C 
ATOM     11  O3  non d ame     -31.668   7.739  20.963  0.00  0.00    -0.271 OA
ATOM     12  H10 non d ame     -31.160   8.125  24.052  0.00  0.00     0.163 HD
BRANCH  10  13
ATOM     13  C6  non d ame     -29.592   8.505  21.825  0.00  0.00     0.086 C 
ATOM     14  H6  non d ame     -29.071   8.095  20.960  0.00  0.00     0.086 H 
BRANCH  13  15
ATOM     15  N2  non d ame     -29.588   9.950  21.667  0.00  0.00    -0.343 N 
ATOM     16  C5  non d ame     -29.993  10.799  22.789  0.00  0.00     0.273 C 
ATOM     17  O2  non d ame     -30.324  10.310  23.813  0.00  0.00    -0.266 OA
ATOM     18  H5  non d ame     -29.306  10.359  20.787  0.00  0.00     0.163 HD
BRANCH  16  19
ATOM     19  C4  non d ame     -29.992  12.328  22.636  0.00  0.00     0.154 A 
ATOM     20  C1  non d ame     -30.742  13.274  23.405  0.00  0.00    -0.017 A 
ATOM     21  C2  non d ame     -30.388  14.535  22.874  0.00  0.00     0.077 A 
ATOM     22  H1  non d ame     -31.436  13.077  24.222  0.00  0.00     0.091 H 
ATOM     23  O1  non d ame     -29.535  14.326  21.915  0.00  0.00    -0.218 OA
ATOM     24  N1  non d ame     -29.288  13.046  21.757  0.00  0.00    -0.123 NA
BRANCH  21  25
ATOM     25  C3  non d ame     -30.910  15.888  23.340  0.00  0.00    -0.029 C 
ATOM     26  H2  non d ame     -30.543  16.668  22.674  0.00  0.00     0.036 H 
ATOM     27  H3  non d ame     -32.000  15.881  23.326  0.00  0.00     0.036 H 
ATOM     28  H4  non d ame     -30.562  16.082  24.355  0.00  0.00     0.036 H 
ENDBRANCH  21  25
ENDBRANCH  16  19
ENDBRANCH  13  15
BRANCH  13  29
ATOM     29  C8  non d ame     -28.840   8.120  23.074  0.00  0.00    -0.049 C 
ATOM     30  H7  non d ame     -28.674   7.042  23.080  0.00  0.00     0.030 H 
ATOM     31  H8  non d ame     -27.880   8.635  23.093  0.00  0.00     0.030 H 
ATOM     32  H9  non d ame     -29.423   8.403  23.951  0.00  0.00     0.030 H 
ENDBRANCH  13  29
ENDBRANCH  10  13
ENDBRANCH   7   9
BRANCH   7  33
ATOM     33  C11 non d ame     -33.237   6.566  24.621  0.00  0.00    -0.033 C 
ATOM     34  H12 non d ame     -33.724   7.189  25.371  0.00  0.00     0.042 H 
BRANCH  33  35
ATOM     35  C12 non d ame     -34.154   5.328  24.372  0.00  0.00    -0.071 C 
ATOM     36  H13 non d ame     -33.700   4.443  24.817  0.00  0.00     0.028 H 
ATOM     37  H14 non d ame     -35.130   5.503  24.825  0.00  0.00     0.028 H 
ATOM     38  H15 non d ame     -34.273   5.174  23.300  0.00  0.00     0.028 H 
ENDBRANCH  33  35
BRANCH  33  39
ATOM     39  C13 non d ame     -31.844   6.134  25.182  0.00  0.00    -0.071 C 
ATOM     40  H16 non d ame     -31.063   6.427  24.480  0.00  0.00     0.028 H 
ATOM     41  H17 non d ame     -31.672   6.622  26.142  0.00  0.00     0.028 H 
ATOM     42  H18 non d ame     -31.826   5.053  25.317  0.00  0.00     0.028 H 
ENDBRANCH  33  39
ENDBRANCH   7  33
ENDBRANCH   4   7
ENDBRANCH   1   3
BRANCH   1  43
ATOM     43  C15 non d ame     -34.809  11.237  25.913  0.00  0.00     0.240 C 
ATOM     44  O5  non d ame     -35.359  11.313  26.964  0.00  0.00    -0.271 OA
ATOM     45  N6  non d ame     -33.598  12.064  25.648  0.00  0.00    -0.355 N 
ATOM     46  H46 non d ame     -33.120  12.005  24.761  0.00  0.00     0.162 HD
BRANCH  45  47
ATOM     47  C20 non d ame     -33.093  12.980  26.694  0.00  0.00     0.013 C 
ATOM     48  H30 non d ame     -33.609  12.743  27.624  0.00  0.00     0.072 H 
BRANCH  47  49
ATOM     49  C21 non d ame     -33.384  14.408  26.291  0.00  0.00    -0.038 C 
ATOM     50  H31 non d ame     -32.420  14.842  26.026  0.00  0.00     0.036 H 
ATOM     51  H32 non d ame     -34.178  14.347  25.546  0.00  0.00     0.036 H 
BRANCH  49  52
ATOM     52  C22 non d ame     -33.940  15.257  27.454  0.00  0.00     0.018 C 
ATOM     53  H33 non d ame     -34.759  15.838  27.031  0.00  0.00     0.048 H 
ATOM     54  H34 non d ame     -34.133  14.556  28.266  0.00  0.00     0.048 H 
BRANCH  52  55
ATOM     55  C23 non d ame     -32.926  16.293  28.015  0.00  0.00     0.259 C 
ATOM     56  O7  non d ame     -32.619  16.276  29.163  0.00  0.00    -0.265 OA
BRANCH  55  57
ATOM     57  O8  non d ame     -32.376  17.272  27.142  0.00  0.00    -0.317 OA
BRANCH  57  58
ATOM     58  C29 non d ame     -32.561  18.619  27.587  0.00  0.00     0.052 C 
ATOM     59  H47 non d ame     -32.558  18.572  28.676  0.00  0.00     0.082 H 
ATOM     60  H48 non d ame     -31.809  19.208  27.064  0.00  0.00     0.082 H 
BRANCH  58  61
ATOM     61  C35 non d ame     -33.965  19.088  27.119  0.00  0.00    -0.034 A 
ATOM     62  C30 non d ame     -34.854  19.643  28.034  0.00  0.00    -0.075 A 
ATOM     63  C31 non d ame     -36.115  20.064  27.614  0.00  0.00    -0.082 A 
ATOM     64  H49 non d ame     -34.564  19.747  29.080  0.00  0.00     0.084 H 
ATOM     65  C32 non d ame     -36.486  19.927  26.274  0.00  0.00    -0.083 A 
ATOM     66  H50 non d ame     -36.810  20.500  28.333  0.00  0.00     0.083 H 
ATOM     67  C33 non d ame     -35.597  19.370  25.366  0.00  0.00    -0.082 A 
ATOM     68  H51 non d ame     -37.470  20.254  25.937  0.00  0.00     0.083 H 
ATOM     69  C34 non d ame     -34.335  18.949  25.780  0.00  0.00    -0.075 A 
ATOM     70  H52 non d ame     -35.890  19.262  24.321  0.00  0.00     0.083 H 
ATOM     71  H53 non d ame     -33.641  18.513  25.061  0.00  0.00     0.084 H 
ENDBRANCH  58  61
ENDBRANCH  57  58
ENDBRANCH  55  57
ENDBRANCH  52  55
ENDBRANCH  49  52
ENDBRANCH  47  49
BRANCH  47  72
ATOM     72  C24 non d ame     -31.586  12.794  26.860  0.00  0.00    -0.039 C 
ATOM     73  H35 non d ame     -31.318  11.983  26.183  0.00  0.00     0.036 H 
ATOM     74  H36 non d ame     -31.154  13.785  26.721  0.00  0.00     0.036 H 
BRANCH  72  75
ATOM     75  C25 non d ame     -31.208  12.317  28.342  0.00  0.00    -0.001 C 
ATOM     76  C26 non d ame     -32.577  11.999  29.194  0.00  0.00    -0.035 C 
ATOM     77  C27 non d ame     -32.524  12.667  30.371  0.00  0.00     0.085 C 
ATOM     78  H38 non d ame     -33.440  12.435  28.692  0.00  0.00     0.036 H 
ATOM     79  H39 non d ame     -32.594  10.951  29.497  0.00  0.00     0.036 H 
ATOM     80  N5  non d ame     -31.399  13.668  30.260  0.00  0.00    -0.049 N 
ATOM     81  H40 non d ame     -33.470  13.202  30.445  0.00  0.00     0.075 H 
ATOM     82  H41 non d ame     -32.261  11.920  31.119  0.00  0.00     0.075 H 
ATOM     83  C28 non d ame     -30.537  13.226  28.968  0.00  0.00     0.193 C 
ATOM     84  H42 non d ame     -31.829  14.562  30.069  0.00  0.00     0.280 HD
ATOM     85  H43 non d ame     -30.828  13.548  31.084  0.00  0.00     0.280 HD
ATOM     86  H44 non d ame     -29.580  12.718  29.089  0.00  0.00     0.129 H 
ATOM     87  H37 non d ame     -30.433  11.550  28.343  0.00  0.00     0.046 H 
BRANCH  83  88
ATOM     88  O6  non d ame     -30.267  14.361  28.144  0.00  0.00    -0.369 OA
ATOM     89  H45 non d ame     -31.091  14.700  27.786  0.00  0.00     0.212 HD
ENDBRANCH  83  88
ENDBRANCH  72  75
ENDBRANCH  47  72
ENDBRANCH  45  47
ENDBRANCH   1  43
BRANCH   1  90
ATOM     90  C16 non d ame     -36.743   9.791  25.211  0.00  0.00    -0.035 C 
ATOM     91  H21 non d ame     -37.034  10.409  26.060  0.00  0.00     0.037 H 
ATOM     92  H22 non d ame     -37.326   9.822  24.290  0.00  0.00     0.037 H 
BRANCH  90  93
ATOM     93  C17 non d ame     -36.782   8.311  25.709  0.00  0.00    -0.059 C 
ATOM     94  H23 non d ame     -35.768   7.917  25.653  0.00  0.00     0.038 H 
BRANCH  93  95
ATOM     95  C18 non d ame     -37.255   8.202  27.194  0.00  0.00    -0.073 C 
ATOM     96  H24 non d ame     -37.544   9.187  27.558  0.00  0.00     0.028 H 
ATOM     97  H25 non d ame     -38.110   7.528  27.255  0.00  0.00     0.028 H 
ATOM     98  H26 non d ame     -36.442   7.812  27.806  0.00  0.00     0.028 H 
ENDBRANCH  93  95
BRANCH  93  99
ATOM     99  C19 non d ame     -37.656   7.450  24.794  0.00  0.00    -0.073 C 
ATOM    100  H27 non d ame     -37.715   6.438  25.195  0.00  0.00     0.028 H 
ATOM    101  H28 non d ame     -38.657   7.877  24.739  0.00  0.00     0.028 H 
ATOM    102  H29 non d ame     -37.219   7.420  23.796  0.00  0.00     0.028 H 
ENDBRANCH  93  99
ENDBRANCH  90  93
ENDBRANCH   1  90
TORSDOF 26
ENDMDL
MODEL 6
REMARK VINA RESULT:      -6.3      2.305      7.249
REMARK  26 active torsions:
REMARK  status: ('A' for Active; 'I' for Inactive)
REMARK    1  A    between atoms: C2_2  and  C3_3 
REMARK    2  A    between atoms: C4_6  and  C5_7 
REMARK       I    between atoms: C5_7  and  N2_9 
REMARK    3  A    between atoms: N2_9  and  C6_10 
REMARK    4  A    between atoms: C6_10  and  C7_11 
REMARK    5  A    between atoms: C6_10  and  C8_13 
REMARK       I    between atoms: C7_11  and  N3_14 
REMARK    6  A    between atoms: N3_14  and  C9_15 
REMARK    7  A    between atoms: C9_15  and  C10_16 
REMARK    8  A    between atoms: C9_15  and  C11_18 
REMARK       I    between atoms: C10_16  and  N4_21 
REMARK    9  A    between atoms: C11_18  and  C12_19 
REMARK   10  A    between atoms: C11_18  and  C13_20 
REMARK   11  A    between atoms: N4_21  and  C14_22 
REMARK   12  A    between atoms: C14_22  and  C15_23 
REMARK   13  A    between atoms: C14_22  and  C16_25 
REMARK       I    between atoms: C15_23  and  N6_40 
REMARK   14  A    between atoms: C16_25  and  C17_26 
REMARK   15  A    between atoms: C17_26  and  C18_27 
REMARK   16  A    between atoms: C17_26  and  C19_28 
REMARK   17  A    between atoms: C20_29  and  C21_30 
REMARK   18  A    between atoms: C20_29  and  C24_33 
REMARK   19  A    between atoms: C20_29  and  N6_40 
REMARK   20  A    between atoms: C21_30  and  C22_31 
REMARK   21  A    between atoms: C22_31  and  C23_32 
REMARK   22  A    between atoms: C23_32  and  O8_43 
REMARK   23  A    between atoms: C24_33  and  C25_34 
REMARK   24  A    between atoms: C28_38  and  O6_39 
REMARK   25  A    between atoms: C29_42  and  O8_43 
REMARK   26  A    between atoms: C29_42  and  C35_49 
ROOT
ATOM      1  C14 non d ame     -36.755  13.662  25.486  0.00  0.00     0.089 C 
ATOM      2  H20 non d ame     -37.433  13.433  26.309  0.00  0.00     0.087 H 
ENDROOT
BRANCH   1   3
ATOM      3  N4  non d ame     -36.415  15.074  25.577  0.00  0.00    -0.346 N 
ATOM      4  C10 non d ame     -37.290  16.019  26.361  0.00  0.00     0.241 C 
ATOM      5  O4  non d ame     -38.265  15.620  26.908  0.00  0.00    -0.271 OA
ATOM      6  H19 non d ame     -35.582  15.394  25.103  0.00  0.00     0.163 HD
BRANCH   4   7
ATOM      7  C9  non d ame     -36.919  17.476  26.450  0.00  0.00     0.092 C 
ATOM      8  H11 non d ame     -37.284  17.882  27.394  0.00  0.00     0.088 H 
BRANCH   7   9
ATOM      9  N3  non d ame     -35.459  17.610  26.457  0.00  0.00    -0.346 N 
ATOM     10  C7  non d ame     -34.751  17.711  27.709  0.00  0.00     0.240 C 
ATOM     11  O3  non d ame     -35.339  17.687  28.720  0.00  0.00    -0.271 OA
ATOM     12  H10 non d ame     -34.938  17.634  25.592  0.00  0.00     0.163 HD
BRANCH  10  13
ATOM     13  C6  non d ame     -33.197  17.856  27.709  0.00  0.00     0.086 C 
ATOM     14  H6  non d ame     -32.831  18.460  28.539  0.00  0.00     0.086 H 
BRANCH  13  15
ATOM     15  N2  non d ame     -32.600  16.539  27.858  0.00  0.00    -0.343 N 
ATOM     16  C5  non d ame     -31.900  16.201  29.100  0.00  0.00     0.273 C 
ATOM     17  O2  non d ame     -31.821  16.996  29.971  0.00  0.00    -0.266 OA
ATOM     18  H5  non d ame     -32.671  15.867  27.108  0.00  0.00     0.163 HD
BRANCH  16  19
ATOM     19  C4  non d ame     -31.266  14.812  29.271  0.00  0.00     0.154 A 
ATOM     20  C1  non d ame     -31.537  13.859  30.304  0.00  0.00    -0.017 A 
ATOM     21  C2  non d ame     -30.703  12.758  30.011  0.00  0.00     0.077 A 
ATOM     22  H1  non d ame     -32.233  13.953  31.139  0.00  0.00     0.091 H 
ATOM     23  O1  non d ame     -30.037  13.053  28.933  0.00  0.00    -0.218 OA
ATOM     24  N1  non d ame     -30.348  14.246  28.483  0.00  0.00    -0.123 NA
BRANCH  21  25
ATOM     25  C3  non d ame     -30.604  11.464  30.808  0.00  0.00    -0.029 C 
ATOM     26  H2  non d ame     -29.711  10.918  30.506  0.00  0.00     0.036 H 
ATOM     27  H3  non d ame     -30.545  11.697  31.871  0.00  0.00     0.036 H 
ATOM     28  H4  non d ame     -31.486  10.852  30.619  0.00  0.00     0.036 H 
ENDBRANCH  21  25
ENDBRANCH  16  19
ENDBRANCH  13  15
BRANCH  13  29
ATOM     29  C8  non d ame     -32.748  18.483  26.414  0.00  0.00    -0.049 C 
ATOM     30  H7  non d ame     -33.046  17.848  25.580  0.00  0.00     0.030 H 
ATOM     31  H8  non d ame     -33.210  19.464  26.306  0.00  0.00     0.030 H 
ATOM     32  H9  non d ame     -31.663  18.591  26.419  0.00  0.00     0.030 H 
ENDBRANCH  13  29
ENDBRANCH  10  13
ENDBRANCH   7   9
BRANCH   7  33
ATOM     33  C11 non d ame     -37.501  18.235  25.222  0.00  0.00    -0.033 C 
ATOM     34  H12 non d ame     -37.515  17.540  24.382  0.00  0.00     0.042 H 
BRANCH  33  35
ATOM     35  C12 non d ame     -38.973  18.688  25.479  0.00  0.00    -0.071 C 
ATOM     36  H13 non d ame     -39.618  17.812  25.539  0.00  0.00     0.028 H 
ATOM     37  H14 non d ame     -39.023  19.242  26.416  0.00  0.00     0.028 H 
ATOM     38  H15 non d ame     -39.304  19.327  24.660  0.00  0.00     0.028 H 
ENDBRANCH  33  35
BRANCH  33  39
ATOM     39  C13 non d ame     -36.595  19.447  24.832  0.00  0.00    -0.071 C 
ATOM     40  H16 non d ame     -37.082  20.375  25.131  0.00  0.00     0.028 H 
ATOM     41  H17 non d ame     -35.634  19.360  25.340  0.00  0.00     0.028 H 
ATOM     42  H18 non d ame     -36.437  19.450  23.754  0.00  0.00     0.028 H 
ENDBRANCH  33  39
ENDBRANCH   7  33
ENDBRANCH   4   7
ENDBRANCH   1   3
BRANCH   1  43
ATOM     43  C15 non d ame     -35.442  12.830  25.558  0.00  0.00     0.240 C 
ATOM     44  O5  non d ame     -35.481  11.651  25.415  0.00  0.00    -0.271 OA
ATOM     45  N6  non d ame     -34.135  13.506  25.796  0.00  0.00    -0.355 N 
ATOM     46  H46 non d ame     -34.089  14.507  25.914  0.00  0.00     0.162 HD
BRANCH  45  47
ATOM     47  C20 non d ame     -32.895  12.701  25.860  0.00  0.00     0.013 C 
ATOM     48  H30 non d ame     -32.916  11.988  25.036  0.00  0.00     0.072 H 
BRANCH  47  49
ATOM     49  C21 non d ame     -32.845  11.965  27.180  0.00  0.00    -0.038 C 
ATOM     50  H31 non d ame     -32.200  12.561  27.826  0.00  0.00     0.036 H 
ATOM     51  H32 non d ame     -33.885  11.790  27.459  0.00  0.00     0.036 H 
BRANCH  49  52
ATOM     52  C22 non d ame     -32.184  10.574  27.066  0.00  0.00     0.018 C 
ATOM     53  H33 non d ame     -31.711  10.552  26.085  0.00  0.00     0.048 H 
ATOM     54  H34 non d ame     -31.579  10.460  27.966  0.00  0.00     0.048 H 
BRANCH  52  55
ATOM     55  C23 non d ame     -33.197   9.396  27.079  0.00  0.00     0.259 C 
ATOM     56  O7  non d ame     -33.054   8.469  26.350  0.00  0.00    -0.265 OA
BRANCH  55  57
ATOM     57  O8  non d ame     -34.309   9.443  27.965  0.00  0.00    -0.317 OA
BRANCH  57  58
ATOM     58  C29 non d ame     -34.237   8.504  29.041  0.00  0.00     0.052 C 
ATOM     59  H47 non d ame     -35.048   7.796  28.869  0.00  0.00     0.082 H 
ATOM     60  H48 non d ame     -33.205   8.155  29.059  0.00  0.00     0.082 H 
BRANCH  58  61
ATOM     61  C35 non d ame     -34.521   9.266  30.362  0.00  0.00    -0.034 A 
ATOM     62  C30 non d ame     -35.322   8.688  31.342  0.00  0.00    -0.075 A 
ATOM     63  C31 non d ame     -35.578   9.373  32.529  0.00  0.00    -0.082 A 
ATOM     64  H49 non d ame     -35.751   7.699  31.179  0.00  0.00     0.084 H 
ATOM     65  C32 non d ame     -35.030  10.642  32.734  0.00  0.00    -0.083 A 
ATOM     66  H50 non d ame     -36.205   8.916  33.295  0.00  0.00     0.083 H 
ATOM     67  C33 non d ame     -34.233  11.216  31.752  0.00  0.00    -0.082 A 
ATOM     68  H51 non d ame     -35.224  11.184  33.659  0.00  0.00     0.083 H 
ATOM     69  C34 non d ame     -33.974  10.534  30.565  0.00  0.00    -0.075 A 
ATOM     70  H52 non d ame     -33.809  12.207  31.915  0.00  0.00     0.083 H 
ATOM     71  H53 non d ame     -33.346  10.991  29.800  0.00  0.00     0.084 H 
ENDBRANCH  58  61
ENDBRANCH  57  58
ENDBRANCH  55  57
ENDBRANCH  52  55
ENDBRANCH  49  52
ENDBRANCH  47  49
BRANCH  47  72
ATOM     72  C24 non d ame     -31.679  13.616  25.740  0.00  0.00    -0.039 C 
ATOM     73  H35 non d ame     -31.866  14.439  26.430  0.00  0.00     0.036 H 
ATOM     74  H36 non d ame     -30.814  12.969  25.886  0.00  0.00     0.036 H 
BRANCH  72  75
ATOM     75  C25 non d ame     -31.555  14.248  24.273  0.00  0.00    -0.001 C 
ATOM     76  C26 non d ame     -30.636  13.273  23.319  0.00  0.00    -0.035 C 
ATOM     77  C27 non d ame     -29.667  14.019  22.737  0.00  0.00     0.085 C 
ATOM     78  H38 non d ame     -30.080  12.566  23.934  0.00  0.00     0.036 H 
ATOM     79  H39 non d ame     -31.225  12.915  22.474  0.00  0.00     0.036 H 
ATOM     80  N5  non d ame     -29.638  15.345  23.459  0.00  0.00    -0.049 N 
ATOM     81  H40 non d ame     -28.735  13.488  22.931  0.00  0.00     0.075 H 
ATOM     82  H41 non d ame     -30.000  14.180  21.712  0.00  0.00     0.075 H 
ATOM     83  C28 non d ame     -31.006  15.416  24.313  0.00  0.00     0.193 C 
ATOM     84  H42 non d ame     -28.860  15.304  24.101  0.00  0.00     0.280 HD
ATOM     85  H43 non d ame     -29.666  16.059  22.745  0.00  0.00     0.280 HD
ATOM     86  H44 non d ame     -31.837  16.037  23.976  0.00  0.00     0.129 H 
ATOM     87  H37 non d ame     -32.520  14.564  23.877  0.00  0.00     0.046 H 
BRANCH  83  88
ATOM     88  O6  non d ame     -30.731  15.838  25.650  0.00  0.00    -0.369 OA
ATOM     89  H45 non d ame     -31.039  15.169  26.266  0.00  0.00     0.212 HD
ENDBRANCH  83  88
ENDBRANCH  72  75
ENDBRANCH  47  72
ENDBRANCH  45  47
ENDBRANCH   1  43
BRANCH   1  90
ATOM     90  C16 non d ame     -37.451  13.404  24.159  0.00  0.00    -0.035 C 
ATOM     91  H21 non d ame     -37.522  14.378  23.676  0.00  0.00     0.037 H 
ATOM     92  H22 non d ame     -36.884  12.602  23.686  0.00  0.00     0.037 H 
BRANCH  90  93
ATOM     93  C17 non d ame     -38.915  12.880  24.311  0.00  0.00    -0.059 C 
ATOM     94  H23 non d ame     -39.586  13.722  24.144  0.00  0.00     0.038 H 
BRANCH  93  95
ATOM     95  C18 non d ame     -39.259  11.780  23.256  0.00  0.00    -0.073 C 
ATOM     96  H24 non d ame     -39.461  12.250  22.294  0.00  0.00     0.028 H 
ATOM     97  H25 non d ame     -38.417  11.096  23.156  0.00  0.00     0.028 H 
ATOM     98  H26 non d ame     -40.140  11.227  23.583  0.00  0.00     0.028 H 
ENDBRANCH  93  95
BRANCH  93  99
ATOM     99  C19 non d ame     -39.168  12.371  25.732  0.00  0.00    -0.073 C 
ATOM    100  H27 non d ame     -40.227  12.141  25.852  0.00  0.00     0.028 H 
ATOM    101  H28 non d ame     -38.580  11.470  25.906  0.00  0.00     0.028 H 
ATOM    102  H29 non d ame     -38.879  13.138  26.450  0.00  0.00     0.028 H 
ENDBRANCH  93  99
ENDBRANCH  90  93
ENDBRANCH   1  90
TORSDOF 26
ENDMDL
MODEL 7
REMARK VINA RESULT:      -6.3      2.749      6.802
REMARK  26 active torsions:
REMARK  status: ('A' for Active; 'I' for Inactive)
REMARK    1  A    between atoms: C2_2  and  C3_3 
REMARK    2  A    between atoms: C4_6  and  C5_7 
REMARK       I    between atoms: C5_7  and  N2_9 
REMARK    3  A    between atoms: N2_9  and  C6_10 
REMARK    4  A    between atoms: C6_10  and  C7_11 
REMARK    5  A    between atoms: C6_10  and  C8_13 
REMARK       I    between atoms: C7_11  and  N3_14 
REMARK    6  A    between atoms: N3_14  and  C9_15 
REMARK    7  A    between atoms: C9_15  and  C10_16 
REMARK    8  A    between atoms: C9_15  and  C11_18 
REMARK       I    between atoms: C10_16  and  N4_21 
REMARK    9  A    between atoms: C11_18  and  C12_19 
REMARK   10  A    between atoms: C11_18  and  C13_20 
REMARK   11  A    between atoms: N4_21  and  C14_22 
REMARK   12  A    between atoms: C14_22  and  C15_23 
REMARK   13  A    between atoms: C14_22  and  C16_25 
REMARK       I    between atoms: C15_23  and  N6_40 
REMARK   14  A    between atoms: C16_25  and  C17_26 
REMARK   15  A    between atoms: C17_26  and  C18_27 
REMARK   16  A    between atoms: C17_26  and  C19_28 
REMARK   17  A    between atoms: C20_29  and  C21_30 
REMARK   18  A    between atoms: C20_29  and  C24_33 
REMARK   19  A    between atoms: C20_29  and  N6_40 
REMARK   20  A    between atoms: C21_30  and  C22_31 
REMARK   21  A    between atoms: C22_31  and  C23_32 
REMARK   22  A    between atoms: C23_32  and  O8_43 
REMARK   23  A    between atoms: C24_33  and  C25_34 
REMARK   24  A    between atoms: C28_38  and  O6_39 
REMARK   25  A    between atoms: C29_42  and  O8_43 
REMARK   26  A    between atoms: C29_42  and  C35_49 
ROOT
ATOM      1  C14 non d ame     -30.923  13.696  24.128  0.00  0.00     0.089 C 
ATOM      2  H20 non d ame     -29.905  13.727  24.518  0.00  0.00     0.087 H 
ENDROOT
BRANCH   1   3
ATOM      3  N4  non d ame     -31.186  12.332  23.697  0.00  0.00    -0.346 N 
ATOM      4  C10 non d ame     -31.041  11.185  24.665  0.00  0.00     0.241 C 
ATOM      5  O4  non d ame     -30.708  11.385  25.787  0.00  0.00    -0.271 OA
ATOM      6  H19 non d ame     -31.467  12.182  22.738  0.00  0.00     0.163 HD
BRANCH   4   7
ATOM      7  C9  non d ame     -31.324   9.780  24.203  0.00  0.00     0.092 C 
ATOM      8  H11 non d ame     -30.708   9.084  24.773  0.00  0.00     0.088 H 
BRANCH   7   9
ATOM      9  N3  non d ame     -32.724   9.446  24.481  0.00  0.00    -0.346 N 
ATOM     10  C7  non d ame     -33.066   8.704  25.669  0.00  0.00     0.240 C 
ATOM     11  O3  non d ame     -32.226   8.366  26.412  0.00  0.00    -0.271 OA
ATOM     12  H10 non d ame     -33.459   9.729  23.848  0.00  0.00     0.163 HD
BRANCH  10  13
ATOM     13  C6  non d ame     -34.557   8.349  25.958  0.00  0.00     0.086 C 
ATOM     14  H6  non d ame     -34.906   7.492  25.381  0.00  0.00     0.086 H 
BRANCH  13  15
ATOM     15  N2  non d ame     -34.694   7.990  27.360  0.00  0.00    -0.343 N 
ATOM     16  C5  non d ame     -35.153   6.646  27.719  0.00  0.00     0.273 C 
ATOM     17  O2  non d ame     -35.412   5.863  26.873  0.00  0.00    -0.266 OA
ATOM     18  H5  non d ame     -34.473   8.667  28.076  0.00  0.00     0.163 HD
BRANCH  16  19
ATOM     19  C4  non d ame     -35.300   6.253  29.197  0.00  0.00     0.154 A 
ATOM     20  C1  non d ame     -34.414   5.435  29.967  0.00  0.00    -0.017 A 
ATOM     21  C2  non d ame     -34.994   5.381  31.254  0.00  0.00     0.077 A 
ATOM     22  H1  non d ame     -33.491   4.955  29.642  0.00  0.00     0.091 H 
ATOM     23  O1  non d ame     -36.085   6.089  31.217  0.00  0.00    -0.218 OA
ATOM     24  N1  non d ame     -36.285   6.608  30.027  0.00  0.00    -0.123 NA
BRANCH  21  25
ATOM     25  C3  non d ame     -34.443   4.633  32.461  0.00  0.00    -0.029 C 
ATOM     26  H2  non d ame     -35.181   3.910  32.807  0.00  0.00     0.036 H 
ATOM     27  H3  non d ame     -33.529   4.112  32.178  0.00  0.00     0.036 H 
ATOM     28  H4  non d ame     -34.226   5.342  33.259  0.00  0.00     0.036 H 
ENDBRANCH  21  25
ENDBRANCH  16  19
ENDBRANCH  13  15
BRANCH  13  29
ATOM     29  C8  non d ame     -35.430   9.536  25.641  0.00  0.00    -0.049 C 
ATOM     30  H7  non d ame     -35.805   9.969  26.568  0.00  0.00     0.030 H 
ATOM     31  H8  non d ame     -34.846  10.283  25.103  0.00  0.00     0.030 H 
ATOM     32  H9  non d ame     -36.269   9.216  25.023  0.00  0.00     0.030 H 
ENDBRANCH  13  29
ENDBRANCH  10  13
ENDBRANCH   7   9
BRANCH   7  33
ATOM     33  C11 non d ame     -31.062   9.675  22.672  0.00  0.00    -0.033 C 
ATOM     34  H12 non d ame     -31.369  10.619  22.221  0.00  0.00     0.042 H 
BRANCH  33  35
ATOM     35  C12 non d ame     -29.544   9.481  22.367  0.00  0.00    -0.071 C 
ATOM     36  H13 non d ame     -29.156   8.655  22.964  0.00  0.00     0.028 H 
ATOM     37  H14 non d ame     -29.412   9.257  21.308  0.00  0.00     0.028 H 
ATOM     38  H15 non d ame     -29.004  10.394  22.616  0.00  0.00     0.028 H 
ENDBRANCH  33  35
BRANCH  33  39
ATOM     39  C13 non d ame     -31.919   8.534  22.035  0.00  0.00    -0.071 C 
ATOM     40  H16 non d ame     -31.453   8.206  21.105  0.00  0.00     0.028 H 
ATOM     41  H17 non d ame     -31.978   7.694  22.728  0.00  0.00     0.028 H 
ATOM     42  H18 non d ame     -32.922   8.905  21.829  0.00  0.00     0.028 H 
ENDBRANCH  33  39
ENDBRANCH   7  33
ENDBRANCH   4   7
ENDBRANCH   1   3
BRANCH   1  43
ATOM     43  C15 non d ame     -31.976  14.088  25.204  0.00  0.00     0.240 C 
ATOM     44  O5  non d ame     -33.054  14.460  24.868  0.00  0.00    -0.271 OA
ATOM     45  N6  non d ame     -31.643  13.991  26.654  0.00  0.00    -0.355 N 
ATOM     46  H46 non d ame     -30.733  13.672  26.951  0.00  0.00     0.162 HD
BRANCH  45  47
ATOM     47  C20 non d ame     -32.656  14.366  27.664  0.00  0.00     0.013 C 
ATOM     48  H30 non d ame     -33.529  14.751  27.138  0.00  0.00     0.072 H 
BRANCH  47  49
ATOM     49  C21 non d ame     -32.086  15.434  28.570  0.00  0.00    -0.038 C 
ATOM     50  H31 non d ame     -32.312  15.110  29.586  0.00  0.00     0.036 H 
ATOM     51  H32 non d ame     -31.051  15.564  28.256  0.00  0.00     0.036 H 
BRANCH  49  52
ATOM     52  C22 non d ame     -32.774  16.804  28.387  0.00  0.00     0.018 C 
ATOM     53  H33 non d ame     -33.815  16.653  28.671  0.00  0.00     0.048 H 
ATOM     54  H34 non d ame     -32.159  17.519  28.934  0.00  0.00     0.048 H 
BRANCH  52  55
ATOM     55  C23 non d ame     -32.800  17.300  26.915  0.00  0.00     0.259 C 
ATOM     56  O7  non d ame     -31.818  17.258  26.247  0.00  0.00    -0.265 OA
BRANCH  55  57
ATOM     57  O8  non d ame     -34.009  17.819  26.375  0.00  0.00    -0.317 OA
BRANCH  57  58
ATOM     58  C29 non d ame     -34.694  18.725  27.245  0.00  0.00     0.052 C 
ATOM     59  H47 non d ame     -35.207  18.101  27.976  0.00  0.00     0.082 H 
ATOM     60  H48 non d ame     -33.942  19.443  27.573  0.00  0.00     0.082 H 
BRANCH  58  61
ATOM     61  C35 non d ame     -35.760  19.479  26.407  0.00  0.00    -0.034 A 
ATOM     62  C30 non d ame     -35.942  19.165  25.064  0.00  0.00    -0.075 A 
ATOM     63  C31 non d ame     -36.900  19.843  24.312  0.00  0.00    -0.082 A 
ATOM     64  H49 non d ame     -35.333  18.388  24.601  0.00  0.00     0.084 H 
ATOM     65  C32 non d ame     -37.677  20.840  24.907  0.00  0.00    -0.083 A 
ATOM     66  H50 non d ame     -37.040  19.593  23.260  0.00  0.00     0.083 H 
ATOM     67  C33 non d ame     -37.490  21.153  26.246  0.00  0.00    -0.082 A 
ATOM     68  H51 non d ame     -38.428  21.375  24.326  0.00  0.00     0.083 H 
ATOM     69  C34 non d ame     -36.535  20.477  27.003  0.00  0.00    -0.075 A 
ATOM     70  H52 non d ame     -38.096  21.933  26.707  0.00  0.00     0.083 H 
ATOM     71  H53 non d ame     -36.395  20.727  28.055  0.00  0.00     0.084 H 
ENDBRANCH  58  61
ENDBRANCH  57  58
ENDBRANCH  55  57
ENDBRANCH  52  55
ENDBRANCH  49  52
ENDBRANCH  47  49
BRANCH  47  72
ATOM     72  C24 non d ame     -33.035  13.141  28.495  0.00  0.00    -0.039 C 
ATOM     73  H35 non d ame     -34.104  13.238  28.683  0.00  0.00     0.036 H 
ATOM     74  H36 non d ame     -32.655  12.284  27.939  0.00  0.00     0.036 H 
BRANCH  72  75
ATOM     75  C25 non d ame     -32.302  13.142  29.920  0.00  0.00    -0.001 C 
ATOM     76  C26 non d ame     -30.709  12.782  29.731  0.00  0.00    -0.035 C 
ATOM     77  C27 non d ame     -30.385  11.778  30.579  0.00  0.00     0.085 C 
ATOM     78  H38 non d ame     -30.538  12.349  28.746  0.00  0.00     0.036 H 
ATOM     79  H39 non d ame     -30.094  13.615  30.075  0.00  0.00     0.036 H 
ATOM     80  N5  non d ame     -31.680  11.199  31.094  0.00  0.00    -0.049 N 
ATOM     81  H40 non d ame     -29.880  11.031  29.966  0.00  0.00     0.075 H 
ATOM     82  H41 non d ame     -29.856  12.253  31.405  0.00  0.00     0.075 H 
ATOM     83  C28 non d ame     -32.827  12.271  30.716  0.00  0.00     0.193 C 
ATOM     84  H42 non d ame     -31.845  10.353  30.567  0.00  0.00     0.280 HD
ATOM     85  H43 non d ame     -31.596  11.159  32.099  0.00  0.00     0.280 HD
ATOM     86  H44 non d ame     -33.245  12.927  31.480  0.00  0.00     0.129 H 
ATOM     87  H37 non d ame     -32.544  14.028  30.508  0.00  0.00     0.046 H 
BRANCH  83  88
ATOM     88  O6  non d ame     -33.947  11.608  30.126  0.00  0.00    -0.369 OA
ATOM     89  H45 non d ame     -34.048  11.898  29.217  0.00  0.00     0.212 HD
ENDBRANCH  83  88
ENDBRANCH  72  75
ENDBRANCH  47  72
ENDBRANCH  45  47
ENDBRANCH   1  43
BRANCH   1  90
ATOM     90  C16 non d ame     -31.044  14.627  22.932  0.00  0.00    -0.035 C 
ATOM     91  H21 non d ame     -31.869  14.232  22.341  0.00  0.00     0.037 H 
ATOM     92  H22 non d ame     -31.106  15.631  23.352  0.00  0.00     0.037 H 
BRANCH  90  93
ATOM     93  C17 non d ame     -29.790  14.616  22.000  0.00  0.00    -0.059 C 
ATOM     94  H23 non d ame     -29.629  13.588  21.675  0.00  0.00     0.038 H 
BRANCH  93  95
ATOM     95  C18 non d ame     -29.997  15.492  20.723  0.00  0.00    -0.073 C 
ATOM     96  H24 non d ame     -29.205  16.237  20.661  0.00  0.00     0.028 H 
ATOM     97  H25 non d ame     -29.967  14.857  19.838  0.00  0.00     0.028 H 
ATOM     98  H26 non d ame     -30.963  15.992  20.779  0.00  0.00     0.028 H 
ENDBRANCH  93  95
BRANCH  93  99
ATOM     99  C19 non d ame     -28.537  15.053  22.764  0.00  0.00    -0.073 C 
ATOM    100  H27 non d ame     -28.187  16.008  22.370  0.00  0.00     0.028 H 
ATOM    101  H28 non d ame     -28.776  15.162  23.822  0.00  0.00     0.028 H 
ATOM    102  H29 non d ame     -27.758  14.302  22.643  0.00  0.00     0.028 H 
ENDBRANCH  93  99
ENDBRANCH  90  93
ENDBRANCH   1  90
TORSDOF 26
ENDMDL
MODEL 8
REMARK VINA RESULT:      -6.3      2.428      8.713
REMARK  26 active torsions:
REMARK  status: ('A' for Active; 'I' for Inactive)
REMARK    1  A    between atoms: C2_2  and  C3_3 
REMARK    2  A    between atoms: C4_6  and  C5_7 
REMARK       I    between atoms: C5_7  and  N2_9 
REMARK    3  A    between atoms: N2_9  and  C6_10 
REMARK    4  A    between atoms: C6_10  and  C7_11 
REMARK    5  A    between atoms: C6_10  and  C8_13 
REMARK       I    between atoms: C7_11  and  N3_14 
REMARK    6  A    between atoms: N3_14  and  C9_15 
REMARK    7  A    between atoms: C9_15  and  C10_16 
REMARK    8  A    between atoms: C9_15  and  C11_18 
REMARK       I    between atoms: C10_16  and  N4_21 
REMARK    9  A    between atoms: C11_18  and  C12_19 
REMARK   10  A    between atoms: C11_18  and  C13_20 
REMARK   11  A    between atoms: N4_21  and  C14_22 
REMARK   12  A    between atoms: C14_22  and  C15_23 
REMARK   13  A    between atoms: C14_22  and  C16_25 
REMARK       I    between atoms: C15_23  and  N6_40 
REMARK   14  A    between atoms: C16_25  and  C17_26 
REMARK   15  A    between atoms: C17_26  and  C18_27 
REMARK   16  A    between atoms: C17_26  and  C19_28 
REMARK   17  A    between atoms: C20_29  and  C21_30 
REMARK   18  A    between atoms: C20_29  and  C24_33 
REMARK   19  A    between atoms: C20_29  and  N6_40 
REMARK   20  A    between atoms: C21_30  and  C22_31 
REMARK   21  A    between atoms: C22_31  and  C23_32 
REMARK   22  A    between atoms: C23_32  and  O8_43 
REMARK   23  A    between atoms: C24_33  and  C25_34 
REMARK   24  A    between atoms: C28_38  and  O6_39 
REMARK   25  A    between atoms: C29_42  and  O8_43 
REMARK   26  A    between atoms: C29_42  and  C35_49 
ROOT
ATOM      1  C14 non d ame     -35.829   9.886  26.309  0.00  0.00     0.089 C 
ATOM      2  H20 non d ame     -36.882   9.699  26.521  0.00  0.00     0.087 H 
ENDROOT
BRANCH   1   3
ATOM      3  N4  non d ame     -35.105   9.791  27.567  0.00  0.00    -0.346 N 
ATOM      4  C10 non d ame     -35.784  10.147  28.866  0.00  0.00     0.241 C 
ATOM      5  O4  non d ame     -36.914  10.511  28.872  0.00  0.00    -0.271 OA
ATOM      6  H19 non d ame     -34.144   9.482  27.540  0.00  0.00     0.163 HD
BRANCH   4   7
ATOM      7  C9  non d ame     -35.021  10.037  30.160  0.00  0.00     0.092 C 
ATOM      8  H11 non d ame     -34.497   9.082  30.187  0.00  0.00     0.088 H 
BRANCH   7   9
ATOM      9  N3  non d ame     -34.005  11.092  30.220  0.00  0.00    -0.346 N 
ATOM     10  C7  non d ame     -32.750  10.923  29.530  0.00  0.00     0.240 C 
ATOM     11  O3  non d ame     -32.541   9.944  28.923  0.00  0.00    -0.271 OA
ATOM     12  H10 non d ame     -34.171  11.941  30.740  0.00  0.00     0.163 HD
BRANCH  10  13
ATOM     13  C6  non d ame     -31.671  12.048  29.599  0.00  0.00     0.086 C 
ATOM     14  H6  non d ame     -30.888  11.928  28.851  0.00  0.00     0.086 H 
BRANCH  13  15
ATOM     15  N2  non d ame     -32.306  13.328  29.335  0.00  0.00    -0.343 N 
ATOM     16  C5  non d ame     -31.611  14.323  28.516  0.00  0.00     0.273 C 
ATOM     17  O2  non d ame     -30.539  14.086  28.078  0.00  0.00    -0.266 OA
ATOM     18  H5  non d ame     -33.221  13.523  29.716  0.00  0.00     0.163 HD
BRANCH  16  19
ATOM     19  C4  non d ame     -32.271  15.680  28.227  0.00  0.00     0.154 A 
ATOM     20  C1  non d ame     -32.718  16.172  26.960  0.00  0.00    -0.017 A 
ATOM     21  C2  non d ame     -33.246  17.454  27.233  0.00  0.00     0.077 A 
ATOM     22  H1  non d ame     -32.668  15.675  25.991  0.00  0.00     0.091 H 
ATOM     23  O1  non d ame     -33.114  17.663  28.510  0.00  0.00    -0.218 OA
ATOM     24  N1  non d ame     -32.548  16.643  29.112  0.00  0.00    -0.123 NA
BRANCH  21  25
ATOM     25  C3  non d ame     -33.857  18.412  26.219  0.00  0.00    -0.029 C 
ATOM     26  H2  non d ame     -33.523  19.427  26.430  0.00  0.00     0.036 H 
ATOM     27  H3  non d ame     -33.541  18.127  25.215  0.00  0.00     0.036 H 
ATOM     28  H4  non d ame     -34.944  18.366  26.284  0.00  0.00     0.036 H 
ENDBRANCH  21  25
ENDBRANCH  16  19
ENDBRANCH  13  15
BRANCH  13  29
ATOM     29  C8  non d ame     -31.039  12.058  30.968  0.00  0.00    -0.049 C 
ATOM     30  H7  non d ame     -31.808  12.225  31.722  0.00  0.00     0.030 H 
ATOM     31  H8  non d ame     -30.554  11.100  31.151  0.00  0.00     0.030 H 
ATOM     32  H9  non d ame     -30.299  12.857  31.021  0.00  0.00     0.030 H 
ENDBRANCH  13  29
ENDBRANCH  10  13
ENDBRANCH   7   9
BRANCH   7  33
ATOM     33  C11 non d ame     -36.004  10.199  31.357  0.00  0.00    -0.033 C 
ATOM     34  H12 non d ame     -36.841  10.808  31.014  0.00  0.00     0.042 H 
BRANCH  33  35
ATOM     35  C12 non d ame     -36.580   8.821  31.809  0.00  0.00    -0.071 C 
ATOM     36  H13 non d ame     -36.107   8.519  32.744  0.00  0.00     0.028 H 
ATOM     37  H14 non d ame     -37.656   8.909  31.959  0.00  0.00     0.028 H 
ATOM     38  H15 non d ame     -36.379   8.074  31.042  0.00  0.00     0.028 H 
ENDBRANCH  33  35
BRANCH  33  39
ATOM     39  C13 non d ame     -35.319  10.945  32.546  0.00  0.00    -0.071 C 
ATOM     40  H16 non d ame     -36.003  10.982  33.394  0.00  0.00     0.028 H 
ATOM     41  H17 non d ame     -34.411  10.414  32.834  0.00  0.00     0.028 H 
ATOM     42  H18 non d ame     -35.063  11.960  32.240  0.00  0.00     0.028 H 
ENDBRANCH  33  39
ENDBRANCH   7  33
ENDBRANCH   4   7
ENDBRANCH   1   3
BRANCH   1  43
ATOM     43  C15 non d ame     -35.236   8.846  25.316  0.00  0.00     0.240 C 
ATOM     44  O5  non d ame     -35.724   7.766  25.230  0.00  0.00    -0.271 OA
ATOM     45  N6  non d ame     -34.064   9.200  24.465  0.00  0.00    -0.355 N 
ATOM     46  H46 non d ame     -33.644  10.116  24.525  0.00  0.00     0.162 HD
BRANCH  45  47
ATOM     47  C20 non d ame     -33.513   8.200  23.525  0.00  0.00     0.013 C 
ATOM     48  H30 non d ame     -33.932   7.228  23.785  0.00  0.00     0.072 H 
BRANCH  47  49
ATOM     49  C21 non d ame     -32.007   8.166  23.659  0.00  0.00    -0.038 C 
ATOM     50  H31 non d ame     -31.754   8.974  24.345  0.00  0.00     0.036 H 
ATOM     51  H32 non d ame     -31.758   7.136  23.913  0.00  0.00     0.036 H 
BRANCH  49  52
ATOM     52  C22 non d ame     -31.280   8.477  22.332  0.00  0.00     0.018 C 
ATOM     53  H33 non d ame     -30.995   7.510  21.919  0.00  0.00     0.048 H 
ATOM     54  H34 non d ame     -31.951   9.132  21.774  0.00  0.00     0.048 H 
BRANCH  52  55
ATOM     55  C23 non d ame     -29.958   9.273  22.514  0.00  0.00     0.259 C 
ATOM     56  O7  non d ame     -28.960   8.717  22.842  0.00  0.00    -0.265 OA
BRANCH  55  57
ATOM     57  O8  non d ame     -29.955  10.678  22.295  0.00  0.00    -0.317 OA
BRANCH  57  58
ATOM     58  C29 non d ame     -30.564  11.432  23.347  0.00  0.00     0.052 C 
ATOM     59  H47 non d ame     -31.635  11.257  23.254  0.00  0.00     0.082 H 
ATOM     60  H48 non d ame     -30.042  11.142  24.258  0.00  0.00     0.082 H 
BRANCH  58  61
ATOM     61  C35 non d ame     -30.287  12.936  23.080  0.00  0.00    -0.034 A 
ATOM     62  C30 non d ame     -29.508  13.319  21.993  0.00  0.00    -0.075 A 
ATOM     63  C31 non d ame     -29.259  14.669  21.753  0.00  0.00    -0.082 A 
ATOM     64  H49 non d ame     -29.093  12.561  21.328  0.00  0.00     0.084 H 
ATOM     65  C32 non d ame     -29.790  15.639  22.608  0.00  0.00    -0.083 A 
ATOM     66  H50 non d ame     -28.650  14.966  20.899  0.00  0.00     0.083 H 
ATOM     67  C33 non d ame     -30.563  15.252  23.694  0.00  0.00    -0.082 A 
ATOM     68  H51 non d ame     -29.601  16.697  22.428  0.00  0.00     0.083 H 
ATOM     69  C34 non d ame     -30.817  13.904  23.936  0.00  0.00    -0.075 A 
ATOM     70  H52 non d ame     -30.974  16.011  24.361  0.00  0.00     0.083 H 
ATOM     71  H53 non d ame     -31.426  13.608  24.791  0.00  0.00     0.084 H 
ENDBRANCH  58  61
ENDBRANCH  57  58
ENDBRANCH  55  57
ENDBRANCH  52  55
ENDBRANCH  49  52
ENDBRANCH  47  49
BRANCH  47  72
ATOM     72  C24 non d ame     -33.889   8.575  22.093  0.00  0.00    -0.039 C 
ATOM     73  H35 non d ame     -34.448   9.507  22.175  0.00  0.00     0.036 H 
ATOM     74  H36 non d ame     -32.956   8.547  21.531  0.00  0.00     0.036 H 
BRANCH  72  75
ATOM     75  C25 non d ame     -34.870   7.492  21.436  0.00  0.00    -0.001 C 
ATOM     76  C26 non d ame     -34.396   7.170  19.894  0.00  0.00    -0.035 C 
ATOM     77  C27 non d ame     -35.465   7.302  19.073  0.00  0.00     0.085 C 
ATOM     78  H38 non d ame     -33.710   7.941  19.546  0.00  0.00     0.036 H 
ATOM     79  H39 non d ame     -34.129   6.118  19.797  0.00  0.00     0.036 H 
ATOM     80  N5  non d ame     -36.545   8.001  19.862  0.00  0.00    -0.049 N 
ATOM     81  H40 non d ame     -35.133   7.957  18.267  0.00  0.00     0.075 H 
ATOM     82  H41 non d ame     -35.789   6.286  18.851  0.00  0.00     0.075 H 
ATOM     83  C28 non d ame     -36.088   7.920  21.408  0.00  0.00     0.193 C 
ATOM     84  H42 non d ame     -36.530   8.969  19.573  0.00  0.00     0.280 HD
ATOM     85  H43 non d ame     -37.385   7.452  19.745  0.00  0.00     0.280 HD
ATOM     86  H44 non d ame     -36.562   7.213  22.089  0.00  0.00     0.129 H 
ATOM     87  H37 non d ame     -35.040   6.638  22.091  0.00  0.00     0.046 H 
BRANCH  83  88
ATOM     88  O6  non d ame     -36.224   9.199  22.030  0.00  0.00    -0.369 OA
ATOM     89  H45 non d ame     -35.823   9.175  22.902  0.00  0.00     0.212 HD
ENDBRANCH  83  88
ENDBRANCH  72  75
ENDBRANCH  47  72
ENDBRANCH  45  47
ENDBRANCH   1  43
BRANCH   1  90
ATOM     90  C16 non d ame     -35.659  11.287  25.743  0.00  0.00    -0.035 C 
ATOM     91  H21 non d ame     -35.169  11.152  24.780  0.00  0.00     0.037 H 
ATOM     92  H22 non d ame     -36.649  11.741  25.793  0.00  0.00     0.037 H 
BRANCH  90  93
ATOM     93  C17 non d ame     -34.715  12.196  26.594  0.00  0.00    -0.059 C 
ATOM     94  H23 non d ame     -34.581  11.717  27.564  0.00  0.00     0.038 H 
BRANCH  93  95
ATOM     95  C18 non d ame     -33.304  12.354  25.941  0.00  0.00    -0.073 C 
ATOM     96  H24 non d ame     -32.801  13.220  26.369  0.00  0.00     0.028 H 
ATOM     97  H25 non d ame     -32.713  11.459  26.133  0.00  0.00     0.028 H 
ATOM     98  H26 non d ame     -33.415  12.492  24.866  0.00  0.00     0.028 H 
ENDBRANCH  93  95
BRANCH  93  99
ATOM     99  C19 non d ame     -35.354  13.564  26.846  0.00  0.00    -0.073 C 
ATOM    100  H27 non d ame     -36.074  13.484  27.662  0.00  0.00     0.028 H 
ATOM    101  H28 non d ame     -34.580  14.283  27.114  0.00  0.00     0.028 H 
ATOM    102  H29 non d ame     -35.864  13.899  25.943  0.00  0.00     0.028 H 
ENDBRANCH  93  99
ENDBRANCH  90  93
ENDBRANCH   1  90
TORSDOF 26
ENDMDL
MODEL 9
REMARK VINA RESULT:      -6.2      1.651      5.297
REMARK  26 active torsions:
REMARK  status: ('A' for Active; 'I' for Inactive)
REMARK    1  A    between atoms: C2_2  and  C3_3 
REMARK    2  A    between atoms: C4_6  and  C5_7 
REMARK       I    between atoms: C5_7  and  N2_9 
REMARK    3  A    between atoms: N2_9  and  C6_10 
REMARK    4  A    between atoms: C6_10  and  C7_11 
REMARK    5  A    between atoms: C6_10  and  C8_13 
REMARK       I    between atoms: C7_11  and  N3_14 
REMARK    6  A    between atoms: N3_14  and  C9_15 
REMARK    7  A    between atoms: C9_15  and  C10_16 
REMARK    8  A    between atoms: C9_15  and  C11_18 
REMARK       I    between atoms: C10_16  and  N4_21 
REMARK    9  A    between atoms: C11_18  and  C12_19 
REMARK   10  A    between atoms: C11_18  and  C13_20 
REMARK   11  A    between atoms: N4_21  and  C14_22 
REMARK   12  A    between atoms: C14_22  and  C15_23 
REMARK   13  A    between atoms: C14_22  and  C16_25 
REMARK       I    between atoms: C15_23  and  N6_40 
REMARK   14  A    between atoms: C16_25  and  C17_26 
REMARK   15  A    between atoms: C17_26  and  C18_27 
REMARK   16  A    between atoms: C17_26  and  C19_28 
REMARK   17  A    between atoms: C20_29  and  C21_30 
REMARK   18  A    between atoms: C20_29  and  C24_33 
REMARK   19  A    between atoms: C20_29  and  N6_40 
REMARK   20  A    between atoms: C21_30  and  C22_31 
REMARK   21  A    between atoms: C22_31  and  C23_32 
REMARK   22  A    between atoms: C23_32  and  O8_43 
REMARK   23  A    between atoms: C24_33  and  C25_34 
REMARK   24  A    between atoms: C28_38  and  O6_39 
REMARK   25  A    between atoms: C29_42  and  O8_43 
REMARK   26  A    between atoms: C29_42  and  C35_49 
ROOT
ATOM      1  C14 non d ame     -32.760  10.217  24.962  0.00  0.00     0.089 C 
ATOM      2  H20 non d ame     -32.775   9.333  25.600  0.00  0.00     0.087 H 
ENDROOT
BRANCH   1   3
ATOM      3  N4  non d ame     -34.114  10.750  24.921  0.00  0.00    -0.346 N 
ATOM      4  C10 non d ame     -35.204  10.126  25.756  0.00  0.00     0.241 C 
ATOM      5  O4  non d ame     -34.968   9.194  26.451  0.00  0.00    -0.271 OA
ATOM      6  H19 non d ame     -34.294  11.543  24.321  0.00  0.00     0.163 HD
BRANCH   4   7
ATOM      7  C9  non d ame     -36.598  10.694  25.705  0.00  0.00     0.092 C 
ATOM      8  H11 non d ame     -36.958  10.850  26.722  0.00  0.00     0.088 H 
BRANCH   7   9
ATOM      9  N3  non d ame     -36.568  12.005  25.049  0.00  0.00    -0.346 N 
ATOM     10  C7  non d ame     -37.018  13.177  25.761  0.00  0.00     0.240 C 
ATOM     11  O3  non d ame     -37.407  13.082  26.860  0.00  0.00    -0.271 OA
ATOM     12  H10 non d ame     -36.236  12.102  24.100  0.00  0.00     0.163 HD
BRANCH  10  13
ATOM     13  C6  non d ame     -36.987  14.569  25.057  0.00  0.00     0.086 C 
ATOM     14  H6  non d ame     -37.817  15.209  25.352  0.00  0.00     0.086 H 
BRANCH  13  15
ATOM     15  N2  non d ame     -35.769  15.264  25.439  0.00  0.00    -0.343 N 
ATOM     16  C5  non d ame     -35.804  16.710  25.664  0.00  0.00     0.273 C 
ATOM     17  O2  non d ame     -36.816  17.306  25.532  0.00  0.00    -0.266 OA
ATOM     18  H5  non d ame     -34.907  14.747  25.547  0.00  0.00     0.163 HD
BRANCH  16  19
ATOM     19  C4  non d ame     -34.524  17.458  26.070  0.00  0.00     0.154 A 
ATOM     20  C1  non d ame     -34.356  18.343  27.181  0.00  0.00    -0.017 A 
ATOM     21  C2  non d ame     -33.008  18.760  27.113  0.00  0.00     0.077 A 
ATOM     22  H1  non d ame     -35.098  18.638  27.923  0.00  0.00     0.091 H 
ATOM     23  O1  non d ame     -32.473  18.176  26.081  0.00  0.00    -0.218 OA
ATOM     24  N1  non d ame     -33.338  17.411  25.456  0.00  0.00    -0.123 NA
BRANCH  21  25
ATOM     25  C3  non d ame     -32.310  19.716  28.071  0.00  0.00    -0.029 C 
ATOM     26  H2  non d ame     -32.221  20.698  27.605  0.00  0.00     0.036 H 
ATOM     27  H3  non d ame     -32.893  19.801  28.988  0.00  0.00     0.036 H 
ATOM     28  H4  non d ame     -31.317  19.335  28.307  0.00  0.00     0.036 H 
ENDBRANCH  21  25
ENDBRANCH  16  19
ENDBRANCH  13  15
BRANCH  13  29
ATOM     29  C8  non d ame     -37.026  14.380  23.561  0.00  0.00    -0.049 C 
ATOM     30  H7  non d ame     -37.785  15.033  23.132  0.00  0.00     0.030 H 
ATOM     31  H8  non d ame     -36.053  14.627  23.139  0.00  0.00     0.030 H 
ATOM     32  H9  non d ame     -37.268  13.342  23.332  0.00  0.00     0.030 H 
ENDBRANCH  13  29
ENDBRANCH  10  13
ENDBRANCH   7   9
BRANCH   7  33
ATOM     33  C11 non d ame     -37.520   9.734  24.898  0.00  0.00    -0.033 C 
ATOM     34  H12 non d ame     -37.363   8.727  25.283  0.00  0.00     0.042 H 
BRANCH  33  35
ATOM     35  C12 non d ame     -39.026  10.085  25.104  0.00  0.00    -0.071 C 
ATOM     36  H13 non d ame     -39.143  11.168  25.156  0.00  0.00     0.028 H 
ATOM     37  H14 non d ame     -39.608   9.697  24.269  0.00  0.00     0.028 H 
ATOM     38  H15 non d ame     -39.380   9.638  26.033  0.00  0.00     0.028 H 
ENDBRANCH  33  35
BRANCH  33  39
ATOM     39  C13 non d ame     -37.140   9.737  23.382  0.00  0.00    -0.071 C 
ATOM     40  H16 non d ame     -37.479  10.667  22.924  0.00  0.00     0.028 H 
ATOM     41  H17 non d ame     -36.058   9.654  23.278  0.00  0.00     0.028 H 
ATOM     42  H18 non d ame     -37.617   8.892  22.886  0.00  0.00     0.028 H 
ENDBRANCH  33  39
ENDBRANCH   7  33
ENDBRANCH   4   7
ENDBRANCH   1   3
BRANCH   1  43
ATOM     43  C15 non d ame     -31.810  11.321  25.510  0.00  0.00     0.240 C 
ATOM     44  O5  non d ame     -30.794  11.014  26.045  0.00  0.00    -0.271 OA
ATOM     45  N6  non d ame     -32.162  12.761  25.358  0.00  0.00    -0.355 N 
ATOM     46  H46 non d ame     -33.020  13.035  24.901  0.00  0.00     0.162 HD
BRANCH  45  47
ATOM     47  C20 non d ame     -31.248  13.798  25.883  0.00  0.00     0.013 C 
ATOM     48  H30 non d ame     -30.319  13.309  26.176  0.00  0.00     0.072 H 
BRANCH  47  49
ATOM     49  C21 non d ame     -31.882  14.464  27.083  0.00  0.00    -0.038 C 
ATOM     50  H31 non d ame     -31.851  15.534  26.878  0.00  0.00     0.036 H 
ATOM     51  H32 non d ame     -32.840  13.963  27.225  0.00  0.00     0.036 H 
BRANCH  49  52
ATOM     52  C22 non d ame     -31.079  14.245  28.384  0.00  0.00     0.018 C 
ATOM     53  H33 non d ame     -30.030  14.305  28.096  0.00  0.00     0.048 H 
ATOM     54  H34 non d ame     -31.488  14.953  29.106  0.00  0.00     0.048 H 
BRANCH  52  55
ATOM     55  C23 non d ame     -31.271  12.836  29.010  0.00  0.00     0.259 C 
ATOM     56  O7  non d ame     -30.330  12.164  29.285  0.00  0.00    -0.265 OA
BRANCH  55  57
ATOM     57  O8  non d ame     -32.588  12.349  29.239  0.00  0.00    -0.317 OA
BRANCH  57  58
ATOM     58  C29 non d ame     -32.707  10.926  29.152  0.00  0.00     0.052 C 
ATOM     59  H47 non d ame     -33.194  10.729  28.197  0.00  0.00     0.082 H 
ATOM     60  H48 non d ame     -31.708  10.535  29.346  0.00  0.00     0.082 H 
BRANCH  58  61
ATOM     61  C35 non d ame     -33.649  10.454  30.292  0.00  0.00    -0.034 A 
ATOM     62  C30 non d ame     -34.241   9.196  30.230  0.00  0.00    -0.075 A 
ATOM     63  C31 non d ame     -35.087   8.772  31.253  0.00  0.00    -0.082 A 
ATOM     64  H49 non d ame     -34.042   8.544  29.379  0.00  0.00     0.084 H 
ATOM     65  C32 non d ame     -35.343   9.612  32.340  0.00  0.00    -0.083 A 
ATOM     66  H50 non d ame     -35.548   7.785  31.202  0.00  0.00     0.083 H 
ATOM     67  C33 non d ame     -34.753  10.867  32.396  0.00  0.00    -0.082 A 
ATOM     68  H51 non d ame     -36.003   9.287  33.145  0.00  0.00     0.083 H 
ATOM     69  C34 non d ame     -33.905  11.294  31.377  0.00  0.00    -0.075 A 
ATOM     70  H52 non d ame     -34.956  11.520  33.245  0.00  0.00     0.083 H 
ATOM     71  H53 non d ame     -33.444  12.281  31.428  0.00  0.00     0.084 H 
ENDBRANCH  58  61
ENDBRANCH  57  58
ENDBRANCH  55  57
ENDBRANCH  52  55
ENDBRANCH  49  52
ENDBRANCH  47  49
BRANCH  47  72
ATOM     72  C24 non d ame     -30.979  14.844  24.803  0.00  0.00    -0.039 C 
ATOM     73  H35 non d ame     -31.745  15.608  24.942  0.00  0.00     0.036 H 
ATOM     74  H36 non d ame     -29.926  15.105  24.907  0.00  0.00     0.036 H 
BRANCH  72  75
ATOM     75  C25 non d ame     -31.174  14.241  23.332  0.00  0.00    -0.001 C 
ATOM     76  C26 non d ame     -29.812  13.446  22.868  0.00  0.00    -0.035 C 
ATOM     77  C27 non d ame     -29.435  13.900  21.649  0.00  0.00     0.085 C 
ATOM     78  H38 non d ame     -28.979  13.724  23.512  0.00  0.00     0.036 H 
ATOM     79  H39 non d ame     -30.035  12.394  22.689  0.00  0.00     0.036 H 
ATOM     80  N5  non d ame     -30.224  15.160  21.384  0.00  0.00    -0.049 N 
ATOM     81  H40 non d ame     -28.380  14.156  21.747  0.00  0.00     0.075 H 
ATOM     82  H41 non d ame     -29.746  13.132  20.942  0.00  0.00     0.075 H 
ATOM     83  C28 non d ame     -31.417  15.174  22.472  0.00  0.00     0.193 C 
ATOM     84  H42 non d ame     -29.603  15.933  21.577  0.00  0.00     0.280 HD
ATOM     85  H43 non d ame     -30.629  15.055  20.464  0.00  0.00     0.280 HD
ATOM     86  H44 non d ame     -32.435  14.915  22.181  0.00  0.00     0.129 H 
ATOM     87  H37 non d ame     -32.120  13.709  23.226  0.00  0.00     0.046 H 
BRANCH  83  88
ATOM     88  O6  non d ame     -31.509  16.461  23.085  0.00  0.00    -0.369 OA
ATOM     89  H45 non d ame     -30.631  16.764  23.327  0.00  0.00     0.212 HD
ENDBRANCH  83  88
ENDBRANCH  72  75
ENDBRANCH  47  72
ENDBRANCH  45  47
ENDBRANCH   1  43
BRANCH   1  90
ATOM     90  C16 non d ame     -32.336   9.830  23.555  0.00  0.00    -0.035 C 
ATOM     91  H21 non d ame     -32.809  10.561  22.899  0.00  0.00     0.037 H 
ATOM     92  H22 non d ame     -31.249   9.754  23.591  0.00  0.00     0.037 H 
BRANCH  90  93
ATOM     93  C17 non d ame     -32.862   8.430  23.105  0.00  0.00    -0.059 C 
ATOM     94  H23 non d ame     -33.951   8.472  23.099  0.00  0.00     0.038 H 
BRANCH  93  95
ATOM     95  C18 non d ame     -32.391   8.059  21.662  0.00  0.00    -0.073 C 
ATOM     96  H24 non d ame     -33.186   7.522  21.147  0.00  0.00     0.028 H 
ATOM     97  H25 non d ame     -32.152   8.969  21.112  0.00  0.00     0.028 H 
ATOM     98  H26 non d ame     -31.505   7.427  21.721  0.00  0.00     0.028 H 
ENDBRANCH  93  95
BRANCH  93  99
ATOM     99  C19 non d ame     -32.455   7.346  24.106  0.00  0.00    -0.073 C 
ATOM    100  H27 non d ame     -33.251   7.209  24.839  0.00  0.00     0.028 H 
ATOM    101  H28 non d ame     -32.283   6.408  23.577  0.00  0.00     0.028 H 
ATOM    102  H29 non d ame     -31.540   7.647  24.616  0.00  0.00     0.028 H 
ENDBRANCH  93  99
ENDBRANCH  90  93
ENDBRANCH   1  90
TORSDOF 26
ENDMDL
MODEL 10
REMARK VINA RESULT:      -6.2      3.386      7.533
REMARK  26 active torsions:
REMARK  status: ('A' for Active; 'I' for Inactive)
REMARK    1  A    between atoms: C2_2  and  C3_3 
REMARK    2  A    between atoms: C4_6  and  C5_7 
REMARK       I    between atoms: C5_7  and  N2_9 
REMARK    3  A    between atoms: N2_9  and  C6_10 
REMARK    4  A    between atoms: C6_10  and  C7_11 
REMARK    5  A    between atoms: C6_10  and  C8_13 
REMARK       I    between atoms: C7_11  and  N3_14 
REMARK    6  A    between atoms: N3_14  and  C9_15 
REMARK    7  A    between atoms: C9_15  and  C10_16 
REMARK    8  A    between atoms: C9_15  and  C11_18 
REMARK       I    between atoms: C10_16  and  N4_21 
REMARK    9  A    between atoms: C11_18  and  C12_19 
REMARK   10  A    between atoms: C11_18  and  C13_20 
REMARK   11  A    between atoms: N4_21  and  C14_22 
REMARK   12  A    between atoms: C14_22  and  C15_23 
REMARK   13  A    between atoms: C14_22  and  C16_25 
REMARK       I    between atoms: C15_23  and  N6_40 
REMARK   14  A    between atoms: C16_25  and  C17_26 
REMARK   15  A    between atoms: C17_26  and  C18_27 
REMARK   16  A    between atoms: C17_26  and  C19_28 
REMARK   17  A    between atoms: C20_29  and  C21_30 
REMARK   18  A    between atoms: C20_29  and  C24_33 
REMARK   19  A    between atoms: C20_29  and  N6_40 
REMARK   20  A    between atoms: C21_30  and  C22_31 
REMARK   21  A    between atoms: C22_31  and  C23_32 
REMARK   22  A    between atoms: C23_32  and  O8_43 
REMARK   23  A    between atoms: C24_33  and  C25_34 
REMARK   24  A    between atoms: C28_38  and  O6_39 
REMARK   25  A    between atoms: C29_42  and  O8_43 
REMARK   26  A    between atoms: C29_42  and  C35_49 
ROOT
ATOM      1  C14 non d ame     -33.136  11.008  26.041  0.00  0.00     0.089 C 
ATOM      2  H20 non d ame     -33.963  11.004  25.330  0.00  0.00     0.087 H 
ENDROOT
BRANCH   1   3
ATOM      3  N4  non d ame     -32.489   9.706  25.968  0.00  0.00    -0.346 N 
ATOM      4  C10 non d ame     -33.049   8.627  25.076  0.00  0.00     0.241 C 
ATOM      5  O4  non d ame     -34.023   8.828  24.429  0.00  0.00    -0.271 OA
ATOM      6  H19 non d ame     -31.663   9.554  26.529  0.00  0.00     0.163 HD
BRANCH   4   7
ATOM      7  C9  non d ame     -32.364   7.287  25.008  0.00  0.00     0.092 C 
ATOM      8  H11 non d ame     -31.369   7.371  25.446  0.00  0.00     0.088 H 
BRANCH   7   9
ATOM      9  N3  non d ame     -33.110   6.314  25.812  0.00  0.00    -0.346 N 
ATOM     10  C7  non d ame     -32.725   6.062  27.179  0.00  0.00     0.240 C 
ATOM     11  O3  non d ame     -31.816   6.631  27.647  0.00  0.00    -0.271 OA
ATOM     12  H10 non d ame     -33.895   5.814  25.421  0.00  0.00     0.163 HD
BRANCH  10  13
ATOM     13  C6  non d ame     -33.521   5.023  28.028  0.00  0.00     0.086 C 
ATOM     14  H6  non d ame     -32.965   4.674  28.897  0.00  0.00     0.086 H 
BRANCH  13  15
ATOM     15  N2  non d ame     -34.729   5.654  28.533  0.00  0.00    -0.343 N 
ATOM     16  C5  non d ame     -35.043   5.572  29.961  0.00  0.00     0.273 C 
ATOM     17  O2  non d ame     -34.319   4.994  30.695  0.00  0.00    -0.266 OA
ATOM     18  H5  non d ame     -35.344   6.143  27.898  0.00  0.00     0.163 HD
BRANCH  16  19
ATOM     19  C4  non d ame     -36.316   6.236  30.509  0.00  0.00     0.154 A 
ATOM     20  C1  non d ame     -36.772   7.569  30.258  0.00  0.00    -0.017 A 
ATOM     21  C2  non d ame     -37.978   7.683  30.986  0.00  0.00     0.077 A 
ATOM     22  H1  non d ame     -36.301   8.335  29.643  0.00  0.00     0.091 H 
ATOM     23  O1  non d ame     -38.181   6.543  31.580  0.00  0.00    -0.218 OA
ATOM     24  N1  non d ame     -37.225   5.683  31.317  0.00  0.00    -0.123 NA
BRANCH  21  25
ATOM     25  C3  non d ame     -38.873   8.913  31.061  0.00  0.00    -0.029 C 
ATOM     26  H2  non d ame     -39.900   8.629  30.829  0.00  0.00     0.036 H 
ATOM     27  H3  non d ame     -38.830   9.333  32.065  0.00  0.00     0.036 H 
ATOM     28  H4  non d ame     -38.530   9.656  30.341  0.00  0.00     0.036 H 
ENDBRANCH  21  25
ENDBRANCH  16  19
ENDBRANCH  13  15
BRANCH  13  29
ATOM     29  C8  non d ame     -33.878   3.836  27.169  0.00  0.00    -0.049 C 
ATOM     30  H7  non d ame     -33.085   3.091  27.231  0.00  0.00     0.030 H 
ATOM     31  H8  non d ame     -34.813   3.401  27.522  0.00  0.00     0.030 H 
ATOM     32  H9  non d ame     -33.994   4.158  26.134  0.00  0.00     0.030 H 
ENDBRANCH  13  29
ENDBRANCH  10  13
ENDBRANCH   7   9
BRANCH   7  33
ATOM     33  C11 non d ame     -32.314   6.805  23.529  0.00  0.00    -0.033 C 
ATOM     34  H12 non d ame     -32.943   7.475  22.943  0.00  0.00     0.042 H 
BRANCH  33  35
ATOM     35  C12 non d ame     -30.867   6.895  22.950  0.00  0.00    -0.071 C 
ATOM     36  H13 non d ame     -30.874   6.583  21.906  0.00  0.00     0.028 H 
ATOM     37  H14 non d ame     -30.511   7.922  23.021  0.00  0.00     0.028 H 
ATOM     38  H15 non d ame     -30.207   6.241  23.520  0.00  0.00     0.028 H 
ENDBRANCH  33  35
BRANCH  33  39
ATOM     39  C13 non d ame     -32.889   5.358  23.393  0.00  0.00    -0.071 C 
ATOM     40  H16 non d ame     -33.888   5.404  22.958  0.00  0.00     0.028 H 
ATOM     41  H17 non d ame     -32.238   4.768  22.747  0.00  0.00     0.028 H 
ATOM     42  H18 non d ame     -32.942   4.894  24.377  0.00  0.00     0.028 H 
ENDBRANCH  33  39
ENDBRANCH   7  33
ENDBRANCH   4   7
ENDBRANCH   1   3
BRANCH   1  43
ATOM     43  C15 non d ame     -32.083  12.104  25.712  0.00  0.00     0.240 C 
ATOM     44  O5  non d ame     -30.924  11.842  25.756  0.00  0.00    -0.271 OA
ATOM     45  N6  non d ame     -32.519  13.478  25.332  0.00  0.00    -0.355 N 
ATOM     46  H46 non d ame     -33.500  13.710  25.286  0.00  0.00     0.162 HD
BRANCH  45  47
ATOM     47  C20 non d ame     -31.505  14.508  25.020  0.00  0.00     0.013 C 
ATOM     48  H30 non d ame     -30.532  14.018  24.971  0.00  0.00     0.072 H 
BRANCH  47  49
ATOM     49  C21 non d ame     -31.502  15.553  26.112  0.00  0.00    -0.038 C 
ATOM     50  H31 non d ame     -31.097  15.057  26.994  0.00  0.00     0.036 H 
ATOM     51  H32 non d ame     -30.990  16.419  25.690  0.00  0.00     0.036 H 
BRANCH  49  52
ATOM     52  C22 non d ame     -32.922  16.028  26.492  0.00  0.00     0.018 C 
ATOM     53  H33 non d ame     -33.350  16.439  25.578  0.00  0.00     0.048 H 
ATOM     54  H34 non d ame     -33.396  15.177  26.981  0.00  0.00     0.048 H 
BRANCH  52  55
ATOM     55  C23 non d ame     -32.939  17.184  27.530  0.00  0.00     0.259 C 
ATOM     56  O7  non d ame     -32.849  16.952  28.692  0.00  0.00    -0.265 OA
BRANCH  55  57
ATOM     57  O8  non d ame     -33.078  18.525  27.077  0.00  0.00    -0.317 OA
BRANCH  57  58
ATOM     58  C29 non d ame     -33.987  19.310  27.853  0.00  0.00     0.052 C 
ATOM     59  H47 non d ame     -34.383  18.638  28.614  0.00  0.00     0.082 H 
ATOM     60  H48 non d ame     -33.432  20.200  28.147  0.00  0.00     0.082 H 
BRANCH  58  61
ATOM     61  C35 non d ame     -35.155  19.744  26.927  0.00  0.00    -0.034 A 
ATOM     62  C30 non d ame     -35.332  19.127  25.693  0.00  0.00    -0.075 A 
ATOM     63  C31 non d ame     -36.380  19.517  24.861  0.00  0.00    -0.082 A 
ATOM     64  H49 non d ame     -34.649  18.339  25.377  0.00  0.00     0.084 H 
ATOM     65  C32 non d ame     -37.253  20.531  25.266  0.00  0.00    -0.083 A 
ATOM     66  H50 non d ame     -36.517  19.031  23.895  0.00  0.00     0.083 H 
ATOM     67  C33 non d ame     -37.071  21.146  26.498  0.00  0.00    -0.082 A 
ATOM     68  H51 non d ame     -38.076  20.841  24.623  0.00  0.00     0.083 H 
ATOM     69  C34 non d ame     -36.025  20.758  27.333  0.00  0.00    -0.075 A 
ATOM     70  H52 non d ame     -37.752  21.938  26.810  0.00  0.00     0.083 H 
ATOM     71  H53 non d ame     -35.889  21.245  28.299  0.00  0.00     0.084 H 
ENDBRANCH  58  61
ENDBRANCH  57  58
ENDBRANCH  55  57
ENDBRANCH  52  55
ENDBRANCH  49  52
ENDBRANCH  47  49
BRANCH  47  72
ATOM     72  C24 non d ame     -31.834  15.169  23.683  0.00  0.00    -0.039 C 
ATOM     73  H35 non d ame     -32.846  14.844  23.441  0.00  0.00     0.036 H 
ATOM     74  H36 non d ame     -31.621  16.229  23.823  0.00  0.00     0.036 H 
BRANCH  72  75
ATOM     75  C25 non d ame     -30.876  14.644  22.511  0.00  0.00    -0.001 C 
ATOM     76  C26 non d ame     -29.415  14.216  23.131  0.00  0.00    -0.035 C 
ATOM     77  C27 non d ame     -28.441  14.831  22.418  0.00  0.00     0.085 C 
ATOM     78  H38 non d ame     -29.298  14.630  24.132  0.00  0.00     0.036 H 
ATOM     79  H39 non d ame     -29.229  13.156  22.954  0.00  0.00     0.036 H 
ATOM     80  N5  non d ame     -29.111  15.893  21.580  0.00  0.00    -0.049 N 
ATOM     81  H40 non d ame     -27.800  15.313  23.157  0.00  0.00     0.075 H 
ATOM     82  H41 non d ame     -28.033  14.065  21.760  0.00  0.00     0.075 H 
ATOM     83  C28 non d ame     -30.690  15.556  21.616  0.00  0.00     0.193 C 
ATOM     84  H42 non d ame     -28.959  16.771  22.056  0.00  0.00     0.280 HD
ATOM     85  H43 non d ame     -28.776  15.765  20.636  0.00  0.00     0.280 HD
ATOM     86  H44 non d ame     -31.177  15.094  20.757  0.00  0.00     0.129 H 
ATOM     87  H37 non d ame     -31.373  13.919  21.865  0.00  0.00     0.046 H 
BRANCH  83  88
ATOM     88  O6  non d ame     -31.440  16.741  21.889  0.00  0.00    -0.369 OA
ATOM     89  H45 non d ame     -31.888  16.648  22.733  0.00  0.00     0.212 HD
ENDBRANCH  83  88
ENDBRANCH  72  75
ENDBRANCH  47  72
ENDBRANCH  45  47
ENDBRANCH   1  43
BRANCH   1  90
ATOM     90  C16 non d ame     -33.669  11.218  27.450  0.00  0.00    -0.035 C 
ATOM     91  H21 non d ame     -33.460  12.261  27.684  0.00  0.00     0.037 H 
ATOM     92  H22 non d ame     -34.699  10.861  27.425  0.00  0.00     0.037 H 
BRANCH  90  93
ATOM     93  C17 non d ame     -32.932  10.367  28.532  0.00  0.00    -0.059 C 
ATOM     94  H23 non d ame     -32.089   9.875  28.048  0.00  0.00     0.038 H 
BRANCH  93  95
ATOM     95  C18 non d ame     -32.368  11.249  29.692  0.00  0.00    -0.073 C 
ATOM     96  H24 non d ame     -31.383  11.624  29.417  0.00  0.00     0.028 H 
ATOM     97  H25 non d ame     -33.039  12.089  29.869  0.00  0.00     0.028 H 
ATOM     98  H26 non d ame     -32.289  10.650  30.598  0.00  0.00     0.028 H 
ENDBRANCH  93  95
BRANCH  93  99
ATOM     99  C19 non d ame     -33.847   9.268  29.080  0.00  0.00    -0.073 C 
ATOM    100  H27 non d ame     -34.887   9.535  28.893  0.00  0.00     0.028 H 
ATOM    101  H28 non d ame     -33.619   8.325  28.583  0.00  0.00     0.028 H 
ATOM    102  H29 non d ame     -33.685   9.162  30.152  0.00  0.00     0.028 H 
ENDBRANCH  93  99
ENDBRANCH  90  93
ENDBRANCH   1  90
TORSDOF 26
ENDMDL
MODEL 11
REMARK VINA RESULT:      -6.2      3.215      7.426
REMARK  26 active torsions:
REMARK  status: ('A' for Active; 'I' for Inactive)
REMARK    1  A    between atoms: C2_2  and  C3_3 
REMARK    2  A    between atoms: C4_6  and  C5_7 
REMARK       I    between atoms: C5_7  and  N2_9 
REMARK    3  A    between atoms: N2_9  and  C6_10 
REMARK    4  A    between atoms: C6_10  and  C7_11 
REMARK    5  A    between atoms: C6_10  and  C8_13 
REMARK       I    between atoms: C7_11  and  N3_14 
REMARK    6  A    between atoms: N3_14  and  C9_15 
REMARK    7  A    between atoms: C9_15  and  C10_16 
REMARK    8  A    between atoms: C9_15  and  C11_18 
REMARK       I    between atoms: C10_16  and  N4_21 
REMARK    9  A    between atoms: C11_18  and  C12_19 
REMARK   10  A    between atoms: C11_18  and  C13_20 
REMARK   11  A    between atoms: N4_21  and  C14_22 
REMARK   12  A    between atoms: C14_22  and  C15_23 
REMARK   13  A    between atoms: C14_22  and  C16_25 
REMARK       I    between atoms: C15_23  and  N6_40 
REMARK   14  A    between atoms: C16_25  and  C17_26 
REMARK   15  A    between atoms: C17_26  and  C18_27 
REMARK   16  A    between atoms: C17_26  and  C19_28 
REMARK   17  A    between atoms: C20_29  and  C21_30 
REMARK   18  A    between atoms: C20_29  and  C24_33 
REMARK   19  A    between atoms: C20_29  and  N6_40 
REMARK   20  A    between atoms: C21_30  and  C22_31 
REMARK   21  A    between atoms: C22_31  and  C23_32 
REMARK   22  A    between atoms: C23_32  and  O8_43 
REMARK   23  A    between atoms: C24_33  and  C25_34 
REMARK   24  A    between atoms: C28_38  and  O6_39 
REMARK   25  A    between atoms: C29_42  and  O8_43 
REMARK   26  A    between atoms: C29_42  and  C35_49 
ROOT
ATOM      1  C14 non d ame     -32.482  10.435  26.565  0.00  0.00     0.089 C 
ATOM      2  H20 non d ame     -33.528  10.519  26.268  0.00  0.00     0.087 H 
ENDROOT
BRANCH   1   3
ATOM      3  N4  non d ame     -31.892   9.355  25.787  0.00  0.00    -0.346 N 
ATOM      4  C10 non d ame     -32.355   9.091  24.377  0.00  0.00     0.241 C 
ATOM      5  O4  non d ame     -33.206   9.760  23.889  0.00  0.00    -0.271 OA
ATOM      6  H19 non d ame     -31.171   8.796  26.221  0.00  0.00     0.163 HD
BRANCH   4   7
ATOM      7  C9  non d ame     -31.729   7.974  23.585  0.00  0.00     0.092 C 
ATOM      8  H11 non d ame     -30.765   7.720  24.023  0.00  0.00     0.088 H 
BRANCH   7   9
ATOM      9  N3  non d ame     -32.574   6.779  23.674  0.00  0.00    -0.346 N 
ATOM     10  C7  non d ame     -32.471   5.908  24.819  0.00  0.00     0.240 C 
ATOM     11  O3  non d ame     -31.713   6.152  25.676  0.00  0.00    -0.271 OA
ATOM     12  H10 non d ame     -33.231   6.554  22.941  0.00  0.00     0.163 HD
BRANCH  10  13
ATOM     13  C6  non d ame     -33.371   4.636  24.907  0.00  0.00     0.086 C 
ATOM     14  H6  non d ame     -32.864   3.793  25.377  0.00  0.00     0.086 H 
BRANCH  13  15
ATOM     15  N2  non d ame     -34.531   4.935  25.729  0.00  0.00    -0.343 N 
ATOM     16  C5  non d ame     -34.587   4.440  27.106  0.00  0.00     0.273 C 
ATOM     17  O2  non d ame     -33.694   3.799  27.542  0.00  0.00    -0.266 OA
ATOM     18  H5  non d ame     -35.291   5.480  25.347  0.00  0.00     0.163 HD
BRANCH  16  19
ATOM     19  C4  non d ame     -35.807   4.750  27.987  0.00  0.00     0.154 A 
ATOM     20  C1  non d ame     -35.879   5.689  29.064  0.00  0.00    -0.017 A 
ATOM     21  C2  non d ame     -37.206   5.594  29.540  0.00  0.00     0.077 A 
ATOM     22  H1  non d ame     -35.090   6.339  29.442  0.00  0.00     0.091 H 
ATOM     23  O1  non d ame     -37.816   4.704  28.814  0.00  0.00    -0.218 OA
ATOM     24  N1  non d ame     -37.020   4.197  27.901  0.00  0.00    -0.123 NA
BRANCH  21  25
ATOM     25  C3  non d ame     -37.810   6.389  30.691  0.00  0.00    -0.029 C 
ATOM     26  H2  non d ame     -37.149   6.336  31.555  0.00  0.00     0.036 H 
ATOM     27  H3  non d ame     -37.931   7.429  30.389  0.00  0.00     0.036 H 
ATOM     28  H4  non d ame     -38.782   5.971  30.950  0.00  0.00     0.036 H 
ENDBRANCH  21  25
ENDBRANCH  16  19
ENDBRANCH  13  15
BRANCH  13  29
ATOM     29  C8  non d ame     -33.809   4.230  23.522  0.00  0.00    -0.049 C 
ATOM     30  H7  non d ame     -32.932   4.007  22.914  0.00  0.00     0.030 H 
ATOM     31  H8  non d ame     -34.441   3.345  23.586  0.00  0.00     0.030 H 
ATOM     32  H9  non d ame     -34.370   5.045  23.065  0.00  0.00     0.030 H 
ENDBRANCH  13  29
ENDBRANCH  10  13
ENDBRANCH   7   9
BRANCH   7  33
ATOM     33  C11 non d ame     -31.600   8.404  22.094  0.00  0.00    -0.033 C 
ATOM     34  H12 non d ame     -32.212   9.294  21.954  0.00  0.00     0.042 H 
BRANCH  33  35
ATOM     35  C12 non d ame     -30.129   8.786  21.738  0.00  0.00    -0.071 C 
ATOM     36  H13 non d ame     -29.955   8.612  20.677  0.00  0.00     0.028 H 
ATOM     37  H14 non d ame     -29.962   9.838  21.967  0.00  0.00     0.028 H 
ATOM     38  H15 non d ame     -29.443   8.173  22.324  0.00  0.00     0.028 H 
ENDBRANCH  33  35
BRANCH  33  39
ATOM     39  C13 non d ame     -32.142   7.290  21.141  0.00  0.00    -0.071 C 
ATOM     40  H16 non d ame     -31.328   6.618  20.868  0.00  0.00     0.028 H 
ATOM     41  H17 non d ame     -32.924   6.726  21.650  0.00  0.00     0.028 H 
ATOM     42  H18 non d ame     -32.552   7.749  20.242  0.00  0.00     0.028 H 
ENDBRANCH  33  39
ENDBRANCH   7  33
ENDBRANCH   4   7
ENDBRANCH   1   3
BRANCH   1  43
ATOM     43  C15 non d ame     -31.685  11.741  26.284  0.00  0.00     0.240 C 
ATOM     44  O5  non d ame     -30.947  12.172  27.110  0.00  0.00    -0.271 OA
ATOM     45  N6  non d ame     -31.835  12.449  24.981  0.00  0.00    -0.355 N 
ATOM     46  H46 non d ame     -32.455  12.090  24.270  0.00  0.00     0.162 HD
BRANCH  45  47
ATOM     47  C20 non d ame     -31.068  13.689  24.729  0.00  0.00     0.013 C 
ATOM     48  H30 non d ame     -30.190  13.677  25.374  0.00  0.00     0.072 H 
BRANCH  47  49
ATOM     49  C21 non d ame     -31.933  14.886  25.054  0.00  0.00    -0.038 C 
ATOM     50  H31 non d ame     -31.807  15.576  24.220  0.00  0.00     0.036 H 
ATOM     51  H32 non d ame     -32.919  14.482  25.284  0.00  0.00     0.036 H 
BRANCH  49  52
ATOM     52  C22 non d ame     -31.464  15.638  26.318  0.00  0.00     0.018 C 
ATOM     53  H33 non d ame     -30.695  15.010  26.767  0.00  0.00     0.048 H 
ATOM     54  H34 non d ame     -31.218  16.647  25.987  0.00  0.00     0.048 H 
BRANCH  52  55
ATOM     55  C23 non d ame     -32.569  15.799  27.398  0.00  0.00     0.259 C 
ATOM     56  O7  non d ame     -33.212  14.862  27.747  0.00  0.00    -0.265 OA
BRANCH  55  57
ATOM     57  O8  non d ame     -32.815  17.083  27.958  0.00  0.00    -0.317 OA
BRANCH  57  58
ATOM     58  C29 non d ame     -32.565  18.167  27.060  0.00  0.00     0.052 C 
ATOM     59  H47 non d ame     -31.998  18.901  27.633  0.00  0.00     0.082 H 
ATOM     60  H48 non d ame     -32.129  17.718  26.168  0.00  0.00     0.082 H 
BRANCH  58  61
ATOM     61  C35 non d ame     -33.931  18.794  26.674  0.00  0.00    -0.034 A 
ATOM     62  C30 non d ame     -34.758  18.153  25.757  0.00  0.00    -0.075 A 
ATOM     63  C31 non d ame     -35.985  18.717  25.410  0.00  0.00    -0.082 A 
ATOM     64  H49 non d ame     -34.444  17.210  25.309  0.00  0.00     0.084 H 
ATOM     65  C32 non d ame     -36.384  19.927  25.983  0.00  0.00    -0.083 A 
ATOM     66  H50 non d ame     -36.631  18.211  24.692  0.00  0.00     0.083 H 
ATOM     67  C33 non d ame     -35.554  20.565  26.895  0.00  0.00    -0.082 A 
ATOM     68  H51 non d ame     -37.342  20.374  25.718  0.00  0.00     0.083 H 
ATOM     69  C34 non d ame     -34.328  20.005  27.246  0.00  0.00    -0.075 A 
ATOM     70  H52 non d ame     -35.867  21.511  27.338  0.00  0.00     0.083 H 
ATOM     71  H53 non d ame     -33.682  20.511  27.964  0.00  0.00     0.084 H 
ENDBRANCH  58  61
ENDBRANCH  57  58
ENDBRANCH  55  57
ENDBRANCH  52  55
ENDBRANCH  49  52
ENDBRANCH  47  49
BRANCH  47  72
ATOM     72  C24 non d ame     -30.649  13.747  23.261  0.00  0.00    -0.039 C 
ATOM     73  H35 non d ame     -29.660  13.289  23.224  0.00  0.00     0.036 H 
ATOM     74  H36 non d ame     -31.475  13.304  22.705  0.00  0.00     0.036 H 
BRANCH  72  75
ATOM     75  C25 non d ame     -30.490  15.257  22.750  0.00  0.00    -0.001 C 
ATOM     76  C26 non d ame     -31.402  15.489  21.401  0.00  0.00    -0.035 C 
ATOM     77  C27 non d ame     -30.624  16.039  20.438  0.00  0.00     0.085 C 
ATOM     78  H38 non d ame     -31.693  14.529  20.977  0.00  0.00     0.036 H 
ATOM     79  H39 non d ame     -32.156  16.255  21.587  0.00  0.00     0.036 H 
ATOM     80  N5  non d ame     -29.192  15.900  20.895  0.00  0.00    -0.049 N 
ATOM     81  H40 non d ame     -30.777  15.421  19.553  0.00  0.00     0.075 H 
ATOM     82  H41 non d ame     -30.889  17.095  20.417  0.00  0.00     0.075 H 
ATOM     83  C28 non d ame     -29.260  15.527  22.464  0.00  0.00     0.193 C 
ATOM     84  H42 non d ame     -28.807  15.112  20.393  0.00  0.00     0.280 HD
ATOM     85  H43 non d ame     -28.772  16.814  20.799  0.00  0.00     0.280 HD
ATOM     86  H44 non d ame     -29.041  16.279  23.222  0.00  0.00     0.129 H 
ATOM     87  H37 non d ame     -30.605  15.980  23.557  0.00  0.00     0.046 H 
BRANCH  83  88
ATOM     88  O6  non d ame     -28.388  14.432  22.749  0.00  0.00    -0.369 OA
ATOM     89  H45 non d ame     -27.690  14.725  23.339  0.00  0.00     0.212 HD
ENDBRANCH  83  88
ENDBRANCH  72  75
ENDBRANCH  47  72
ENDBRANCH  45  47
ENDBRANCH   1  43
BRANCH   1  90
ATOM     90  C16 non d ame     -32.392  10.089  28.042  0.00  0.00    -0.035 C 
ATOM     91  H21 non d ame     -32.508   9.006  28.093  0.00  0.00     0.037 H 
ATOM     92  H22 non d ame     -31.472  10.556  28.393  0.00  0.00     0.037 H 
BRANCH  90  93
ATOM     93  C17 non d ame     -33.549  10.695  28.900  0.00  0.00    -0.059 C 
ATOM     94  H23 non d ame     -33.974   9.890  29.499  0.00  0.00     0.038 H 
BRANCH  93  95
ATOM     95  C18 non d ame     -33.039  11.800  29.880  0.00  0.00    -0.073 C 
ATOM     96  H24 non d ame     -31.950  11.831  29.858  0.00  0.00     0.028 H 
ATOM     97  H25 non d ame     -33.435  12.768  29.574  0.00  0.00     0.028 H 
ATOM     98  H26 non d ame     -33.376  11.572  30.890  0.00  0.00     0.028 H 
ENDBRANCH  93  95
BRANCH  93  99
ATOM     99  C19 non d ame     -34.667  11.235  28.005  0.00  0.00    -0.073 C 
ATOM    100  H27 non d ame     -35.103  10.415  27.432  0.00  0.00     0.028 H 
ATOM    101  H28 non d ame     -35.438  11.695  28.623  0.00  0.00     0.028 H 
ATOM    102  H29 non d ame     -34.259  11.979  27.321  0.00  0.00     0.028 H 
ENDBRANCH  93  99
ENDBRANCH  90  93
ENDBRANCH   1  90
TORSDOF 26
ENDMDL
