MODEL 1
REMARK VINA RESULT:      -7.1      0.000      0.000
REMARK  26 active torsions:
REMARK  status: ('A' for Active; 'I' for Inactive)
REMARK    1  A    between atoms: C2_2  and  C3_3 
REMARK    2  A    between atoms: C4_6  and  C5_7 
REMARK       I    between atoms: C5_7  and  N2_9 
REMARK    3  A    between atoms: N2_9  and  C6_10 
REMARK    4  A    between atoms: C6_10  and  C7_11 
REMARK    5  A    between atoms: C6_10  and  C8_13 
REMARK       I    between atoms: C7_11  and  N3_14 
REMARK    6  A    between atoms: N3_14  and  C9_15 
REMARK    7  A    between atoms: C9_15  and  C10_16 
REMARK    8  A    between atoms: C9_15  and  C11_18 
REMARK       I    between atoms: C10_16  and  N4_21 
REMARK    9  A    between atoms: C11_18  and  C12_19 
REMARK   10  A    between atoms: C11_18  and  C13_20 
REMARK   11  A    between atoms: N4_21  and  C14_22 
REMARK   12  A    between atoms: C14_22  and  C15_23 
REMARK   13  A    between atoms: C14_22  and  C16_25 
REMARK       I    between atoms: C15_23  and  N6_40 
REMARK   14  A    between atoms: C16_25  and  C17_26 
REMARK   15  A    between atoms: C17_26  and  C18_27 
REMARK   16  A    between atoms: C17_26  and  C19_28 
REMARK   17  A    between atoms: C20_29  and  C21_30 
REMARK   18  A    between atoms: C20_29  and  C24_33 
REMARK   19  A    between atoms: C20_29  and  N6_40 
REMARK   20  A    between atoms: C21_30  and  C22_31 
REMARK   21  A    between atoms: C22_31  and  C23_32 
REMARK   22  A    between atoms: C23_32  and  O8_43 
REMARK   23  A    between atoms: C24_33  and  C25_34 
REMARK   24  A    between atoms: C28_38  and  O6_39 
REMARK   25  A    between atoms: C29_42  and  O8_43 
REMARK   26  A    between atoms: C29_42  and  C35_49 
ROOT
ATOM      1  C14 non d ame     -30.823  14.526  23.703  0.00  0.00     0.089 C 
ATOM      2  H20 non d ame     -29.737  14.582  23.615  0.00  0.00     0.087 H 
ENDROOT
BRANCH   1   3
ATOM      3  N4  non d ame     -31.166  13.149  24.024  0.00  0.00    -0.346 N 
ATOM      4  C10 non d ame     -30.515  12.009  23.280  0.00  0.00     0.241 C 
ATOM      5  O4  non d ame     -29.721  12.226  22.426  0.00  0.00    -0.271 OA
ATOM      6  H19 non d ame     -31.846  12.985  24.753  0.00  0.00     0.163 HD
BRANCH   4   7
ATOM      7  C9  non d ame     -30.878  10.589  23.629  0.00  0.00     0.092 C 
ATOM      8  H11 non d ame     -30.319  10.283  24.513  0.00  0.00     0.088 H 
BRANCH   7   9
ATOM      9  N3  non d ame     -32.302  10.518  23.970  0.00  0.00    -0.346 N 
ATOM     10  C7  non d ame     -32.705  10.318  25.341  0.00  0.00     0.240 C 
ATOM     11  O3  non d ame     -31.897  10.211  26.181  0.00  0.00    -0.271 OA
ATOM     12  H10 non d ame     -33.011  10.607  23.256  0.00  0.00     0.163 HD
BRANCH  10  13
ATOM     13  C6  non d ame     -34.222  10.240  25.698  0.00  0.00     0.086 C 
ATOM     14  H6  non d ame     -34.396  10.061  26.759  0.00  0.00     0.086 H 
BRANCH  13  15
ATOM     15  N2  non d ame     -34.847  11.513  25.382  0.00  0.00    -0.343 N 
ATOM     16  C5  non d ame     -35.841  12.076  26.298  0.00  0.00     0.273 C 
ATOM     17  O2  non d ame     -36.133  11.495  27.285  0.00  0.00    -0.266 OA
ATOM     18  H5  non d ame     -34.593  12.001  24.534  0.00  0.00     0.163 HD
BRANCH  16  19
ATOM     19  C4  non d ame     -36.508  13.422  25.977  0.00  0.00     0.154 A 
ATOM     20  C1  non d ame     -36.512  14.108  24.721  0.00  0.00    -0.017 A 
ATOM     21  C2  non d ame     -37.255  15.287  24.952  0.00  0.00     0.077 A 
ATOM     22  H1  non d ame     -36.047  13.798  23.785  0.00  0.00     0.091 H 
ATOM     23  O1  non d ame     -37.631  15.270  26.198  0.00  0.00    -0.218 OA
ATOM     24  N1  non d ame     -37.207  14.192  26.816  0.00  0.00    -0.123 NA
BRANCH  21  25
ATOM     25  C3  non d ame     -37.560  16.375  23.932  0.00  0.00    -0.029 C 
ATOM     26  H2  non d ame     -37.442  17.353  24.397  0.00  0.00     0.036 H 
ATOM     27  H3  non d ame     -36.873  16.288  23.091  0.00  0.00     0.036 H 
ATOM     28  H4  non d ame     -38.585  16.263  23.576  0.00  0.00     0.036 H 
ENDBRANCH  21  25
ENDBRANCH  16  19
ENDBRANCH  13  15
BRANCH  13  29
ATOM     29  C8  non d ame     -34.871   9.134  24.905  0.00  0.00    -0.049 C 
ATOM     30  H7  non d ame     -35.713   9.538  24.341  0.00  0.00     0.030 H 
ATOM     31  H8  non d ame     -34.144   8.707  24.215  0.00  0.00     0.030 H 
ATOM     32  H9  non d ame     -35.227   8.360  25.584  0.00  0.00     0.030 H 
ENDBRANCH  13  29
ENDBRANCH  10  13
ENDBRANCH   7   9
BRANCH   7  33
ATOM     33  C11 non d ame     -30.594   9.667  22.407  0.00  0.00    -0.033 C 
ATOM     34  H12 non d ame     -30.497  10.305  21.529  0.00  0.00     0.042 H 
BRANCH  33  35
ATOM     35  C12 non d ame     -29.247   8.896  22.578  0.00  0.00    -0.071 C 
ATOM     36  H13 non d ame     -28.998   8.830  23.638  0.00  0.00     0.028 H 
ATOM     37  H14 non d ame     -29.348   7.893  22.165  0.00  0.00     0.028 H 
ATOM     38  H15 non d ame     -28.455   9.429  22.052  0.00  0.00     0.028 H 
ENDBRANCH  33  35
BRANCH  33  39
ATOM     39  C13 non d ame     -31.782   8.683  22.161  0.00  0.00    -0.071 C 
ATOM     40  H16 non d ame     -32.369   9.028  21.310  0.00  0.00     0.028 H 
ATOM     41  H17 non d ame     -31.391   7.686  21.954  0.00  0.00     0.028 H 
ATOM     42  H18 non d ame     -32.414   8.647  23.049  0.00  0.00     0.028 H 
ENDBRANCH  33  39
ENDBRANCH   7  33
ENDBRANCH   4   7
ENDBRANCH   1   3
BRANCH   1  43
ATOM     43  C15 non d ame     -31.369  15.448  24.831  0.00  0.00     0.240 C 
ATOM     44  O5  non d ame     -30.682  16.311  25.273  0.00  0.00    -0.271 OA
ATOM     45  N6  non d ame     -32.752  15.259  25.354  0.00  0.00    -0.355 N 
ATOM     46  H46 non d ame     -33.347  14.533  24.983  0.00  0.00     0.162 HD
BRANCH  45  47
ATOM     47  C20 non d ame     -33.258  16.145  26.425  0.00  0.00     0.013 C 
ATOM     48  H30 non d ame     -32.415  16.716  26.814  0.00  0.00     0.072 H 
BRANCH  47  49
ATOM     49  C21 non d ame     -33.861  15.303  27.526  0.00  0.00    -0.038 C 
ATOM     50  H31 non d ame     -34.775  15.818  27.824  0.00  0.00     0.036 H 
ATOM     51  H32 non d ame     -33.912  14.289  27.127  0.00  0.00     0.036 H 
BRANCH  49  52
ATOM     52  C22 non d ame     -32.969  15.232  28.785  0.00  0.00     0.018 C 
ATOM     53  H33 non d ame     -32.312  16.099  28.730  0.00  0.00     0.048 H 
ATOM     54  H34 non d ame     -33.654  15.120  29.626  0.00  0.00     0.048 H 
BRANCH  52  55
ATOM     55  C23 non d ame     -32.037  13.990  28.823  0.00  0.00     0.259 C 
ATOM     56  O7  non d ame     -31.610  13.525  27.816  0.00  0.00    -0.265 OA
BRANCH  55  57
ATOM     57  O8  non d ame     -31.707  13.405  30.077  0.00  0.00    -0.317 OA
BRANCH  57  58
ATOM     58  C29 non d ame     -31.345  12.023  29.997  0.00  0.00     0.052 C 
ATOM     59  H47 non d ame     -30.992  11.869  28.977  0.00  0.00     0.082 H 
ATOM     60  H48 non d ame     -30.675  11.845  30.838  0.00  0.00     0.082 H 
BRANCH  58  61
ATOM     61  C35 non d ame     -32.630  11.178  30.205  0.00  0.00    -0.034 A 
ATOM     62  C30 non d ame     -32.994  10.222  29.263  0.00  0.00    -0.075 A 
ATOM     63  C31 non d ame     -34.149   9.463  29.449  0.00  0.00    -0.082 A 
ATOM     64  H49 non d ame     -32.376  10.066  28.378  0.00  0.00     0.084 H 
ATOM     65  C32 non d ame     -34.942   9.665  30.582  0.00  0.00    -0.083 A 
ATOM     66  H50 non d ame     -34.431   8.713  28.710  0.00  0.00     0.083 H 
ATOM     67  C33 non d ame     -34.576  10.624  31.517  0.00  0.00    -0.082 A 
ATOM     68  H51 non d ame     -35.846   9.076  30.736  0.00  0.00     0.083 H 
ATOM     69  C34 non d ame     -33.421  11.383  31.336  0.00  0.00    -0.075 A 
ATOM     70  H52 non d ame     -35.198  10.781  32.399  0.00  0.00     0.083 H 
ATOM     71  H53 non d ame     -33.140  12.133  32.076  0.00  0.00     0.084 H 
ENDBRANCH  58  61
ENDBRANCH  57  58
ENDBRANCH  55  57
ENDBRANCH  52  55
ENDBRANCH  49  52
ENDBRANCH  47  49
BRANCH  47  72
ATOM     72  C24 non d ame     -34.321  17.085  25.861  0.00  0.00    -0.039 C 
ATOM     73  H35 non d ame     -34.473  16.764  24.830  0.00  0.00     0.036 H 
ATOM     74  H36 non d ame     -35.147  17.047  26.570  0.00  0.00     0.036 H 
BRANCH  72  75
ATOM     75  C25 non d ame     -33.807  18.601  25.813  0.00  0.00    -0.001 C 
ATOM     76  C26 non d ame     -32.579  18.810  26.887  0.00  0.00    -0.035 C 
ATOM     77  C27 non d ame     -32.859  19.882  27.666  0.00  0.00     0.085 C 
ATOM     78  H38 non d ame     -32.556  17.981  27.594  0.00  0.00     0.036 H 
ATOM     79  H39 non d ame     -31.670  19.106  26.363  0.00  0.00     0.036 H 
ATOM     80  N5  non d ame     -34.311  20.225  27.440  0.00  0.00    -0.049 N 
ATOM     81  H40 non d ame     -32.729  19.538  28.692  0.00  0.00     0.075 H 
ATOM     82  H41 non d ame     -32.239  20.691  27.281  0.00  0.00     0.075 H 
ATOM     83  C28 non d ame     -34.755  19.426  26.110  0.00  0.00     0.193 C 
ATOM     84  H42 non d ame     -34.820  19.847  28.227  0.00  0.00     0.280 HD
ATOM     85  H43 non d ame     -34.344  21.216  27.247  0.00  0.00     0.280 HD
ATOM     86  H44 non d ame     -34.866  19.950  25.160  0.00  0.00     0.129 H 
ATOM     87  H37 non d ame     -33.638  18.948  24.793  0.00  0.00     0.046 H 
BRANCH  83  88
ATOM     88  O6  non d ame     -36.000  18.760  26.327  0.00  0.00    -0.369 OA
ATOM     89  H45 non d ame     -35.848  17.815  26.406  0.00  0.00     0.212 HD
ENDBRANCH  83  88
ENDBRANCH  72  75
ENDBRANCH  47  72
ENDBRANCH  45  47
ENDBRANCH   1  43
BRANCH   1  90
ATOM     90  C16 non d ame     -31.467  14.903  22.379  0.00  0.00    -0.035 C 
ATOM     91  H21 non d ame     -31.654  13.957  21.870  0.00  0.00     0.037 H 
ATOM     92  H22 non d ame     -32.301  15.556  22.638  0.00  0.00     0.037 H 
BRANCH  90  93
ATOM     93  C17 non d ame     -30.533  15.731  21.441  0.00  0.00    -0.059 C 
ATOM     94  H23 non d ame     -30.834  16.776  21.513  0.00  0.00     0.038 H 
BRANCH  93  95
ATOM     95  C18 non d ame     -29.033  15.636  21.869  0.00  0.00    -0.073 C 
ATOM     96  H24 non d ame     -28.488  15.027  21.149  0.00  0.00     0.028 H 
ATOM     97  H25 non d ame     -28.600  16.635  21.900  0.00  0.00     0.028 H 
ATOM     98  H26 non d ame     -28.966  15.180  22.856  0.00  0.00     0.028 H 
ENDBRANCH  93  95
BRANCH  93  99
ATOM     99  C19 non d ame     -30.710  15.308  19.980  0.00  0.00    -0.073 C 
ATOM    100  H27 non d ame     -30.034  15.887  19.349  0.00  0.00     0.028 H 
ATOM    101  H28 non d ame     -30.481  14.247  19.878  0.00  0.00     0.028 H 
ATOM    102  H29 non d ame     -31.739  15.488  19.672  0.00  0.00     0.028 H 
ENDBRANCH  93  99
ENDBRANCH  90  93
ENDBRANCH   1  90
TORSDOF 26
ENDMDL
MODEL 2
REMARK VINA RESULT:      -6.7      3.413      7.034
REMARK  26 active torsions:
REMARK  status: ('A' for Active; 'I' for Inactive)
REMARK    1  A    between atoms: C2_2  and  C3_3 
REMARK    2  A    between atoms: C4_6  and  C5_7 
REMARK       I    between atoms: C5_7  and  N2_9 
REMARK    3  A    between atoms: N2_9  and  C6_10 
REMARK    4  A    between atoms: C6_10  and  C7_11 
REMARK    5  A    between atoms: C6_10  and  C8_13 
REMARK       I    between atoms: C7_11  and  N3_14 
REMARK    6  A    between atoms: N3_14  and  C9_15 
REMARK    7  A    between atoms: C9_15  and  C10_16 
REMARK    8  A    between atoms: C9_15  and  C11_18 
REMARK       I    between atoms: C10_16  and  N4_21 
REMARK    9  A    between atoms: C11_18  and  C12_19 
REMARK   10  A    between atoms: C11_18  and  C13_20 
REMARK   11  A    between atoms: N4_21  and  C14_22 
REMARK   12  A    between atoms: C14_22  and  C15_23 
REMARK   13  A    between atoms: C14_22  and  C16_25 
REMARK       I    between atoms: C15_23  and  N6_40 
REMARK   14  A    between atoms: C16_25  and  C17_26 
REMARK   15  A    between atoms: C17_26  and  C18_27 
REMARK   16  A    between atoms: C17_26  and  C19_28 
REMARK   17  A    between atoms: C20_29  and  C21_30 
REMARK   18  A    between atoms: C20_29  and  C24_33 
REMARK   19  A    between atoms: C20_29  and  N6_40 
REMARK   20  A    between atoms: C21_30  and  C22_31 
REMARK   21  A    between atoms: C22_31  and  C23_32 
REMARK   22  A    between atoms: C23_32  and  O8_43 
REMARK   23  A    between atoms: C24_33  and  C25_34 
REMARK   24  A    between atoms: C28_38  and  O6_39 
REMARK   25  A    between atoms: C29_42  and  O8_43 
REMARK   26  A    between atoms: C29_42  and  C35_49 
ROOT
ATOM      1  C14 non d ame     -33.094  10.308  25.632  0.00  0.00     0.089 C 
ATOM      2  H20 non d ame     -33.805  10.370  24.808  0.00  0.00     0.087 H 
ENDROOT
BRANCH   1   3
ATOM      3  N4  non d ame     -32.495   8.983  25.596  0.00  0.00    -0.346 N 
ATOM      4  C10 non d ame     -33.186   7.854  24.874  0.00  0.00     0.241 C 
ATOM      5  O4  non d ame     -34.226   8.036  24.332  0.00  0.00    -0.271 OA
ATOM      6  H19 non d ame     -31.611   8.848  26.066  0.00  0.00     0.163 HD
BRANCH   4   7
ATOM      7  C9  non d ame     -32.549   6.489  24.841  0.00  0.00     0.092 C 
ATOM      8  H11 non d ame     -31.491   6.582  25.089  0.00  0.00     0.088 H 
BRANCH   7   9
ATOM      9  N3  non d ame     -33.161   5.639  25.867  0.00  0.00    -0.346 N 
ATOM     10  C7  non d ame     -32.737   5.749  27.241  0.00  0.00     0.240 C 
ATOM     11  O3  non d ame     -31.904   6.515  27.539  0.00  0.00    -0.271 OA
ATOM     12  H10 non d ame     -33.880   4.972  25.624  0.00  0.00     0.163 HD
BRANCH  10  13
ATOM     13  C6  non d ame     -33.390   4.838  28.327  0.00  0.00     0.086 C 
ATOM     14  H6  non d ame     -32.765   4.724  29.213  0.00  0.00     0.086 H 
BRANCH  13  15
ATOM     15  N2  non d ame     -34.632   5.450  28.770  0.00  0.00    -0.343 N 
ATOM     16  C5  non d ame     -34.937   5.507  30.201  0.00  0.00     0.273 C 
ATOM     17  O2  non d ame     -34.179   5.055  30.988  0.00  0.00    -0.266 OA
ATOM     18  H5  non d ame     -35.275   5.832  28.091  0.00  0.00     0.163 HD
BRANCH  16  19
ATOM     19  C4  non d ame     -36.246   6.152  30.684  0.00  0.00     0.154 A 
ATOM     20  C1  non d ame     -36.563   7.547  30.711  0.00  0.00    -0.017 A 
ATOM     21  C2  non d ame     -37.873   7.612  31.237  0.00  0.00     0.077 A 
ATOM     22  H1  non d ame     -35.939   8.384  30.398  0.00  0.00     0.091 H 
ATOM     23  O1  non d ame     -38.254   6.392  31.478  0.00  0.00    -0.218 OA
ATOM     24  N1  non d ame     -37.322   5.522  31.164  0.00  0.00    -0.123 NA
BRANCH  21  25
ATOM     25  C3  non d ame     -38.688   8.876  31.475  0.00  0.00    -0.029 C 
ATOM     26  H2  non d ame     -38.041   9.655  31.878  0.00  0.00     0.036 H 
ATOM     27  H3  non d ame     -39.117   9.214  30.532  0.00  0.00     0.036 H 
ATOM     28  H4  non d ame     -39.488   8.665  32.183  0.00  0.00     0.036 H 
ENDBRANCH  21  25
ENDBRANCH  16  19
ENDBRANCH  13  15
BRANCH  13  29
ATOM     29  C8  non d ame     -33.665   3.475  27.745  0.00  0.00    -0.049 C 
ATOM     30  H7  non d ame     -34.667   3.458  27.317  0.00  0.00     0.030 H 
ATOM     31  H8  non d ame     -32.934   3.259  26.967  0.00  0.00     0.030 H 
ATOM     32  H9  non d ame     -33.593   2.723  28.531  0.00  0.00     0.030 H 
ENDBRANCH  13  29
ENDBRANCH  10  13
ENDBRANCH   7   9
BRANCH   7  33
ATOM     33  C11 non d ame     -32.768   5.848  23.440  0.00  0.00    -0.033 C 
ATOM     34  H12 non d ame     -33.615   6.353  22.976  0.00  0.00     0.042 H 
BRANCH  33  35
ATOM     35  C12 non d ame     -31.530   6.064  22.516  0.00  0.00    -0.071 C 
ATOM     36  H13 non d ame     -30.744   5.361  22.790  0.00  0.00     0.028 H 
ATOM     37  H14 non d ame     -31.818   5.899  21.478  0.00  0.00     0.028 H 
ATOM     38  H15 non d ame     -31.162   7.083  22.634  0.00  0.00     0.028 H 
ENDBRANCH  33  35
BRANCH  33  39
ATOM     39  C13 non d ame     -33.121   4.331  23.569  0.00  0.00    -0.071 C 
ATOM     40  H16 non d ame     -34.202   4.215  23.652  0.00  0.00     0.028 H 
ATOM     41  H17 non d ame     -32.765   3.799  22.686  0.00  0.00     0.028 H 
ATOM     42  H18 non d ame     -32.641   3.920  24.457  0.00  0.00     0.028 H 
ENDBRANCH  33  39
ENDBRANCH   7  33
ENDBRANCH   4   7
ENDBRANCH   1   3
BRANCH   1  43
ATOM     43  C15 non d ame     -31.962  11.368  25.512  0.00  0.00     0.240 C 
ATOM     44  O5  non d ame     -30.824  11.026  25.563  0.00  0.00    -0.271 OA
ATOM     45  N6  non d ame     -32.295  12.808  25.323  0.00  0.00    -0.355 N 
ATOM     46  H46 non d ame     -33.257  13.110  25.273  0.00  0.00     0.162 HD
BRANCH  45  47
ATOM     47  C20 non d ame     -31.206  13.803  25.208  0.00  0.00     0.013 C 
ATOM     48  H30 non d ame     -30.296  13.273  24.929  0.00  0.00     0.072 H 
BRANCH  47  49
ATOM     49  C21 non d ame     -31.016  14.491  26.541  0.00  0.00    -0.038 C 
ATOM     50  H31 non d ame     -30.150  14.012  26.999  0.00  0.00     0.036 H 
ATOM     51  H32 non d ame     -30.996  15.559  26.320  0.00  0.00     0.036 H 
BRANCH  49  52
ATOM     52  C22 non d ame     -32.200  14.267  27.506  0.00  0.00     0.018 C 
ATOM     53  H33 non d ame     -33.072  14.685  27.005  0.00  0.00     0.048 H 
ATOM     54  H34 non d ame     -32.175  13.208  27.763  0.00  0.00     0.048 H 
BRANCH  52  55
ATOM     55  C23 non d ame     -32.068  15.037  28.849  0.00  0.00     0.259 C 
ATOM     56  O7  non d ame     -31.202  14.766  29.617  0.00  0.00    -0.265 OA
BRANCH  55  57
ATOM     57  O8  non d ame     -33.003  16.063  29.159  0.00  0.00    -0.317 OA
BRANCH  57  58
ATOM     58  C29 non d ame     -33.979  16.289  28.138  0.00  0.00     0.052 C 
ATOM     59  H47 non d ame     -33.700  15.633  27.313  0.00  0.00     0.082 H 
ATOM     60  H48 non d ame     -34.947  16.171  28.624  0.00  0.00     0.082 H 
BRANCH  58  61
ATOM     61  C35 non d ame     -33.844  17.760  27.663  0.00  0.00    -0.034 A 
ATOM     62  C30 non d ame     -34.983  18.514  27.399  0.00  0.00    -0.075 A 
ATOM     63  C31 non d ame     -34.862  19.836  26.972  0.00  0.00    -0.082 A 
ATOM     64  H49 non d ame     -35.970  18.069  27.525  0.00  0.00     0.084 H 
ATOM     65  C32 non d ame     -33.596  20.403  26.808  0.00  0.00    -0.083 A 
ATOM     66  H50 non d ame     -35.757  20.424  26.767  0.00  0.00     0.083 H 
ATOM     67  C33 non d ame     -32.462  19.646  27.070  0.00  0.00    -0.082 A 
ATOM     68  H51 non d ame     -33.492  21.436  26.475  0.00  0.00     0.083 H 
ATOM     69  C34 non d ame     -32.578  18.325  27.499  0.00  0.00    -0.075 A 
ATOM     70  H52 non d ame     -31.475  20.091  26.939  0.00  0.00     0.083 H 
ATOM     71  H53 non d ame     -31.683  17.738  27.704  0.00  0.00     0.084 H 
ENDBRANCH  58  61
ENDBRANCH  57  58
ENDBRANCH  55  57
ENDBRANCH  52  55
ENDBRANCH  49  52
ENDBRANCH  47  49
BRANCH  47  72
ATOM     72  C24 non d ame     -31.564  14.840  24.145  0.00  0.00    -0.039 C 
ATOM     73  H35 non d ame     -32.640  14.742  23.995  0.00  0.00     0.036 H 
ATOM     74  H36 non d ame     -31.148  15.781  24.506  0.00  0.00     0.036 H 
BRANCH  72  75
ATOM     75  C25 non d ame     -30.860  14.518  22.743  0.00  0.00    -0.001 C 
ATOM     76  C26 non d ame     -29.330  13.971  22.997  0.00  0.00    -0.035 C 
ATOM     77  C27 non d ame     -28.476  14.691  22.230  0.00  0.00     0.085 C 
ATOM     78  H38 non d ame     -29.015  14.202  24.014  0.00  0.00     0.036 H 
ATOM     79  H39 non d ame     -29.226  12.957  22.610  0.00  0.00     0.036 H 
ATOM     80  N5  non d ame     -29.241  15.891  21.725  0.00  0.00    -0.049 N 
ATOM     81  H40 non d ame     -27.691  15.028  22.906  0.00  0.00     0.075 H 
ATOM     82  H41 non d ame     -28.230  14.047  21.386  0.00  0.00     0.075 H 
ATOM     83  C28 non d ame     -30.800  15.571  21.997  0.00  0.00     0.193 C 
ATOM     84  H42 non d ame     -28.966  16.670  22.306  0.00  0.00     0.280 HD
ATOM     85  H43 non d ame     -29.089  15.927  20.727  0.00  0.00     0.280 HD
ATOM     86  H44 non d ame     -31.455  15.272  21.179  0.00  0.00     0.129 H 
ATOM     87  H37 non d ame     -31.497  13.923  22.088  0.00  0.00     0.046 H 
BRANCH  83  88
ATOM     88  O6  non d ame     -31.435  16.698  22.604  0.00  0.00    -0.369 OA
ATOM     89  H45 non d ame     -32.140  16.395  23.182  0.00  0.00     0.212 HD
ENDBRANCH  83  88
ENDBRANCH  72  75
ENDBRANCH  47  72
ENDBRANCH  45  47
ENDBRANCH   1  43
BRANCH   1  90
ATOM     90  C16 non d ame     -33.822  10.487  26.955  0.00  0.00    -0.035 C 
ATOM     91  H21 non d ame     -33.914  11.564  27.091  0.00  0.00     0.037 H 
ATOM     92  H22 non d ame     -34.718   9.870  26.877  0.00  0.00     0.037 H 
BRANCH  90  93
ATOM     93  C17 non d ame     -33.024   9.954  28.187  0.00  0.00    -0.059 C 
ATOM     94  H23 non d ame     -32.139   9.441  27.811  0.00  0.00     0.038 H 
BRANCH  93  95
ATOM     95  C18 non d ame     -32.543  11.109  29.123  0.00  0.00    -0.073 C 
ATOM     96  H24 non d ame     -31.850  11.751  28.580  0.00  0.00     0.028 H 
ATOM     97  H25 non d ame     -33.403  11.695  29.447  0.00  0.00     0.028 H 
ATOM     98  H26 non d ame     -32.042  10.687  29.993  0.00  0.00     0.028 H 
ENDBRANCH  93  95
BRANCH  93  99
ATOM     99  C19 non d ame     -33.847   8.927  28.969  0.00  0.00    -0.073 C 
ATOM    100  H27 non d ame     -34.867   9.293  29.088  0.00  0.00     0.028 H 
ATOM    101  H28 non d ame     -33.863   7.982  28.424  0.00  0.00     0.028 H 
ATOM    102  H29 non d ame     -33.399   8.773  29.950  0.00  0.00     0.028 H 
ENDBRANCH  93  99
ENDBRANCH  90  93
ENDBRANCH   1  90
TORSDOF 26
ENDMDL
MODEL 3
REMARK VINA RESULT:      -6.6      1.915      5.503
REMARK  26 active torsions:
REMARK  status: ('A' for Active; 'I' for Inactive)
REMARK    1  A    between atoms: C2_2  and  C3_3 
REMARK    2  A    between atoms: C4_6  and  C5_7 
REMARK       I    between atoms: C5_7  and  N2_9 
REMARK    3  A    between atoms: N2_9  and  C6_10 
REMARK    4  A    between atoms: C6_10  and  C7_11 
REMARK    5  A    between atoms: C6_10  and  C8_13 
REMARK       I    between atoms: C7_11  and  N3_14 
REMARK    6  A    between atoms: N3_14  and  C9_15 
REMARK    7  A    between atoms: C9_15  and  C10_16 
REMARK    8  A    between atoms: C9_15  and  C11_18 
REMARK       I    between atoms: C10_16  and  N4_21 
REMARK    9  A    between atoms: C11_18  and  C12_19 
REMARK   10  A    between atoms: C11_18  and  C13_20 
REMARK   11  A    between atoms: N4_21  and  C14_22 
REMARK   12  A    between atoms: C14_22  and  C15_23 
REMARK   13  A    between atoms: C14_22  and  C16_25 
REMARK       I    between atoms: C15_23  and  N6_40 
REMARK   14  A    between atoms: C16_25  and  C17_26 
REMARK   15  A    between atoms: C17_26  and  C18_27 
REMARK   16  A    between atoms: C17_26  and  C19_28 
REMARK   17  A    between atoms: C20_29  and  C21_30 
REMARK   18  A    between atoms: C20_29  and  C24_33 
REMARK   19  A    between atoms: C20_29  and  N6_40 
REMARK   20  A    between atoms: C21_30  and  C22_31 
REMARK   21  A    between atoms: C22_31  and  C23_32 
REMARK   22  A    between atoms: C23_32  and  O8_43 
REMARK   23  A    between atoms: C24_33  and  C25_34 
REMARK   24  A    between atoms: C28_38  and  O6_39 
REMARK   25  A    between atoms: C29_42  and  O8_43 
REMARK   26  A    between atoms: C29_42  and  C35_49 
ROOT
ATOM      1  C14 non d ame     -31.094  14.186  23.995  0.00  0.00     0.089 C 
ATOM      2  H20 non d ame     -30.062  14.335  24.313  0.00  0.00     0.087 H 
ENDROOT
BRANCH   1   3
ATOM      3  N4  non d ame     -31.401  12.772  24.152  0.00  0.00    -0.346 N 
ATOM      4  C10 non d ame     -30.621  11.734  23.385  0.00  0.00     0.241 C 
ATOM      5  O4  non d ame     -29.753  12.060  22.645  0.00  0.00    -0.271 OA
ATOM      6  H19 non d ame     -32.145  12.515  24.784  0.00  0.00     0.163 HD
BRANCH   4   7
ATOM      7  C9  non d ame     -30.949  10.274  23.564  0.00  0.00     0.092 C 
ATOM      8  H11 non d ame     -30.537   9.928  24.512  0.00  0.00     0.088 H 
BRANCH   7   9
ATOM      9  N3  non d ame     -32.403  10.104  23.634  0.00  0.00    -0.346 N 
ATOM     10  C7  non d ame     -33.053   9.988  24.916  0.00  0.00     0.240 C 
ATOM     11  O3  non d ame     -32.422  10.028  25.901  0.00  0.00    -0.271 OA
ATOM     12  H10 non d ame     -32.961  10.067  22.793  0.00  0.00     0.163 HD
BRANCH  10  13
ATOM     13  C6  non d ame     -34.601   9.804  24.985  0.00  0.00     0.086 C 
ATOM     14  H6  non d ame     -34.936   9.401  25.940  0.00  0.00     0.086 H 
BRANCH  13  15
ATOM     15  N2  non d ame     -35.237  11.103  24.836  0.00  0.00    -0.343 N 
ATOM     16  C5  non d ame     -35.481  11.926  26.022  0.00  0.00     0.273 C 
ATOM     17  O2  non d ame     -35.165  11.534  27.091  0.00  0.00    -0.266 OA
ATOM     18  H5  non d ame     -35.507  11.429  23.919  0.00  0.00     0.163 HD
BRANCH  16  19
ATOM     19  C4  non d ame     -36.151  13.302  25.880  0.00  0.00     0.154 A 
ATOM     20  C1  non d ame     -36.017  14.424  26.757  0.00  0.00    -0.017 A 
ATOM     21  C2  non d ame     -36.827  15.431  26.186  0.00  0.00     0.077 A 
ATOM     22  H1  non d ame     -35.422  14.497  27.668  0.00  0.00     0.091 H 
ATOM     23  O1  non d ame     -37.358  14.935  25.107  0.00  0.00    -0.218 OA
ATOM     24  N1  non d ame     -36.979  13.694  24.907  0.00  0.00    -0.123 NA
BRANCH  21  25
ATOM     25  C3  non d ame     -37.037  16.837  26.732  0.00  0.00    -0.029 C 
ATOM     26  H2  non d ame     -36.071  17.322  26.869  0.00  0.00     0.036 H 
ATOM     27  H3  non d ame     -37.636  17.414  26.029  0.00  0.00     0.036 H 
ATOM     28  H4  non d ame     -37.554  16.781  27.690  0.00  0.00     0.036 H 
ENDBRANCH  21  25
ENDBRANCH  16  19
ENDBRANCH  13  15
BRANCH  13  29
ATOM     29  C8  non d ame     -35.050   8.880  23.881  0.00  0.00    -0.049 C 
ATOM     30  H7  non d ame     -34.701   7.869  24.090  0.00  0.00     0.030 H 
ATOM     31  H8  non d ame     -36.138   8.884  23.824  0.00  0.00     0.030 H 
ATOM     32  H9  non d ame     -34.634   9.219  22.932  0.00  0.00     0.030 H 
ENDBRANCH  13  29
ENDBRANCH  10  13
ENDBRANCH   7   9
BRANCH   7  33
ATOM     33  C11 non d ame     -30.392   9.466  22.355  0.00  0.00    -0.033 C 
ATOM     34  H12 non d ame     -30.167  10.177  21.560  0.00  0.00     0.042 H 
BRANCH  33  35
ATOM     35  C12 non d ame     -29.063   8.736  22.722  0.00  0.00    -0.071 C 
ATOM     36  H13 non d ame     -28.620   9.208  23.600  0.00  0.00     0.028 H 
ATOM     37  H14 non d ame     -29.271   7.689  22.939  0.00  0.00     0.028 H 
ATOM     38  H15 non d ame     -28.368   8.804  21.885  0.00  0.00     0.028 H 
ENDBRANCH  33  35
BRANCH  33  39
ATOM     39  C13 non d ame     -31.460   8.461  21.816  0.00  0.00    -0.071 C 
ATOM     40  H16 non d ame     -31.214   7.454  22.153  0.00  0.00     0.028 H 
ATOM     41  H17 non d ame     -32.445   8.739  22.192  0.00  0.00     0.028 H 
ATOM     42  H18 non d ame     -31.468   8.488  20.726  0.00  0.00     0.028 H 
ENDBRANCH  33  39
ENDBRANCH   7  33
ENDBRANCH   4   7
ENDBRANCH   1   3
BRANCH   1  43
ATOM     43  C15 non d ame     -32.098  15.009  24.853  0.00  0.00     0.240 C 
ATOM     44  O5  non d ame     -33.106  15.406  24.364  0.00  0.00    -0.271 OA
ATOM     45  N6  non d ame     -31.806  15.294  26.287  0.00  0.00    -0.355 N 
ATOM     46  H46 non d ame     -30.955  14.957  26.714  0.00  0.00     0.162 HD
BRANCH  45  47
ATOM     47  C20 non d ame     -32.771  16.076  27.089  0.00  0.00     0.013 C 
ATOM     48  H30 non d ame     -33.760  15.938  26.653  0.00  0.00     0.072 H 
BRANCH  47  49
ATOM     49  C21 non d ame     -32.387  17.538  27.046  0.00  0.00    -0.038 C 
ATOM     50  H31 non d ame     -31.366  17.586  27.424  0.00  0.00     0.036 H 
ATOM     51  H32 non d ame     -32.610  17.871  26.032  0.00  0.00     0.036 H 
BRANCH  49  52
ATOM     52  C22 non d ame     -33.243  18.410  27.990  0.00  0.00     0.018 C 
ATOM     53  H33 non d ame     -34.008  17.747  28.392  0.00  0.00     0.048 H 
ATOM     54  H34 non d ame     -32.537  18.898  28.662  0.00  0.00     0.048 H 
BRANCH  52  55
ATOM     55  C23 non d ame     -34.005  19.555  27.266  0.00  0.00     0.259 C 
ATOM     56  O7  non d ame     -33.443  20.257  26.489  0.00  0.00    -0.265 OA
BRANCH  55  57
ATOM     57  O8  non d ame     -35.383  19.763  27.551  0.00  0.00    -0.317 OA
BRANCH  57  58
ATOM     58  C29 non d ame     -35.927  20.949  26.963  0.00  0.00     0.052 C 
ATOM     59  H47 non d ame     -36.388  21.500  27.782  0.00  0.00     0.082 H 
ATOM     60  H48 non d ame     -35.111  21.397  26.395  0.00  0.00     0.082 H 
BRANCH  58  61
ATOM     61  C35 non d ame     -37.040  20.523  25.968  0.00  0.00    -0.034 A 
ATOM     62  C30 non d ame     -38.378  20.687  26.310  0.00  0.00    -0.075 A 
ATOM     63  C31 non d ame     -39.378  20.304  25.417  0.00  0.00    -0.082 A 
ATOM     64  H49 non d ame     -38.644  21.114  27.277  0.00  0.00     0.084 H 
ATOM     65  C32 non d ame     -39.035  19.753  24.179  0.00  0.00    -0.083 A 
ATOM     66  H50 non d ame     -40.427  20.435  25.687  0.00  0.00     0.083 H 
ATOM     67  C33 non d ame     -37.698  19.589  23.844  0.00  0.00    -0.082 A 
ATOM     68  H51 non d ame     -39.811  19.452  23.475  0.00  0.00     0.083 H 
ATOM     69  C34 non d ame     -36.696  19.972  24.733  0.00  0.00    -0.075 A 
ATOM     70  H52 non d ame     -37.434  19.157  22.879  0.00  0.00     0.083 H 
ATOM     71  H53 non d ame     -35.647  19.840  24.462  0.00  0.00     0.084 H 
ENDBRANCH  58  61
ENDBRANCH  57  58
ENDBRANCH  55  57
ENDBRANCH  52  55
ENDBRANCH  49  52
ENDBRANCH  47  49
BRANCH  47  72
ATOM     72  C24 non d ame     -32.756  15.587  28.536  0.00  0.00    -0.039 C 
ATOM     73  H35 non d ame     -32.611  16.482  29.143  0.00  0.00     0.036 H 
ATOM     74  H36 non d ame     -33.662  14.992  28.650  0.00  0.00     0.036 H 
BRANCH  72  75
ATOM     75  C25 non d ame     -31.513  14.617  28.821  0.00  0.00    -0.001 C 
ATOM     76  C26 non d ame     -32.048  13.085  29.085  0.00  0.00    -0.035 C 
ATOM     77  C27 non d ame     -31.507  12.627  30.240  0.00  0.00     0.085 C 
ATOM     78  H38 non d ame     -33.118  13.093  29.291  0.00  0.00     0.036 H 
ATOM     79  H39 non d ame     -31.644  12.412  28.330  0.00  0.00     0.036 H 
ATOM     80  N5  non d ame     -30.915  13.819  30.953  0.00  0.00    -0.049 N 
ATOM     81  H40 non d ame     -32.345  12.245  30.822  0.00  0.00     0.075 H 
ATOM     82  H41 non d ame     -30.702  11.957  29.938  0.00  0.00     0.075 H 
ATOM     83  C28 non d ame     -30.847  15.003  29.857  0.00  0.00     0.193 C 
ATOM     84  H42 non d ame     -31.576  14.081  31.670  0.00  0.00     0.280 HD
ATOM     85  H43 non d ame     -29.971  13.560  31.205  0.00  0.00     0.280 HD
ATOM     86  H44 non d ame     -29.899  15.275  29.394  0.00  0.00     0.129 H 
ATOM     87  H37 non d ame     -30.714  14.744  28.090  0.00  0.00     0.046 H 
BRANCH  83  88
ATOM     88  O6  non d ame     -31.364  16.215  30.410  0.00  0.00    -0.369 OA
ATOM     89  H45 non d ame     -31.255  16.204  31.364  0.00  0.00     0.212 HD
ENDBRANCH  83  88
ENDBRANCH  72  75
ENDBRANCH  47  72
ENDBRANCH  45  47
ENDBRANCH   1  43
BRANCH   1  90
ATOM     90  C16 non d ame     -31.242  14.566  22.530  0.00  0.00    -0.035 C 
ATOM     91  H21 non d ame     -31.049  13.650  21.973  0.00  0.00     0.037 H 
ATOM     92  H22 non d ame     -32.213  15.055  22.456  0.00  0.00     0.037 H 
BRANCH  90  93
ATOM     93  C17 non d ame     -30.185  15.608  22.044  0.00  0.00    -0.059 C 
ATOM     94  H23 non d ame     -30.452  16.574  22.472  0.00  0.00     0.038 H 
BRANCH  93  95
ATOM     95  C18 non d ame     -28.742  15.254  22.528  0.00  0.00    -0.073 C 
ATOM     96  H24 non d ame     -28.795  14.475  23.288  0.00  0.00     0.028 H 
ATOM     97  H25 non d ame     -28.152  14.898  21.684  0.00  0.00     0.028 H 
ATOM     98  H26 non d ame     -28.273  16.143  22.950  0.00  0.00     0.028 H 
ENDBRANCH  93  95
BRANCH  93  99
ATOM     99  C19 non d ame     -30.226  15.759  20.521  0.00  0.00    -0.073 C 
ATOM    100  H27 non d ame     -30.616  16.744  20.264  0.00  0.00     0.028 H 
ATOM    101  H28 non d ame     -29.220  15.649  20.117  0.00  0.00     0.028 H 
ATOM    102  H29 non d ame     -30.872  14.990  20.097  0.00  0.00     0.028 H 
ENDBRANCH  93  99
ENDBRANCH  90  93
ENDBRANCH   1  90
TORSDOF 26
ENDMDL
MODEL 4
REMARK VINA RESULT:      -6.5      2.827      8.029
REMARK  26 active torsions:
REMARK  status: ('A' for Active; 'I' for Inactive)
REMARK    1  A    between atoms: C2_2  and  C3_3 
REMARK    2  A    between atoms: C4_6  and  C5_7 
REMARK       I    between atoms: C5_7  and  N2_9 
REMARK    3  A    between atoms: N2_9  and  C6_10 
REMARK    4  A    between atoms: C6_10  and  C7_11 
REMARK    5  A    between atoms: C6_10  and  C8_13 
REMARK       I    between atoms: C7_11  and  N3_14 
REMARK    6  A    between atoms: N3_14  and  C9_15 
REMARK    7  A    between atoms: C9_15  and  C10_16 
REMARK    8  A    between atoms: C9_15  and  C11_18 
REMARK       I    between atoms: C10_16  and  N4_21 
REMARK    9  A    between atoms: C11_18  and  C12_19 
REMARK   10  A    between atoms: C11_18  and  C13_20 
REMARK   11  A    between atoms: N4_21  and  C14_22 
REMARK   12  A    between atoms: C14_22  and  C15_23 
REMARK   13  A    between atoms: C14_22  and  C16_25 
REMARK       I    between atoms: C15_23  and  N6_40 
REMARK   14  A    between atoms: C16_25  and  C17_26 
REMARK   15  A    between atoms: C17_26  and  C18_27 
REMARK   16  A    between atoms: C17_26  and  C19_28 
REMARK   17  A    between atoms: C20_29  and  C21_30 
REMARK   18  A    between atoms: C20_29  and  C24_33 
REMARK   19  A    between atoms: C20_29  and  N6_40 
REMARK   20  A    between atoms: C21_30  and  C22_31 
REMARK   21  A    between atoms: C22_31  and  C23_32 
REMARK   22  A    between atoms: C23_32  and  O8_43 
REMARK   23  A    between atoms: C24_33  and  C25_34 
REMARK   24  A    between atoms: C28_38  and  O6_39 
REMARK   25  A    between atoms: C29_42  and  O8_43 
REMARK   26  A    between atoms: C29_42  and  C35_49 
ROOT
ATOM      1  C14 non d ame     -33.076   9.264  27.460  0.00  0.00     0.089 C 
ATOM      2  H20 non d ame     -32.070   8.847  27.420  0.00  0.00     0.087 H 
ENDROOT
BRANCH   1   3
ATOM      3  N4  non d ame     -32.953  10.674  27.799  0.00  0.00    -0.346 N 
ATOM      4  C10 non d ame     -31.813  11.493  27.248  0.00  0.00     0.241 C 
ATOM      5  O4  non d ame     -31.005  10.995  26.536  0.00  0.00    -0.271 OA
ATOM      6  H19 non d ame     -33.649  11.079  28.409  0.00  0.00     0.163 HD
BRANCH   4   7
ATOM      7  C9  non d ame     -31.703  12.952  27.605  0.00  0.00     0.092 C 
ATOM      8  H11 non d ame     -30.660  13.260  27.541  0.00  0.00     0.088 H 
BRANCH   7   9
ATOM      9  N3  non d ame     -32.452  13.752  26.630  0.00  0.00    -0.346 N 
ATOM     10  C7  non d ame     -31.768  14.340  25.504  0.00  0.00     0.240 C 
ATOM     11  O3  non d ame     -30.616  14.182  25.369  0.00  0.00    -0.271 OA
ATOM     12  H10 non d ame     -33.445  13.898  26.735  0.00  0.00     0.163 HD
BRANCH  10  13
ATOM     13  C6  non d ame     -32.569  15.192  24.472  0.00  0.00     0.086 C 
ATOM     14  H6  non d ame     -33.522  14.738  24.199  0.00  0.00     0.086 H 
BRANCH  13  15
ATOM     15  N2  non d ame     -32.878  16.483  25.065  0.00  0.00    -0.343 N 
ATOM     16  C5  non d ame     -34.250  16.773  25.487  0.00  0.00     0.273 C 
ATOM     17  O2  non d ame     -35.098  15.962  25.343  0.00  0.00    -0.266 OA
ATOM     18  H5  non d ame     -32.148  17.171  25.181  0.00  0.00     0.163 HD
BRANCH  16  19
ATOM     19  C4  non d ame     -34.591  18.132  26.117  0.00  0.00     0.154 A 
ATOM     20  C1  non d ame     -35.843  18.823  26.058  0.00  0.00    -0.017 A 
ATOM     21  C2  non d ame     -35.635  20.014  26.788  0.00  0.00     0.077 A 
ATOM     22  H1  non d ame     -36.761  18.507  25.563  0.00  0.00     0.091 H 
ATOM     23  O1  non d ame     -34.406  19.999  27.213  0.00  0.00    -0.218 OA
ATOM     24  N1  non d ame     -33.776  18.912  26.833  0.00  0.00    -0.123 NA
BRANCH  21  25
ATOM     25  C3  non d ame     -36.662  21.112  27.033  0.00  0.00    -0.029 C 
ATOM     26  H2  non d ame     -37.287  21.229  26.148  0.00  0.00     0.036 H 
ATOM     27  H3  non d ame     -37.286  20.842  27.885  0.00  0.00     0.036 H 
ATOM     28  H4  non d ame     -36.148  22.050  27.242  0.00  0.00     0.036 H 
ENDBRANCH  21  25
ENDBRANCH  16  19
ENDBRANCH  13  15
BRANCH  13  29
ATOM     29  C8  non d ame     -31.745  15.381  23.224  0.00  0.00    -0.049 C 
ATOM     30  H7  non d ame     -31.726  16.438  22.957  0.00  0.00     0.030 H 
ATOM     31  H8  non d ame     -30.728  15.034  23.405  0.00  0.00     0.030 H 
ATOM     32  H9  non d ame     -32.184  14.808  22.407  0.00  0.00     0.030 H 
ENDBRANCH  13  29
ENDBRANCH  10  13
ENDBRANCH   7   9
BRANCH   7  33
ATOM     33  C11 non d ame     -32.296  13.184  29.026  0.00  0.00    -0.033 C 
ATOM     34  H12 non d ame     -33.161  12.530  29.132  0.00  0.00     0.042 H 
BRANCH  33  35
ATOM     35  C12 non d ame     -31.273  12.795  30.139  0.00  0.00    -0.071 C 
ATOM     36  H13 non d ame     -31.796  12.678  31.088  0.00  0.00     0.028 H 
ATOM     37  H14 non d ame     -30.787  11.857  29.873  0.00  0.00     0.028 H 
ATOM     38  H15 non d ame     -30.523  13.580  30.233  0.00  0.00     0.028 H 
ENDBRANCH  33  35
BRANCH  33  39
ATOM     39  C13 non d ame     -32.783  14.660  29.195  0.00  0.00    -0.071 C 
ATOM     40  H16 non d ame     -32.062  15.213  29.796  0.00  0.00     0.028 H 
ATOM     41  H17 non d ame     -32.873  15.127  28.214  0.00  0.00     0.028 H 
ATOM     42  H18 non d ame     -33.753  14.667  29.691  0.00  0.00     0.028 H 
ENDBRANCH  33  39
ENDBRANCH   7  33
ENDBRANCH   4   7
ENDBRANCH   1   3
BRANCH   1  43
ATOM     43  C15 non d ame     -33.815   9.146  26.096  0.00  0.00     0.240 C 
ATOM     44  O5  non d ame     -34.858   9.693  25.940  0.00  0.00    -0.271 OA
ATOM     45  N6  non d ame     -33.218   8.356  24.982  0.00  0.00    -0.355 N 
ATOM     46  H46 non d ame     -32.330   7.891  25.101  0.00  0.00     0.162 HD
BRANCH  45  47
ATOM     47  C20 non d ame     -33.932   8.255  23.691  0.00  0.00     0.013 C 
ATOM     48  H30 non d ame     -34.808   8.901  23.740  0.00  0.00     0.072 H 
BRANCH  47  49
ATOM     49  C21 non d ame     -34.359   6.822  23.468  0.00  0.00    -0.038 C 
ATOM     50  H31 non d ame     -35.370   6.749  23.871  0.00  0.00     0.036 H 
ATOM     51  H32 non d ame     -34.178   6.621  22.412  0.00  0.00     0.036 H 
BRANCH  49  52
ATOM     52  C22 non d ame     -33.500   5.810  24.258  0.00  0.00     0.018 C 
ATOM     53  H33 non d ame     -33.231   5.031  23.545  0.00  0.00     0.048 H 
ATOM     54  H34 non d ame     -32.721   6.399  24.742  0.00  0.00     0.048 H 
BRANCH  52  55
ATOM     55  C23 non d ame     -34.270   5.095  25.403  0.00  0.00     0.259 C 
ATOM     56  O7  non d ame     -34.837   4.070  25.201  0.00  0.00    -0.265 OA
BRANCH  55  57
ATOM     57  O8  non d ame     -34.300   5.686  26.697  0.00  0.00    -0.317 OA
BRANCH  57  58
ATOM     58  C29 non d ame     -34.166   4.748  27.768  0.00  0.00     0.052 C 
ATOM     59  H47 non d ame     -34.520   3.795  27.373  0.00  0.00     0.082 H 
ATOM     60  H48 non d ame     -33.138   4.844  28.118  0.00  0.00     0.082 H 
BRANCH  58  61
ATOM     61  C35 non d ame     -35.116   5.189  28.913  0.00  0.00    -0.034 A 
ATOM     62  C30 non d ame     -36.466   5.403  28.654  0.00  0.00    -0.075 A 
ATOM     63  C31 non d ame     -37.320   5.799  29.682  0.00  0.00    -0.082 A 
ATOM     64  H49 non d ame     -36.855   5.260  27.645  0.00  0.00     0.084 H 
ATOM     65  C32 non d ame     -36.819   5.984  30.973  0.00  0.00    -0.083 A 
ATOM     66  H50 non d ame     -38.378   5.964  29.476  0.00  0.00     0.083 H 
ATOM     67  C33 non d ame     -35.471   5.772  31.226  0.00  0.00    -0.082 A 
ATOM     68  H51 non d ame     -37.480   6.293  31.783  0.00  0.00     0.083 H 
ATOM     69  C34 non d ame     -34.614   5.374  30.202  0.00  0.00    -0.075 A 
ATOM     70  H52 non d ame     -35.083   5.919  32.234  0.00  0.00     0.083 H 
ATOM     71  H53 non d ame     -33.556   5.209  30.409  0.00  0.00     0.084 H 
ENDBRANCH  58  61
ENDBRANCH  57  58
ENDBRANCH  55  57
ENDBRANCH  52  55
ENDBRANCH  49  52
ENDBRANCH  47  49
BRANCH  47  72
ATOM     72  C24 non d ame     -33.011   8.695  22.555  0.00  0.00    -0.039 C 
ATOM     73  H35 non d ame     -33.154   7.959  21.763  0.00  0.00     0.036 H 
ATOM     74  H36 non d ame     -33.252   9.742  22.375  0.00  0.00     0.036 H 
BRANCH  72  75
ATOM     75  C25 non d ame     -31.469   8.632  22.984  0.00  0.00    -0.001 C 
ATOM     76  C26 non d ame     -30.851  10.153  23.075  0.00  0.00    -0.035 C 
ATOM     77  C27 non d ame     -29.709  10.205  22.348  0.00  0.00     0.085 C 
ATOM     78  H38 non d ame     -31.510  10.855  22.565  0.00  0.00     0.036 H 
ATOM     79  H39 non d ame     -30.515  10.361  24.091  0.00  0.00     0.036 H 
ATOM     80  N5  non d ame     -29.666   8.953  21.505  0.00  0.00    -0.049 N 
ATOM     81  H40 non d ame     -29.819  11.070  21.694  0.00  0.00     0.075 H 
ATOM     82  H41 non d ame     -28.899  10.171  23.075  0.00  0.00     0.075 H 
ATOM     83  C28 non d ame     -30.773   7.958  22.130  0.00  0.00     0.193 C 
ATOM     84  H42 non d ame     -29.962   9.222  20.578  0.00  0.00     0.280 HD
ATOM     85  H43 non d ame     -28.752   8.546  21.645  0.00  0.00     0.280 HD
ATOM     86  H44 non d ame     -30.471   7.111  22.746  0.00  0.00     0.129 H 
ATOM     87  H37 non d ame     -31.305   7.978  23.841  0.00  0.00     0.046 H 
BRANCH  83  88
ATOM     88  O6  non d ame     -31.583   7.406  21.091  0.00  0.00    -0.369 OA
ATOM     89  H45 non d ame     -31.905   8.113  20.527  0.00  0.00     0.212 HD
ENDBRANCH  83  88
ENDBRANCH  72  75
ENDBRANCH  47  72
ENDBRANCH  45  47
ENDBRANCH   1  43
BRANCH   1  90
ATOM     90  C16 non d ame     -33.883   8.563  28.541  0.00  0.00    -0.035 C 
ATOM     91  H21 non d ame     -34.620   7.964  28.008  0.00  0.00     0.037 H 
ATOM     92  H22 non d ame     -33.146   8.077  29.181  0.00  0.00     0.037 H 
BRANCH  90  93
ATOM     93  C17 non d ame     -34.687   9.540  29.456  0.00  0.00    -0.059 C 
ATOM     94  H23 non d ame     -34.422  10.557  29.168  0.00  0.00     0.038 H 
BRANCH  93  95
ATOM     95  C18 non d ame     -36.231   9.381  29.275  0.00  0.00    -0.073 C 
ATOM     96  H24 non d ame     -36.742  10.210  29.764  0.00  0.00     0.028 H 
ATOM     97  H25 non d ame     -36.474   9.380  28.213  0.00  0.00     0.028 H 
ATOM     98  H26 non d ame     -36.554   8.441  29.723  0.00  0.00     0.028 H 
ENDBRANCH  93  95
BRANCH  93  99
ATOM     99  C19 non d ame     -34.290   9.366  30.924  0.00  0.00    -0.073 C 
ATOM    100  H27 non d ame     -33.511  10.086  31.178  0.00  0.00     0.028 H 
ATOM    101  H28 non d ame     -35.160   9.534  31.559  0.00  0.00     0.028 H 
ATOM    102  H29 non d ame     -33.916   8.355  31.082  0.00  0.00     0.028 H 
ENDBRANCH  93  99
ENDBRANCH  90  93
ENDBRANCH   1  90
TORSDOF 26
ENDMDL
MODEL 5
REMARK VINA RESULT:      -6.5      2.181      5.683
REMARK  26 active torsions:
REMARK  status: ('A' for Active; 'I' for Inactive)
REMARK    1  A    between atoms: C2_2  and  C3_3 
REMARK    2  A    between atoms: C4_6  and  C5_7 
REMARK       I    between atoms: C5_7  and  N2_9 
REMARK    3  A    between atoms: N2_9  and  C6_10 
REMARK    4  A    between atoms: C6_10  and  C7_11 
REMARK    5  A    between atoms: C6_10  and  C8_13 
REMARK       I    between atoms: C7_11  and  N3_14 
REMARK    6  A    between atoms: N3_14  and  C9_15 
REMARK    7  A    between atoms: C9_15  and  C10_16 
REMARK    8  A    between atoms: C9_15  and  C11_18 
REMARK       I    between atoms: C10_16  and  N4_21 
REMARK    9  A    between atoms: C11_18  and  C12_19 
REMARK   10  A    between atoms: C11_18  and  C13_20 
REMARK   11  A    between atoms: N4_21  and  C14_22 
REMARK   12  A    between atoms: C14_22  and  C15_23 
REMARK   13  A    between atoms: C14_22  and  C16_25 
REMARK       I    between atoms: C15_23  and  N6_40 
REMARK   14  A    between atoms: C16_25  and  C17_26 
REMARK   15  A    between atoms: C17_26  and  C18_27 
REMARK   16  A    between atoms: C17_26  and  C19_28 
REMARK   17  A    between atoms: C20_29  and  C21_30 
REMARK   18  A    between atoms: C20_29  and  C24_33 
REMARK   19  A    between atoms: C20_29  and  N6_40 
REMARK   20  A    between atoms: C21_30  and  C22_31 
REMARK   21  A    between atoms: C22_31  and  C23_32 
REMARK   22  A    between atoms: C23_32  and  O8_43 
REMARK   23  A    between atoms: C24_33  and  C25_34 
REMARK   24  A    between atoms: C28_38  and  O6_39 
REMARK   25  A    between atoms: C29_42  and  O8_43 
REMARK   26  A    between atoms: C29_42  and  C35_49 
ROOT
ATOM      1  C14 non d ame     -31.164  13.880  24.582  0.00  0.00     0.089 C 
ATOM      2  H20 non d ame     -30.159  13.808  25.001  0.00  0.00     0.087 H 
ENDROOT
BRANCH   1   3
ATOM      3  N4  non d ame     -31.597  12.531  24.250  0.00  0.00    -0.346 N 
ATOM      4  C10 non d ame     -31.336  11.391  25.203  0.00  0.00     0.241 C 
ATOM      5  O4  non d ame     -30.773  11.583  26.229  0.00  0.00    -0.271 OA
ATOM      6  H19 non d ame     -32.073  12.387  23.371  0.00  0.00     0.163 HD
BRANCH   4   7
ATOM      7  C9  non d ame     -31.797  10.002  24.846  0.00  0.00     0.092 C 
ATOM      8  H11 non d ame     -31.122   9.274  25.295  0.00  0.00     0.088 H 
BRANCH   7   9
ATOM      9  N3  non d ame     -33.128   9.767  25.413  0.00  0.00    -0.346 N 
ATOM     10  C7  non d ame     -33.267   9.012  26.634  0.00  0.00     0.240 C 
ATOM     11  O3  non d ame     -32.319   8.585  27.172  0.00  0.00    -0.271 OA
ATOM     12  H10 non d ame     -33.955  10.128  24.960  0.00  0.00     0.163 HD
BRANCH  10  13
ATOM     13  C6  non d ame     -34.687   8.763  27.232  0.00  0.00     0.086 C 
ATOM     14  H6  non d ame     -34.691   8.762  28.322  0.00  0.00     0.086 H 
BRANCH  13  15
ATOM     15  N2  non d ame     -35.570   9.838  26.813  0.00  0.00    -0.343 N 
ATOM     16  C5  non d ame     -36.393  10.526  27.811  0.00  0.00     0.273 C 
ATOM     17  O2  non d ame     -36.339  10.204  28.947  0.00  0.00    -0.266 OA
ATOM     18  H5  non d ame     -35.612  10.104  25.840  0.00  0.00     0.163 HD
BRANCH  16  19
ATOM     19  C4  non d ame     -37.330  11.666  27.383  0.00  0.00     0.154 A 
ATOM     20  C1  non d ame     -37.100  12.634  26.355  0.00  0.00    -0.017 A 
ATOM     21  C2  non d ame     -38.253  13.450  26.360  0.00  0.00     0.077 A 
ATOM     22  H1  non d ame     -36.229  12.731  25.706  0.00  0.00     0.091 H 
ATOM     23  O1  non d ame     -39.047  12.994  27.284  0.00  0.00    -0.218 OA
ATOM     24  N1  non d ame     -38.530  11.953  27.895  0.00  0.00    -0.123 NA
BRANCH  21  25
ATOM     25  C3  non d ame     -38.518  14.642  25.450  0.00  0.00    -0.029 C 
ATOM     26  H2  non d ame     -39.004  14.301  24.536  0.00  0.00     0.036 H 
ATOM     27  H3  non d ame     -39.166  15.353  25.962  0.00  0.00     0.036 H 
ATOM     28  H4  non d ame     -37.574  15.126  25.201  0.00  0.00     0.036 H 
ENDBRANCH  21  25
ENDBRANCH  16  19
ENDBRANCH  13  15
BRANCH  13  29
ATOM     29  C8  non d ame     -35.216   7.439  26.742  0.00  0.00    -0.049 C 
ATOM     30  H7  non d ame     -35.507   7.529  25.695  0.00  0.00     0.030 H 
ATOM     31  H8  non d ame     -34.441   6.679  26.839  0.00  0.00     0.030 H 
ATOM     32  H9  non d ame     -36.084   7.151  27.337  0.00  0.00     0.030 H 
ENDBRANCH  13  29
ENDBRANCH  10  13
ENDBRANCH   7   9
BRANCH   7  33
ATOM     33  C11 non d ame     -31.865   9.860  23.297  0.00  0.00    -0.033 C 
ATOM     34  H12 non d ame     -32.093  10.844  22.886  0.00  0.00     0.042 H 
BRANCH  33  35
ATOM     35  C12 non d ame     -30.491   9.414  22.706  0.00  0.00    -0.071 C 
ATOM     36  H13 non d ame     -30.425   9.725  21.664  0.00  0.00     0.028 H 
ATOM     37  H14 non d ame     -29.684   9.875  23.275  0.00  0.00     0.028 H 
ATOM     38  H15 non d ame     -30.405   8.329  22.767  0.00  0.00     0.028 H 
ENDBRANCH  33  35
BRANCH  33  39
ATOM     39  C13 non d ame     -33.007   8.882  22.874  0.00  0.00    -0.071 C 
ATOM     40  H16 non d ame     -33.866   9.021  23.531  0.00  0.00     0.028 H 
ATOM     41  H17 non d ame     -33.300   9.089  21.844  0.00  0.00     0.028 H 
ATOM     42  H18 non d ame     -32.653   7.854  22.950  0.00  0.00     0.028 H 
ENDBRANCH  33  39
ENDBRANCH   7  33
ENDBRANCH   4   7
ENDBRANCH   1   3
BRANCH   1  43
ATOM     43  C15 non d ame     -32.178  14.492  25.590  0.00  0.00     0.240 C 
ATOM     44  O5  non d ame     -33.204  14.944  25.195  0.00  0.00    -0.271 OA
ATOM     45  N6  non d ame     -31.874  14.507  27.049  0.00  0.00    -0.355 N 
ATOM     46  H46 non d ame     -31.008  14.121  27.397  0.00  0.00     0.162 HD
BRANCH  45  47
ATOM     47  C20 non d ame     -32.849  15.091  27.995  0.00  0.00     0.013 C 
ATOM     48  H30 non d ame     -33.839  15.013  27.547  0.00  0.00     0.072 H 
BRANCH  47  49
ATOM     49  C21 non d ame     -32.504  16.544  28.235  0.00  0.00    -0.038 C 
ATOM     50  H31 non d ame     -32.488  16.668  29.318  0.00  0.00     0.036 H 
ATOM     51  H32 non d ame     -31.603  16.732  27.651  0.00  0.00     0.036 H 
BRANCH  49  52
ATOM     52  C22 non d ame     -33.582  17.512  27.700  0.00  0.00     0.018 C 
ATOM     53  H33 non d ame     -34.132  16.952  26.944  0.00  0.00     0.048 H 
ATOM     54  H34 non d ame     -34.099  17.893  28.581  0.00  0.00     0.048 H 
BRANCH  52  55
ATOM     55  C23 non d ame     -33.000  18.756  26.973  0.00  0.00     0.259 C 
ATOM     56  O7  non d ame     -31.829  18.866  26.809  0.00  0.00    -0.265 OA
BRANCH  55  57
ATOM     57  O8  non d ame     -33.885  19.772  26.515  0.00  0.00    -0.317 OA
BRANCH  57  58
ATOM     58  C29 non d ame     -34.975  19.283  25.729  0.00  0.00     0.052 C 
ATOM     59  H47 non d ame     -34.796  19.647  24.717  0.00  0.00     0.082 H 
ATOM     60  H48 non d ame     -35.022  18.212  25.923  0.00  0.00     0.082 H 
BRANCH  58  61
ATOM     61  C35 non d ame     -36.279  19.936  26.262  0.00  0.00    -0.034 A 
ATOM     62  C30 non d ame     -37.418  19.968  25.464  0.00  0.00    -0.075 A 
ATOM     63  C31 non d ame     -38.589  20.554  25.941  0.00  0.00    -0.082 A 
ATOM     64  H49 non d ame     -37.393  19.535  24.463  0.00  0.00     0.084 H 
ATOM     65  C32 non d ame     -38.618  21.112  27.223  0.00  0.00    -0.083 A 
ATOM     66  H50 non d ame     -39.481  20.577  25.314  0.00  0.00     0.083 H 
ATOM     67  C33 non d ame     -37.478  21.080  28.014  0.00  0.00    -0.082 A 
ATOM     68  H51 non d ame     -39.529  21.571  27.604  0.00  0.00     0.083 H 
ATOM     69  C34 non d ame     -36.306  20.493  27.541  0.00  0.00    -0.075 A 
ATOM     70  H52 non d ame     -37.503  21.518  29.013  0.00  0.00     0.083 H 
ATOM     71  H53 non d ame     -35.415  20.471  28.170  0.00  0.00     0.084 H 
ENDBRANCH  58  61
ENDBRANCH  57  58
ENDBRANCH  55  57
ENDBRANCH  52  55
ENDBRANCH  49  52
ENDBRANCH  47  49
BRANCH  47  72
ATOM     72  C24 non d ame     -32.804  14.331  29.319  0.00  0.00    -0.039 C 
ATOM     73  H35 non d ame     -32.204  14.949  29.988  0.00  0.00     0.036 H 
ATOM     74  H36 non d ame     -33.844  14.114  29.565  0.00  0.00     0.036 H 
BRANCH  72  75
ATOM     75  C25 non d ame     -32.050  12.925  29.170  0.00  0.00    -0.001 C 
ATOM     76  C26 non d ame     -33.126  11.693  29.341  0.00  0.00    -0.035 C 
ATOM     77  C27 non d ame     -32.649  10.823  30.263  0.00  0.00     0.085 C 
ATOM     78  H38 non d ame     -34.047  12.061  29.791  0.00  0.00     0.036 H 
ATOM     79  H39 non d ame     -33.163  11.100  28.427  0.00  0.00     0.036 H 
ATOM     80  N5  non d ame     -31.509  11.512  30.973  0.00  0.00    -0.049 N 
ATOM     81  H40 non d ame     -33.466  10.668  30.968  0.00  0.00     0.075 H 
ATOM     82  H41 non d ame     -32.255   9.982  29.693  0.00  0.00     0.075 H 
ATOM     83  C28 non d ame     -31.129  12.792  30.065  0.00  0.00     0.193 C 
ATOM     84  H42 non d ame     -31.878  11.841  31.854  0.00  0.00     0.280 HD
ATOM     85  H43 non d ame     -30.733  10.866  30.961  0.00  0.00     0.280 HD
ATOM     86  H44 non d ame     -30.240  12.778  29.434  0.00  0.00     0.129 H 
ATOM     87  H37 non d ame     -31.398  12.897  28.297  0.00  0.00     0.046 H 
BRANCH  83  88
ATOM     88  O6  non d ame     -30.999  13.956  30.883  0.00  0.00    -0.369 OA
ATOM     89  H45 non d ame     -30.709  14.695  30.344  0.00  0.00     0.212 HD
ENDBRANCH  83  88
ENDBRANCH  72  75
ENDBRANCH  47  72
ENDBRANCH  45  47
ENDBRANCH   1  43
BRANCH   1  90
ATOM     90  C16 non d ame     -31.134  14.717  23.314  0.00  0.00    -0.035 C 
ATOM     91  H21 non d ame     -31.842  14.240  22.636  0.00  0.00     0.037 H 
ATOM     92  H22 non d ame     -31.301  15.744  23.642  0.00  0.00     0.037 H 
BRANCH  90  93
ATOM     93  C17 non d ame     -29.752  14.705  22.587  0.00  0.00    -0.059 C 
ATOM     94  H23 non d ame     -28.987  14.938  23.327  0.00  0.00     0.038 H 
BRANCH  93  95
ATOM     95  C18 non d ame     -29.417  13.305  21.980  0.00  0.00    -0.073 C 
ATOM     96  H24 non d ame     -28.936  13.434  21.011  0.00  0.00     0.028 H 
ATOM     97  H25 non d ame     -28.745  12.770  22.650  0.00  0.00     0.028 H 
ATOM     98  H26 non d ame     -30.337  12.733  21.856  0.00  0.00     0.028 H 
ENDBRANCH  93  95
BRANCH  93  99
ATOM     99  C19 non d ame     -29.691  15.793  21.511  0.00  0.00    -0.073 C 
ATOM    100  H27 non d ame     -28.842  16.449  21.705  0.00  0.00     0.028 H 
ATOM    101  H28 non d ame     -29.575  15.329  20.531  0.00  0.00     0.028 H 
ATOM    102  H29 non d ame     -30.612  16.375  21.530  0.00  0.00     0.028 H 
ENDBRANCH  93  99
ENDBRANCH  90  93
ENDBRANCH   1  90
TORSDOF 26
ENDMDL
MODEL 6
REMARK VINA RESULT:      -6.4      2.098      7.996
REMARK  26 active torsions:
REMARK  status: ('A' for Active; 'I' for Inactive)
REMARK    1  A    between atoms: C2_2  and  C3_3 
REMARK    2  A    between atoms: C4_6  and  C5_7 
REMARK       I    between atoms: C5_7  and  N2_9 
REMARK    3  A    between atoms: N2_9  and  C6_10 
REMARK    4  A    between atoms: C6_10  and  C7_11 
REMARK    5  A    between atoms: C6_10  and  C8_13 
REMARK       I    between atoms: C7_11  and  N3_14 
REMARK    6  A    between atoms: N3_14  and  C9_15 
REMARK    7  A    between atoms: C9_15  and  C10_16 
REMARK    8  A    between atoms: C9_15  and  C11_18 
REMARK       I    between atoms: C10_16  and  N4_21 
REMARK    9  A    between atoms: C11_18  and  C12_19 
REMARK   10  A    between atoms: C11_18  and  C13_20 
REMARK   11  A    between atoms: N4_21  and  C14_22 
REMARK   12  A    between atoms: C14_22  and  C15_23 
REMARK   13  A    between atoms: C14_22  and  C16_25 
REMARK       I    between atoms: C15_23  and  N6_40 
REMARK   14  A    between atoms: C16_25  and  C17_26 
REMARK   15  A    between atoms: C17_26  and  C18_27 
REMARK   16  A    between atoms: C17_26  and  C19_28 
REMARK   17  A    between atoms: C20_29  and  C21_30 
REMARK   18  A    between atoms: C20_29  and  C24_33 
REMARK   19  A    between atoms: C20_29  and  N6_40 
REMARK   20  A    between atoms: C21_30  and  C22_31 
REMARK   21  A    between atoms: C22_31  and  C23_32 
REMARK   22  A    between atoms: C23_32  and  O8_43 
REMARK   23  A    between atoms: C24_33  and  C25_34 
REMARK   24  A    between atoms: C28_38  and  O6_39 
REMARK   25  A    between atoms: C29_42  and  O8_43 
REMARK   26  A    between atoms: C29_42  and  C35_49 
ROOT
ATOM      1  C14 non d ame     -36.349  13.531  26.016  0.00  0.00     0.089 C 
ATOM      2  H20 non d ame     -37.179  13.417  26.713  0.00  0.00     0.087 H 
ENDROOT
BRANCH   1   3
ATOM      3  N4  non d ame     -36.037  14.950  25.934  0.00  0.00    -0.346 N 
ATOM      4  C10 non d ame     -36.946  15.968  26.575  0.00  0.00     0.241 C 
ATOM      5  O4  non d ame     -37.925  15.621  27.150  0.00  0.00    -0.271 OA
ATOM      6  H19 non d ame     -35.201  15.225  25.438  0.00  0.00     0.163 HD
BRANCH   4   7
ATOM      7  C9  non d ame     -36.605  17.433  26.485  0.00  0.00     0.092 C 
ATOM      8  H11 non d ame     -36.834  17.913  27.437  0.00  0.00     0.088 H 
BRANCH   7   9
ATOM      9  N3  non d ame     -35.165  17.586  26.257  0.00  0.00    -0.346 N 
ATOM     10  C7  non d ame     -34.282  17.836  27.370  0.00  0.00     0.240 C 
ATOM     11  O3  non d ame     -34.714  17.917  28.455  0.00  0.00    -0.271 OA
ATOM     12  H10 non d ame     -34.778  17.520  25.327  0.00  0.00     0.163 HD
BRANCH  10  13
ATOM     13  C6  non d ame     -32.751  18.001  27.121  0.00  0.00     0.086 C 
ATOM     14  H6  non d ame     -32.144  17.478  27.860  0.00  0.00     0.086 H 
BRANCH  13  15
ATOM     15  N2  non d ame     -32.419  17.427  25.828  0.00  0.00    -0.343 N 
ATOM     16  C5  non d ame     -31.829  16.088  25.764  0.00  0.00     0.273 C 
ATOM     17  O2  non d ame     -31.622  15.483  26.758  0.00  0.00    -0.266 OA
ATOM     18  H5  non d ame     -32.596  17.952  24.984  0.00  0.00     0.163 HD
BRANCH  16  19
ATOM     19  C4  non d ame     -31.474  15.467  24.404  0.00  0.00     0.154 A 
ATOM     20  C1  non d ame     -31.377  16.140  23.145  0.00  0.00    -0.017 A 
ATOM     21  C2  non d ame     -31.027  15.132  22.219  0.00  0.00     0.077 A 
ATOM     22  H1  non d ame     -31.537  17.198  22.935  0.00  0.00     0.091 H 
ATOM     23  O1  non d ame     -30.934  14.015  22.880  0.00  0.00    -0.218 OA
ATOM     24  N1  non d ame     -31.191  14.185  24.156  0.00  0.00    -0.123 NA
BRANCH  21  25
ATOM     25  C3  non d ame     -30.798  15.320  20.725  0.00  0.00    -0.029 C 
ATOM     26  H2  non d ame     -31.758  15.324  20.209  0.00  0.00     0.036 H 
ATOM     27  H3  non d ame     -30.289  16.267  20.552  0.00  0.00     0.036 H 
ATOM     28  H4  non d ame     -30.185  14.503  20.346  0.00  0.00     0.036 H 
ENDBRANCH  21  25
ENDBRANCH  16  19
ENDBRANCH  13  15
BRANCH  13  29
ATOM     29  C8  non d ame     -32.390  19.465  27.144  0.00  0.00    -0.049 C 
ATOM     30  H7  non d ame     -32.797  19.953  26.258  0.00  0.00     0.030 H 
ATOM     31  H8  non d ame     -32.808  19.928  28.037  0.00  0.00     0.030 H 
ATOM     32  H9  non d ame     -31.306  19.573  27.152  0.00  0.00     0.030 H 
ENDBRANCH  13  29
ENDBRANCH  10  13
ENDBRANCH   7   9
BRANCH   7  33
ATOM     33  C11 non d ame     -37.386  18.075  25.302  0.00  0.00    -0.033 C 
ATOM     34  H12 non d ame     -37.501  17.313  24.531  0.00  0.00     0.042 H 
BRANCH  33  35
ATOM     35  C12 non d ame     -38.817  18.519  25.739  0.00  0.00    -0.071 C 
ATOM     36  H13 non d ame     -38.849  19.605  25.828  0.00  0.00     0.028 H 
ATOM     37  H14 non d ame     -39.542  18.193  24.994  0.00  0.00     0.028 H 
ATOM     38  H15 non d ame     -39.058  18.069  26.703  0.00  0.00     0.028 H 
ENDBRANCH  33  35
BRANCH  33  39
ATOM     39  C13 non d ame     -36.586  19.269  24.687  0.00  0.00    -0.071 C 
ATOM     40  H16 non d ame     -37.055  19.576  23.752  0.00  0.00     0.028 H 
ATOM     41  H17 non d ame     -36.587  20.105  25.386  0.00  0.00     0.028 H 
ATOM     42  H18 non d ame     -35.560  18.957  24.494  0.00  0.00     0.028 H 
ENDBRANCH  33  39
ENDBRANCH   7  33
ENDBRANCH   4   7
ENDBRANCH   1   3
BRANCH   1  43
ATOM     43  C15 non d ame     -35.077  12.771  26.487  0.00  0.00     0.240 C 
ATOM     44  O5  non d ame     -34.045  12.937  25.921  0.00  0.00    -0.271 OA
ATOM     45  N6  non d ame     -35.143  11.841  27.651  0.00  0.00    -0.355 N 
ATOM     46  H46 non d ame     -36.012  11.696  28.143  0.00  0.00     0.162 HD
BRANCH  45  47
ATOM     47  C20 non d ame     -33.924  11.127  28.088  0.00  0.00     0.013 C 
ATOM     48  H30 non d ame     -33.070  11.579  27.583  0.00  0.00     0.072 H 
BRANCH  47  49
ATOM     49  C21 non d ame     -34.036   9.668  27.707  0.00  0.00    -0.038 C 
ATOM     50  H31 non d ame     -34.097   9.122  28.649  0.00  0.00     0.036 H 
ATOM     51  H32 non d ame     -34.856   9.613  26.991  0.00  0.00     0.036 H 
BRANCH  49  52
ATOM     52  C22 non d ame     -32.782   9.141  26.977  0.00  0.00     0.018 C 
ATOM     53  H33 non d ame     -32.412   9.977  26.384  0.00  0.00     0.048 H 
ATOM     54  H34 non d ame     -32.152   8.702  27.751  0.00  0.00     0.048 H 
BRANCH  52  55
ATOM     55  C23 non d ame     -33.079   7.998  25.967  0.00  0.00     0.259 C 
ATOM     56  O7  non d ame     -32.714   6.889  26.186  0.00  0.00    -0.265 OA
BRANCH  55  57
ATOM     57  O8  non d ame     -33.783   8.295  24.767  0.00  0.00    -0.317 OA
BRANCH  57  58
ATOM     58  C29 non d ame     -33.518   9.600  24.243  0.00  0.00     0.052 C 
ATOM     59  H47 non d ame     -34.316   9.798  23.528  0.00  0.00     0.082 H 
ATOM     60  H48 non d ame     -33.392  10.246  25.112  0.00  0.00     0.082 H 
BRANCH  58  61
ATOM     61  C35 non d ame     -32.171   9.543  23.475  0.00  0.00    -0.034 A 
ATOM     62  C30 non d ame     -31.930   8.517  22.566  0.00  0.00    -0.075 A 
ATOM     63  C31 non d ame     -30.720   8.466  21.876  0.00  0.00    -0.082 A 
ATOM     64  H49 non d ame     -32.689   7.753  22.396  0.00  0.00     0.084 H 
ATOM     65  C32 non d ame     -29.748   9.445  22.098  0.00  0.00    -0.083 A 
ATOM     66  H50 non d ame     -30.535   7.661  21.163  0.00  0.00     0.083 H 
ATOM     67  C33 non d ame     -29.991  10.465  23.008  0.00  0.00    -0.082 A 
ATOM     68  H51 non d ame     -28.799   9.413  21.562  0.00  0.00     0.083 H 
ATOM     69  C34 non d ame     -31.200  10.521  23.699  0.00  0.00    -0.075 A 
ATOM     70  H52 non d ame     -29.230  11.225  23.181  0.00  0.00     0.083 H 
ATOM     71  H53 non d ame     -31.385  11.326  24.411  0.00  0.00     0.084 H 
ENDBRANCH  58  61
ENDBRANCH  57  58
ENDBRANCH  55  57
ENDBRANCH  52  55
ENDBRANCH  49  52
ENDBRANCH  47  49
BRANCH  47  72
ATOM     72  C24 non d ame     -33.769  11.248  29.603  0.00  0.00    -0.039 C 
ATOM     73  H35 non d ame     -34.755  11.532  29.973  0.00  0.00     0.036 H 
ATOM     74  H36 non d ame     -33.315  10.311  29.924  0.00  0.00     0.036 H 
BRANCH  72  75
ATOM     75  C25 non d ame     -32.758  12.424  30.003  0.00  0.00    -0.001 C 
ATOM     76  C26 non d ame     -31.818  12.818  28.712  0.00  0.00    -0.035 C 
ATOM     77  C27 non d ame     -30.519  12.799  29.096  0.00  0.00     0.085 C 
ATOM     78  H38 non d ame     -31.872  12.034  27.957  0.00  0.00     0.036 H 
ATOM     79  H39 non d ame     -31.985  13.858  28.431  0.00  0.00     0.036 H 
ATOM     80  N5  non d ame     -30.466  12.112  30.439  0.00  0.00    -0.049 N 
ATOM     81  H40 non d ame     -30.007  12.181  28.359  0.00  0.00     0.075 H 
ATOM     82  H41 non d ame     -30.237  13.844  29.220  0.00  0.00     0.075 H 
ATOM     83  C28 non d ame     -31.987  12.068  30.976  0.00  0.00     0.193 C 
ATOM     84  H42 non d ame     -30.158  11.166  30.265  0.00  0.00     0.280 HD
ATOM     85  H43 non d ame     -29.928  12.714  31.046  0.00  0.00     0.280 HD
ATOM     86  H44 non d ame     -32.320  12.755  31.754  0.00  0.00     0.129 H 
ATOM     87  H37 non d ame     -33.260  13.243  30.519  0.00  0.00     0.046 H 
BRANCH  83  88
ATOM     88  O6  non d ame     -32.301  10.761  31.461  0.00  0.00    -0.369 OA
ATOM     89  H45 non d ame     -31.493  10.250  31.549  0.00  0.00     0.212 HD
ENDBRANCH  83  88
ENDBRANCH  72  75
ENDBRANCH  47  72
ENDBRANCH  45  47
ENDBRANCH   1  43
BRANCH   1  90
ATOM     90  C16 non d ame     -36.761  13.034  24.639  0.00  0.00    -0.035 C 
ATOM     91  H21 non d ame     -36.682  13.900  23.983  0.00  0.00     0.037 H 
ATOM     92  H22 non d ame     -36.146  12.153  24.455  0.00  0.00     0.037 H 
BRANCH  90  93
ATOM     93  C17 non d ame     -38.247  12.558  24.564  0.00  0.00    -0.059 C 
ATOM     94  H23 non d ame     -38.480  12.051  25.500  0.00  0.00     0.038 H 
BRANCH  93  95
ATOM     95  C18 non d ame     -39.241  13.754  24.409  0.00  0.00    -0.073 C 
ATOM     96  H24 non d ame     -39.375  13.980  23.352  0.00  0.00     0.028 H 
ATOM     97  H25 non d ame     -40.202  13.486  24.847  0.00  0.00     0.028 H 
ATOM     98  H26 non d ame     -38.839  14.628  24.920  0.00  0.00     0.028 H 
ENDBRANCH  93  95
BRANCH  93  99
ATOM     99  C19 non d ame     -38.439  11.541  23.436  0.00  0.00    -0.073 C 
ATOM    100  H27 non d ame     -38.010  10.583  23.734  0.00  0.00     0.028 H 
ATOM    101  H28 non d ame     -39.503  11.415  23.237  0.00  0.00     0.028 H 
ATOM    102  H29 non d ame     -37.941  11.898  22.535  0.00  0.00     0.028 H 
ENDBRANCH  93  99
ENDBRANCH  90  93
ENDBRANCH   1  90
TORSDOF 26
ENDMDL
MODEL 7
REMARK VINA RESULT:      -6.4      2.846      8.296
REMARK  26 active torsions:
REMARK  status: ('A' for Active; 'I' for Inactive)
REMARK    1  A    between atoms: C2_2  and  C3_3 
REMARK    2  A    between atoms: C4_6  and  C5_7 
REMARK       I    between atoms: C5_7  and  N2_9 
REMARK    3  A    between atoms: N2_9  and  C6_10 
REMARK    4  A    between atoms: C6_10  and  C7_11 
REMARK    5  A    between atoms: C6_10  and  C8_13 
REMARK       I    between atoms: C7_11  and  N3_14 
REMARK    6  A    between atoms: N3_14  and  C9_15 
REMARK    7  A    between atoms: C9_15  and  C10_16 
REMARK    8  A    between atoms: C9_15  and  C11_18 
REMARK       I    between atoms: C10_16  and  N4_21 
REMARK    9  A    between atoms: C11_18  and  C12_19 
REMARK   10  A    between atoms: C11_18  and  C13_20 
REMARK   11  A    between atoms: N4_21  and  C14_22 
REMARK   12  A    between atoms: C14_22  and  C15_23 
REMARK   13  A    between atoms: C14_22  and  C16_25 
REMARK       I    between atoms: C15_23  and  N6_40 
REMARK   14  A    between atoms: C16_25  and  C17_26 
REMARK   15  A    between atoms: C17_26  and  C18_27 
REMARK   16  A    between atoms: C17_26  and  C19_28 
REMARK   17  A    between atoms: C20_29  and  C21_30 
REMARK   18  A    between atoms: C20_29  and  C24_33 
REMARK   19  A    between atoms: C20_29  and  N6_40 
REMARK   20  A    between atoms: C21_30  and  C22_31 
REMARK   21  A    between atoms: C22_31  and  C23_32 
REMARK   22  A    between atoms: C23_32  and  O8_43 
REMARK   23  A    between atoms: C24_33  and  C25_34 
REMARK   24  A    between atoms: C28_38  and  O6_39 
REMARK   25  A    between atoms: C29_42  and  O8_43 
REMARK   26  A    between atoms: C29_42  and  C35_49 
ROOT
ATOM      1  C14 non d ame     -35.637   9.974  27.820  0.00  0.00     0.089 C 
ATOM      2  H20 non d ame     -35.635   9.241  28.628  0.00  0.00     0.087 H 
ENDROOT
BRANCH   1   3
ATOM      3  N4  non d ame     -34.635  10.980  28.138  0.00  0.00    -0.346 N 
ATOM      4  C10 non d ame     -33.272  10.567  28.636  0.00  0.00     0.241 C 
ATOM      5  O4  non d ame     -33.007   9.418  28.776  0.00  0.00    -0.271 OA
ATOM      6  H19 non d ame     -34.881  11.952  28.015  0.00  0.00     0.163 HD
BRANCH   4   7
ATOM      7  C9  non d ame     -32.245  11.621  28.955  0.00  0.00     0.092 C 
ATOM      8  H11 non d ame     -31.257  11.255  28.676  0.00  0.00     0.088 H 
BRANCH   7   9
ATOM      9  N3  non d ame     -32.507  12.818  28.151  0.00  0.00    -0.346 N 
ATOM     10  C7  non d ame     -31.437  13.741  27.863  0.00  0.00     0.240 C 
ATOM     11  O3  non d ame     -30.359  13.536  28.272  0.00  0.00    -0.271 OA
ATOM     12  H10 non d ame     -33.432  13.009  27.792  0.00  0.00     0.163 HD
BRANCH  10  13
ATOM     13  C6  non d ame     -31.722  15.015  27.008  0.00  0.00     0.086 C 
ATOM     14  H6  non d ame     -31.259  15.911  27.420  0.00  0.00     0.086 H 
BRANCH  13  15
ATOM     15  N2  non d ame     -31.160  14.828  25.681  0.00  0.00    -0.343 N 
ATOM     16  C5  non d ame     -31.220  15.924  24.711  0.00  0.00     0.273 C 
ATOM     17  O2  non d ame     -31.726  16.951  25.008  0.00  0.00    -0.266 OA
ATOM     18  H5  non d ame     -30.732  13.947  25.435  0.00  0.00     0.163 HD
BRANCH  16  19
ATOM     19  C4  non d ame     -30.628  15.742  23.305  0.00  0.00     0.154 A 
ATOM     20  C1  non d ame     -31.288  15.958  22.054  0.00  0.00    -0.017 A 
ATOM     21  C2  non d ame     -30.318  15.653  21.074  0.00  0.00     0.077 A 
ATOM     22  H1  non d ame     -32.314  16.286  21.884  0.00  0.00     0.091 H 
ATOM     23  O1  non d ame     -29.232  15.305  21.699  0.00  0.00    -0.218 OA
ATOM     24  N1  non d ame     -29.388  15.349  23.002  0.00  0.00    -0.123 NA
BRANCH  21  25
ATOM     25  C3  non d ame     -30.510  15.721  19.564  0.00  0.00    -0.029 C 
ATOM     26  H2  non d ame     -30.020  14.867  19.097  0.00  0.00     0.036 H 
ATOM     27  H3  non d ame     -31.574  15.700  19.332  0.00  0.00     0.036 H 
ATOM     28  H4  non d ame     -30.073  16.644  19.184  0.00  0.00     0.036 H 
ENDBRANCH  21  25
ENDBRANCH  16  19
ENDBRANCH  13  15
BRANCH  13  29
ATOM     29  C8  non d ame     -33.210  15.236  26.912  0.00  0.00    -0.049 C 
ATOM     30  H7  non d ame     -33.444  16.263  27.195  0.00  0.00     0.030 H 
ATOM     31  H8  non d ame     -33.538  15.057  25.889  0.00  0.00     0.030 H 
ATOM     32  H9  non d ame     -33.724  14.548  27.584  0.00  0.00     0.030 H 
ENDBRANCH  13  29
ENDBRANCH  10  13
ENDBRANCH   7   9
BRANCH   7  33
ATOM     33  C11 non d ame     -32.329  11.987  30.466  0.00  0.00    -0.033 C 
ATOM     34  H12 non d ame     -32.624  13.034  30.535  0.00  0.00     0.042 H 
BRANCH  33  35
ATOM     35  C12 non d ame     -33.421  11.143  31.195  0.00  0.00    -0.071 C 
ATOM     36  H13 non d ame     -34.184  11.807  31.600  0.00  0.00     0.028 H 
ATOM     37  H14 non d ame     -33.878  10.452  30.488  0.00  0.00     0.028 H 
ATOM     38  H15 non d ame     -32.962  10.580  32.008  0.00  0.00     0.028 H 
ENDBRANCH  33  35
BRANCH  33  39
ATOM     39  C13 non d ame     -30.937  11.830  31.158  0.00  0.00    -0.071 C 
ATOM     40  H16 non d ame     -31.025  11.147  32.002  0.00  0.00     0.028 H 
ATOM     41  H17 non d ame     -30.218  11.432  30.441  0.00  0.00     0.028 H 
ATOM     42  H18 non d ame     -30.595  12.803  31.511  0.00  0.00     0.028 H 
ENDBRANCH  33  39
ENDBRANCH   7  33
ENDBRANCH   4   7
ENDBRANCH   1   3
BRANCH   1  43
ATOM     43  C15 non d ame     -35.280   9.335  26.447  0.00  0.00     0.240 C 
ATOM     44  O5  non d ame     -35.638   9.858  25.442  0.00  0.00    -0.271 OA
ATOM     45  N6  non d ame     -34.483   8.077  26.386  0.00  0.00    -0.355 N 
ATOM     46  H46 non d ame     -34.169   7.626  27.233  0.00  0.00     0.162 HD
BRANCH  45  47
ATOM     47  C20 non d ame     -34.151   7.483  25.073  0.00  0.00     0.013 C 
ATOM     48  H30 non d ame     -34.776   7.963  24.320  0.00  0.00     0.072 H 
BRANCH  47  49
ATOM     49  C21 non d ame     -34.434   5.999  25.109  0.00  0.00    -0.038 C 
ATOM     50  H31 non d ame     -35.407   5.896  25.590  0.00  0.00     0.036 H 
ATOM     51  H32 non d ame     -34.291   5.647  24.088  0.00  0.00     0.036 H 
BRANCH  49  52
ATOM     52  C22 non d ame     -33.430   5.218  25.985  0.00  0.00     0.018 C 
ATOM     53  H33 non d ame     -33.236   4.287  25.453  0.00  0.00     0.048 H 
ATOM     54  H34 non d ame     -32.614   5.912  26.187  0.00  0.00     0.048 H 
BRANCH  52  55
ATOM     55  C23 non d ame     -33.996   4.807  27.373  0.00  0.00     0.259 C 
ATOM     56  O7  non d ame     -34.066   3.661  27.680  0.00  0.00    -0.265 OA
BRANCH  55  57
ATOM     57  O8  non d ame     -34.444   5.817  28.269  0.00  0.00    -0.317 OA
BRANCH  57  58
ATOM     58  C29 non d ame     -34.658   5.355  29.606  0.00  0.00     0.052 C 
ATOM     59  H47 non d ame     -35.102   4.364  29.509  0.00  0.00     0.082 H 
ATOM     60  H48 non d ame     -33.702   5.476  30.116  0.00  0.00     0.082 H 
BRANCH  58  61
ATOM     61  C35 non d ame     -35.695   6.294  30.277  0.00  0.00    -0.034 A 
ATOM     62  C30 non d ame     -35.313   7.562  30.705  0.00  0.00    -0.075 A 
ATOM     63  C31 non d ame     -36.244   8.405  31.308  0.00  0.00    -0.082 A 
ATOM     64  H49 non d ame     -34.283   7.894  30.569  0.00  0.00     0.084 H 
ATOM     65  C32 non d ame     -37.562   7.977  31.485  0.00  0.00    -0.083 A 
ATOM     66  H50 non d ame     -35.942   9.399  31.641  0.00  0.00     0.083 H 
ATOM     67  C33 non d ame     -37.938   6.710  31.060  0.00  0.00    -0.082 A 
ATOM     68  H51 non d ame     -38.297   8.630  31.955  0.00  0.00     0.083 H 
ATOM     69  C34 non d ame     -37.011   5.864  30.454  0.00  0.00    -0.075 A 
ATOM     70  H52 non d ame     -38.967   6.377  31.201  0.00  0.00     0.083 H 
ATOM     71  H53 non d ame     -37.314   4.871  30.122  0.00  0.00     0.084 H 
ENDBRANCH  58  61
ENDBRANCH  57  58
ENDBRANCH  55  57
ENDBRANCH  52  55
ENDBRANCH  49  52
ENDBRANCH  47  49
BRANCH  47  72
ATOM     72  C24 non d ame     -32.674   7.713  24.761  0.00  0.00    -0.039 C 
ATOM     73  H35 non d ame     -32.187   7.824  25.731  0.00  0.00     0.036 H 
ATOM     74  H36 non d ame     -32.387   6.897  24.098  0.00  0.00     0.036 H 
BRANCH  72  75
ATOM     75  C25 non d ame     -32.443   9.079  23.957  0.00  0.00    -0.001 C 
ATOM     76  C26 non d ame     -31.511   8.798  22.632  0.00  0.00    -0.035 C 
ATOM     77  C27 non d ame     -30.482   9.680  22.627  0.00  0.00     0.085 C 
ATOM     78  H38 non d ame     -31.017   7.831  22.720  0.00  0.00     0.036 H 
ATOM     79  H39 non d ame     -32.064   9.047  21.726  0.00  0.00     0.036 H 
ATOM     80  N5  non d ame     -30.442  10.319  23.994  0.00  0.00    -0.049 N 
ATOM     81  H40 non d ame     -29.584   9.078  22.489  0.00  0.00     0.075 H 
ATOM     82  H41 non d ame     -30.750  10.436  21.890  0.00  0.00     0.075 H 
ATOM     83  C28 non d ame     -31.852   9.961  24.693  0.00  0.00     0.193 C 
ATOM     84  H42 non d ame     -29.703   9.857  24.505  0.00  0.00     0.280 HD
ATOM     85  H43 non d ame     -30.403  11.317  23.842  0.00  0.00     0.280 HD
ATOM     86  H44 non d ame     -32.638  10.712  24.771  0.00  0.00     0.129 H 
ATOM     87  H37 non d ame     -33.371   9.629  23.803  0.00  0.00     0.046 H 
BRANCH  83  88
ATOM     88  O6  non d ame     -31.637   9.493  26.026  0.00  0.00    -0.369 OA
ATOM     89  H45 non d ame     -30.861   8.928  26.046  0.00  0.00     0.212 HD
ENDBRANCH  83  88
ENDBRANCH  72  75
ENDBRANCH  47  72
ENDBRANCH  45  47
ENDBRANCH   1  43
BRANCH   1  90
ATOM     90  C16 non d ame     -37.000  10.641  27.735  0.00  0.00    -0.035 C 
ATOM     91  H21 non d ame     -36.875  11.614  28.208  0.00  0.00     0.037 H 
ATOM     92  H22 non d ame     -37.287  10.579  26.684  0.00  0.00     0.037 H 
BRANCH  90  93
ATOM     93  C17 non d ame     -38.113   9.899  28.540  0.00  0.00    -0.059 C 
ATOM     94  H23 non d ame     -37.707   9.660  29.523  0.00  0.00     0.038 H 
BRANCH  93  95
ATOM     95  C18 non d ame     -39.380  10.789  28.753  0.00  0.00    -0.073 C 
ATOM     96  H24 non d ame     -40.017  10.338  29.513  0.00  0.00     0.028 H 
ATOM     97  H25 non d ame     -39.075  11.783  29.077  0.00  0.00     0.028 H 
ATOM     98  H26 non d ame     -39.931  10.865  27.816  0.00  0.00     0.028 H 
ENDBRANCH  93  95
BRANCH  93  99
ATOM     99  C19 non d ame     -38.484   8.575  27.867  0.00  0.00    -0.073 C 
ATOM    100  H27 non d ame     -37.770   7.805  28.160  0.00  0.00     0.028 H 
ATOM    101  H28 non d ame     -39.486   8.277  28.178  0.00  0.00     0.028 H 
ATOM    102  H29 non d ame     -38.462   8.699  26.785  0.00  0.00     0.028 H 
ENDBRANCH  93  99
ENDBRANCH  90  93
ENDBRANCH   1  90
TORSDOF 26
ENDMDL
MODEL 8
REMARK VINA RESULT:      -6.4      3.001      6.253
REMARK  26 active torsions:
REMARK  status: ('A' for Active; 'I' for Inactive)
REMARK    1  A    between atoms: C2_2  and  C3_3 
REMARK    2  A    between atoms: C4_6  and  C5_7 
REMARK       I    between atoms: C5_7  and  N2_9 
REMARK    3  A    between atoms: N2_9  and  C6_10 
REMARK    4  A    between atoms: C6_10  and  C7_11 
REMARK    5  A    between atoms: C6_10  and  C8_13 
REMARK       I    between atoms: C7_11  and  N3_14 
REMARK    6  A    between atoms: N3_14  and  C9_15 
REMARK    7  A    between atoms: C9_15  and  C10_16 
REMARK    8  A    between atoms: C9_15  and  C11_18 
REMARK       I    between atoms: C10_16  and  N4_21 
REMARK    9  A    between atoms: C11_18  and  C12_19 
REMARK   10  A    between atoms: C11_18  and  C13_20 
REMARK   11  A    between atoms: N4_21  and  C14_22 
REMARK   12  A    between atoms: C14_22  and  C15_23 
REMARK   13  A    between atoms: C14_22  and  C16_25 
REMARK       I    between atoms: C15_23  and  N6_40 
REMARK   14  A    between atoms: C16_25  and  C17_26 
REMARK   15  A    between atoms: C17_26  and  C18_27 
REMARK   16  A    between atoms: C17_26  and  C19_28 
REMARK   17  A    between atoms: C20_29  and  C21_30 
REMARK   18  A    between atoms: C20_29  and  C24_33 
REMARK   19  A    between atoms: C20_29  and  N6_40 
REMARK   20  A    between atoms: C21_30  and  C22_31 
REMARK   21  A    between atoms: C22_31  and  C23_32 
REMARK   22  A    between atoms: C23_32  and  O8_43 
REMARK   23  A    between atoms: C24_33  and  C25_34 
REMARK   24  A    between atoms: C28_38  and  O6_39 
REMARK   25  A    between atoms: C29_42  and  O8_43 
REMARK   26  A    between atoms: C29_42  and  C35_49 
ROOT
ATOM      1  C14 non d ame     -31.838   9.415  24.794  0.00  0.00     0.089 C 
ATOM      2  H20 non d ame     -31.041   8.679  24.910  0.00  0.00     0.087 H 
ENDROOT
BRANCH   1   3
ATOM      3  N4  non d ame     -33.095   8.688  24.705  0.00  0.00    -0.346 N 
ATOM      4  C10 non d ame     -33.105   7.223  24.349  0.00  0.00     0.241 C 
ATOM      5  O4  non d ame     -32.088   6.650  24.136  0.00  0.00    -0.271 OA
ATOM      6  H19 non d ame     -33.950   9.194  24.889  0.00  0.00     0.163 HD
BRANCH   4   7
ATOM      7  C9  non d ame     -34.416   6.485  24.268  0.00  0.00     0.092 C 
ATOM      8  H11 non d ame     -34.246   5.500  23.834  0.00  0.00     0.088 H 
BRANCH   7   9
ATOM      9  N3  non d ame     -34.945   6.278  25.619  0.00  0.00    -0.346 N 
ATOM     10  C7  non d ame     -34.800   4.995  26.261  0.00  0.00     0.240 C 
ATOM     11  O3  non d ame     -34.261   4.117  25.704  0.00  0.00    -0.271 OA
ATOM     12  H10 non d ame     -35.414   7.025  26.111  0.00  0.00     0.163 HD
BRANCH  10  13
ATOM     13  C6  non d ame     -35.368   4.779  27.698  0.00  0.00     0.086 C 
ATOM     14  H6  non d ame     -34.678   4.244  28.349  0.00  0.00     0.086 H 
BRANCH  13  15
ATOM     15  N2  non d ame     -35.599   6.076  28.313  0.00  0.00    -0.343 N 
ATOM     16  C5  non d ame     -35.113   6.326  29.672  0.00  0.00     0.273 C 
ATOM     17  O2  non d ame     -34.541   5.477  30.263  0.00  0.00    -0.266 OA
ATOM     18  H5  non d ame     -36.091   6.795  27.802  0.00  0.00     0.163 HD
BRANCH  16  19
ATOM     19  C4  non d ame     -35.348   7.693  30.334  0.00  0.00     0.154 A 
ATOM     20  C1  non d ame     -34.990   8.083  31.663  0.00  0.00    -0.017 A 
ATOM     21  C2  non d ame     -35.420   9.424  31.777  0.00  0.00     0.077 A 
ATOM     22  H1  non d ame     -34.494   7.485  32.428  0.00  0.00     0.091 H 
ATOM     23  O1  non d ame     -35.959   9.756  30.640  0.00  0.00    -0.218 OA
ATOM     24  N1  non d ame     -35.929   8.762  29.782  0.00  0.00    -0.123 NA
BRANCH  21  25
ATOM     25  C3  non d ame     -35.277  10.315  33.003  0.00  0.00    -0.029 C 
ATOM     26  H2  non d ame     -35.494  11.348  32.730  0.00  0.00     0.036 H 
ATOM     27  H3  non d ame     -35.976   9.989  33.773  0.00  0.00     0.036 H 
ATOM     28  H4  non d ame     -34.259  10.247  33.386  0.00  0.00     0.036 H 
ENDBRANCH  21  25
ENDBRANCH  16  19
ENDBRANCH  13  15
BRANCH  13  29
ATOM     29  C8  non d ame     -36.661   4.008  27.620  0.00  0.00    -0.049 C 
ATOM     30  H7  non d ame     -36.854   3.523  28.577  0.00  0.00     0.030 H 
ATOM     31  H8  non d ame     -37.478   4.691  27.388  0.00  0.00     0.030 H 
ATOM     32  H9  non d ame     -36.587   3.252  26.838  0.00  0.00     0.030 H 
ENDBRANCH  13  29
ENDBRANCH  10  13
ENDBRANCH   7   9
BRANCH   7  33
ATOM     33  C11 non d ame     -35.432   7.324  23.438  0.00  0.00    -0.033 C 
ATOM     34  H12 non d ame     -35.397   8.347  23.812  0.00  0.00     0.042 H 
BRANCH  33  35
ATOM     35  C12 non d ame     -35.038   7.362  21.929  0.00  0.00    -0.071 C 
ATOM     36  H13 non d ame     -34.184   8.026  21.793  0.00  0.00     0.028 H 
ATOM     37  H14 non d ame     -34.775   6.359  21.596  0.00  0.00     0.028 H 
ATOM     38  H15 non d ame     -35.881   7.731  21.343  0.00  0.00     0.028 H 
ENDBRANCH  33  35
BRANCH  33  39
ATOM     39  C13 non d ame     -36.887   6.788  23.631  0.00  0.00    -0.071 C 
ATOM     40  H16 non d ame     -36.965   6.285  24.595  0.00  0.00     0.028 H 
ATOM     41  H17 non d ame     -37.589   7.623  23.598  0.00  0.00     0.028 H 
ATOM     42  H18 non d ame     -37.124   6.085  22.833  0.00  0.00     0.028 H 
ENDBRANCH  33  39
ENDBRANCH   7  33
ENDBRANCH   4   7
ENDBRANCH   1   3
BRANCH   1  43
ATOM     43  C15 non d ame     -31.915  10.393  26.001  0.00  0.00     0.240 C 
ATOM     44  O5  non d ame     -31.071  11.218  26.148  0.00  0.00    -0.271 OA
ATOM     45  N6  non d ame     -33.045  10.307  26.969  0.00  0.00    -0.355 N 
ATOM     46  H46 non d ame     -33.770   9.614  26.852  0.00  0.00     0.162 HD
BRANCH  45  47
ATOM     47  C20 non d ame     -33.104  11.245  28.111  0.00  0.00     0.013 C 
ATOM     48  H30 non d ame     -32.400  12.054  27.918  0.00  0.00     0.072 H 
BRANCH  47  49
ATOM     49  C21 non d ame     -32.718  10.516  29.378  0.00  0.00    -0.038 C 
ATOM     50  H31 non d ame     -33.552   9.850  29.600  0.00  0.00     0.036 H 
ATOM     51  H32 non d ame     -31.727  10.104  29.189  0.00  0.00     0.036 H 
BRANCH  49  52
ATOM     52  C22 non d ame     -32.575  11.459  30.592  0.00  0.00     0.018 C 
ATOM     53  H33 non d ame     -33.322  12.239  30.450  0.00  0.00     0.048 H 
ATOM     54  H34 non d ame     -32.620  10.816  31.472  0.00  0.00     0.048 H 
BRANCH  52  55
ATOM     55  C23 non d ame     -31.204  12.186  30.663  0.00  0.00     0.259 C 
ATOM     56  O7  non d ame     -30.242  11.621  31.073  0.00  0.00    -0.265 OA
BRANCH  55  57
ATOM     57  O8  non d ame     -31.112  13.542  30.243  0.00  0.00    -0.317 OA
BRANCH  57  58
ATOM     58  C29 non d ame     -30.671  13.704  28.891  0.00  0.00     0.052 C 
ATOM     59  H47 non d ame     -29.741  14.269  28.950  0.00  0.00     0.082 H 
ATOM     60  H48 non d ame     -30.675  12.704  28.458  0.00  0.00     0.082 H 
BRANCH  58  61
ATOM     61  C35 non d ame     -31.724  14.566  28.145  0.00  0.00    -0.034 A 
ATOM     62  C30 non d ame     -32.830  15.061  28.827  0.00  0.00    -0.075 A 
ATOM     63  C31 non d ame     -33.776  15.835  28.157  0.00  0.00    -0.082 A 
ATOM     64  H49 non d ame     -32.957  14.841  29.888  0.00  0.00     0.084 H 
ATOM     65  C32 non d ame     -33.613  16.112  26.797  0.00  0.00    -0.083 A 
ATOM     66  H50 non d ame     -34.641  16.223  28.695  0.00  0.00     0.083 H 
ATOM     67  C33 non d ame     -32.508  15.614  26.119  0.00  0.00    -0.082 A 
ATOM     68  H51 non d ame     -34.347  16.718  26.265  0.00  0.00     0.083 H 
ATOM     69  C34 non d ame     -31.560  14.841  26.786  0.00  0.00    -0.075 A 
ATOM     70  H52 non d ame     -32.385  15.830  25.057  0.00  0.00     0.083 H 
ATOM     71  H53 non d ame     -30.695  14.454  26.247  0.00  0.00     0.084 H 
ENDBRANCH  58  61
ENDBRANCH  57  58
ENDBRANCH  55  57
ENDBRANCH  52  55
ENDBRANCH  49  52
ENDBRANCH  47  49
BRANCH  47  72
ATOM     72  C24 non d ame     -34.521  11.798  28.252  0.00  0.00    -0.039 C 
ATOM     73  H35 non d ame     -35.003  11.172  29.004  0.00  0.00     0.036 H 
ATOM     74  H36 non d ame     -34.400  12.866  28.430  0.00  0.00     0.036 H 
BRANCH  72  75
ATOM     75  C25 non d ame     -35.358  11.636  26.896  0.00  0.00    -0.001 C 
ATOM     76  C26 non d ame     -35.155  12.967  25.951  0.00  0.00    -0.035 C 
ATOM     77  C27 non d ame     -36.373  13.430  25.582  0.00  0.00     0.085 C 
ATOM     78  H38 non d ame     -34.739  13.784  26.540  0.00  0.00     0.036 H 
ATOM     79  H39 non d ame     -34.692  12.686  25.005  0.00  0.00     0.036 H 
ATOM     80  N5  non d ame     -37.392  12.736  26.453  0.00  0.00    -0.049 N 
ATOM     81  H40 non d ame     -36.365  14.493  25.822  0.00  0.00     0.075 H 
ATOM     82  H41 non d ame     -36.508  13.105  24.551  0.00  0.00     0.075 H 
ATOM     83  C28 non d ame     -36.619  11.495  27.139  0.00  0.00     0.193 C 
ATOM     84  H42 non d ame     -37.648  13.394  27.175  0.00  0.00     0.280 HD
ATOM     85  H43 non d ame     -38.098  12.370  25.830  0.00  0.00     0.280 HD
ATOM     86  H44 non d ame     -36.777  10.478  26.780  0.00  0.00     0.129 H 
ATOM     87  H37 non d ame     -35.200  10.665  26.426  0.00  0.00     0.046 H 
BRANCH  83  88
ATOM     88  O6  non d ame     -36.897  11.455  28.539  0.00  0.00    -0.369 OA
ATOM     89  H45 non d ame     -36.168  11.852  29.022  0.00  0.00     0.212 HD
ENDBRANCH  83  88
ENDBRANCH  72  75
ENDBRANCH  47  72
ENDBRANCH  45  47
ENDBRANCH   1  43
BRANCH   1  90
ATOM     90  C16 non d ame     -31.628  10.202  23.510  0.00  0.00    -0.035 C 
ATOM     91  H21 non d ame     -32.196   9.669  22.749  0.00  0.00     0.037 H 
ATOM     92  H22 non d ame     -31.884  11.233  23.759  0.00  0.00     0.037 H 
BRANCH  90  93
ATOM     93  C17 non d ame     -30.145  10.221  23.022  0.00  0.00    -0.059 C 
ATOM     94  H23 non d ame     -29.507  10.105  23.897  0.00  0.00     0.038 H 
BRANCH  93  95
ATOM     95  C18 non d ame     -29.832   9.043  22.044  0.00  0.00    -0.073 C 
ATOM     96  H24 non d ame     -28.953   9.289  21.448  0.00  0.00     0.028 H 
ATOM     97  H25 non d ame     -29.639   8.136  22.618  0.00  0.00     0.028 H 
ATOM     98  H26 non d ame     -30.684   8.881  21.385  0.00  0.00     0.028 H 
ENDBRANCH  93  95
BRANCH  93  99
ATOM     99  C19 non d ame     -29.797  11.567  22.381  0.00  0.00    -0.073 C 
ATOM    100  H27 non d ame     -29.195  11.400  21.487  0.00  0.00     0.028 H 
ATOM    101  H28 non d ame     -30.715  12.088  22.108  0.00  0.00     0.028 H 
ATOM    102  H29 non d ame     -29.234  12.173  23.090  0.00  0.00     0.028 H 
ENDBRANCH  93  99
ENDBRANCH  90  93
ENDBRANCH   1  90
TORSDOF 26
ENDMDL
MODEL 9
REMARK VINA RESULT:      -6.3      2.249      7.309
REMARK  26 active torsions:
REMARK  status: ('A' for Active; 'I' for Inactive)
REMARK    1  A    between atoms: C2_2  and  C3_3 
REMARK    2  A    between atoms: C4_6  and  C5_7 
REMARK       I    between atoms: C5_7  and  N2_9 
REMARK    3  A    between atoms: N2_9  and  C6_10 
REMARK    4  A    between atoms: C6_10  and  C7_11 
REMARK    5  A    between atoms: C6_10  and  C8_13 
REMARK       I    between atoms: C7_11  and  N3_14 
REMARK    6  A    between atoms: N3_14  and  C9_15 
REMARK    7  A    between atoms: C9_15  and  C10_16 
REMARK    8  A    between atoms: C9_15  and  C11_18 
REMARK       I    between atoms: C10_16  and  N4_21 
REMARK    9  A    between atoms: C11_18  and  C12_19 
REMARK   10  A    between atoms: C11_18  and  C13_20 
REMARK   11  A    between atoms: N4_21  and  C14_22 
REMARK   12  A    between atoms: C14_22  and  C15_23 
REMARK   13  A    between atoms: C14_22  and  C16_25 
REMARK       I    between atoms: C15_23  and  N6_40 
REMARK   14  A    between atoms: C16_25  and  C17_26 
REMARK   15  A    between atoms: C17_26  and  C18_27 
REMARK   16  A    between atoms: C17_26  and  C19_28 
REMARK   17  A    between atoms: C20_29  and  C21_30 
REMARK   18  A    between atoms: C20_29  and  C24_33 
REMARK   19  A    between atoms: C20_29  and  N6_40 
REMARK   20  A    between atoms: C21_30  and  C22_31 
REMARK   21  A    between atoms: C22_31  and  C23_32 
REMARK   22  A    between atoms: C23_32  and  O8_43 
REMARK   23  A    between atoms: C24_33  and  C25_34 
REMARK   24  A    between atoms: C28_38  and  O6_39 
REMARK   25  A    between atoms: C29_42  and  O8_43 
REMARK   26  A    between atoms: C29_42  and  C35_49 
ROOT
ATOM      1  C14 non d ame     -33.097  12.106  28.755  0.00  0.00     0.089 C 
ATOM      2  H20 non d ame     -33.164  12.553  29.747  0.00  0.00     0.087 H 
ENDROOT
BRANCH   1   3
ATOM      3  N4  non d ame     -33.890  10.886  28.769  0.00  0.00    -0.346 N 
ATOM      4  C10 non d ame     -33.910  10.005  29.993  0.00  0.00     0.241 C 
ATOM      5  O4  non d ame     -33.276  10.297  30.953  0.00  0.00    -0.271 OA
ATOM      6  H19 non d ame     -34.420  10.654  27.941  0.00  0.00     0.163 HD
BRANCH   4   7
ATOM      7  C9  non d ame     -34.740   8.748  29.992  0.00  0.00     0.092 C 
ATOM      8  H11 non d ame     -35.720   8.966  29.566  0.00  0.00     0.088 H 
BRANCH   7   9
ATOM      9  N3  non d ame     -34.107   7.744  29.132  0.00  0.00    -0.346 N 
ATOM     10  C7  non d ame     -34.691   7.419  27.854  0.00  0.00     0.240 C 
ATOM     11  O3  non d ame     -35.669   7.956  27.502  0.00  0.00    -0.271 OA
ATOM     12  H10 non d ame     -33.264   7.271  29.423  0.00  0.00     0.163 HD
BRANCH  10  13
ATOM     13  C6  non d ame     -34.014   6.347  26.944  0.00  0.00     0.086 C 
ATOM     14  H6  non d ame     -34.712   5.583  26.603  0.00  0.00     0.086 H 
BRANCH  13  15
ATOM     15  N2  non d ame     -33.496   6.998  25.753  0.00  0.00    -0.343 N 
ATOM     16  C5  non d ame     -32.735   8.243  25.884  0.00  0.00     0.273 C 
ATOM     17  O2  non d ame     -32.548   8.713  26.952  0.00  0.00    -0.266 OA
ATOM     18  H5  non d ame     -33.663   6.591  24.844  0.00  0.00     0.163 HD
BRANCH  16  19
ATOM     19  C4  non d ame     -32.180   8.941  24.633  0.00  0.00     0.154 A 
ATOM     20  C1  non d ame     -31.142   9.925  24.580  0.00  0.00    -0.017 A 
ATOM     21  C2  non d ame     -31.010  10.242  23.210  0.00  0.00     0.077 A 
ATOM     22  H1  non d ame     -30.572  10.344  25.410  0.00  0.00     0.091 H 
ATOM     23  O1  non d ame     -31.875   9.519  22.560  0.00  0.00    -0.218 OA
ATOM     24  N1  non d ame     -32.569   8.752  23.369  0.00  0.00    -0.123 NA
BRANCH  21  25
ATOM     25  C3  non d ame     -30.035  11.244  22.606  0.00  0.00    -0.029 C 
ATOM     26  H2  non d ame     -29.184  11.371  23.274  0.00  0.00     0.036 H 
ATOM     27  H3  non d ame     -29.687  10.875  21.641  0.00  0.00     0.036 H 
ATOM     28  H4  non d ame     -30.537  12.202  22.469  0.00  0.00     0.036 H 
ENDBRANCH  21  25
ENDBRANCH  16  19
ENDBRANCH  13  15
BRANCH  13  29
ATOM     29  C8  non d ame     -32.891   5.681  27.698  0.00  0.00    -0.049 C 
ATOM     30  H7  non d ame     -33.304   5.088  28.515  0.00  0.00     0.030 H 
ATOM     31  H8  non d ame     -32.335   5.031  27.023  0.00  0.00     0.030 H 
ATOM     32  H9  non d ame     -32.224   6.441  28.103  0.00  0.00     0.030 H 
ENDBRANCH  13  29
ENDBRANCH  10  13
ENDBRANCH   7   9
BRANCH   7  33
ATOM     33  C11 non d ame     -34.844   8.194  31.443  0.00  0.00    -0.033 C 
ATOM     34  H12 non d ame     -33.882   8.361  31.928  0.00  0.00     0.042 H 
BRANCH  33  35
ATOM     35  C12 non d ame     -35.923   8.961  32.269  0.00  0.00    -0.071 C 
ATOM     36  H13 non d ame     -35.433   9.633  32.973  0.00  0.00     0.028 H 
ATOM     37  H14 non d ame     -36.554   9.539  31.594  0.00  0.00     0.028 H 
ATOM     38  H15 non d ame     -36.537   8.246  32.817  0.00  0.00     0.028 H 
ENDBRANCH  33  35
BRANCH  33  39
ATOM     39  C13 non d ame     -35.122   6.657  31.437  0.00  0.00    -0.071 C 
ATOM     40  H16 non d ame     -35.886   6.429  30.693  0.00  0.00     0.028 H 
ATOM     41  H17 non d ame     -34.204   6.122  31.190  0.00  0.00     0.028 H 
ATOM     42  H18 non d ame     -35.469   6.346  32.422  0.00  0.00     0.028 H 
ENDBRANCH  33  39
ENDBRANCH   7  33
ENDBRANCH   4   7
ENDBRANCH   1   3
BRANCH   1  43
ATOM     43  C15 non d ame     -33.654  13.046  27.648  0.00  0.00     0.240 C 
ATOM     44  O5  non d ame     -33.580  12.723  26.506  0.00  0.00    -0.271 OA
ATOM     45  N6  non d ame     -34.288  14.345  28.011  0.00  0.00    -0.355 N 
ATOM     46  H46 non d ame     -34.361  14.628  28.978  0.00  0.00     0.162 HD
BRANCH  45  47
ATOM     47  C20 non d ame     -34.814  15.227  26.947  0.00  0.00     0.013 C 
ATOM     48  H30 non d ame     -34.310  14.968  26.016  0.00  0.00     0.072 H 
BRANCH  47  49
ATOM     49  C21 non d ame     -34.528  16.668  27.305  0.00  0.00    -0.038 C 
ATOM     50  H31 non d ame     -34.689  17.237  26.389  0.00  0.00     0.036 H 
ATOM     51  H32 non d ame     -35.130  16.876  28.190  0.00  0.00     0.036 H 
BRANCH  49  52
ATOM     52  C22 non d ame     -33.057  16.904  27.712  0.00  0.00     0.018 C 
ATOM     53  H33 non d ame     -33.087  17.648  28.508  0.00  0.00     0.048 H 
ATOM     54  H34 non d ame     -32.643  15.914  27.906  0.00  0.00     0.048 H 
BRANCH  52  55
ATOM     55  C23 non d ame     -32.186  17.519  26.583  0.00  0.00     0.259 C 
ATOM     56  O7  non d ame     -32.140  18.697  26.430  0.00  0.00    -0.265 OA
BRANCH  55  57
ATOM     57  O8  non d ame     -31.450  16.658  25.722  0.00  0.00    -0.317 OA
BRANCH  57  58
ATOM     58  C29 non d ame     -32.143  16.305  24.521  0.00  0.00     0.052 C 
ATOM     59  H47 non d ame     -32.755  15.440  24.778  0.00  0.00     0.082 H 
ATOM     60  H48 non d ame     -32.616  17.222  24.173  0.00  0.00     0.082 H 
BRANCH  58  61
ATOM     61  C35 non d ame     -31.088  15.867  23.471  0.00  0.00    -0.034 A 
ATOM     62  C30 non d ame     -31.282  16.160  22.125  0.00  0.00    -0.075 A 
ATOM     63  C31 non d ame     -30.334  15.766  21.181  0.00  0.00    -0.082 A 
ATOM     64  H49 non d ame     -32.176  16.697  21.809  0.00  0.00     0.084 H 
ATOM     65  C32 non d ame     -29.190  15.074  21.588  0.00  0.00    -0.083 A 
ATOM     66  H50 non d ame     -30.488  15.999  20.127  0.00  0.00     0.083 H 
ATOM     67  C33 non d ame     -29.003  14.781  22.932  0.00  0.00    -0.082 A 
ATOM     68  H51 non d ame     -28.444  14.763  20.856  0.00  0.00     0.083 H 
ATOM     69  C34 non d ame     -29.946  15.174  23.878  0.00  0.00    -0.075 A 
ATOM     70  H52 non d ame     -28.110  14.239  23.245  0.00  0.00     0.083 H 
ATOM     71  H53 non d ame     -29.791  14.941  24.932  0.00  0.00     0.084 H 
ENDBRANCH  58  61
ENDBRANCH  57  58
ENDBRANCH  55  57
ENDBRANCH  52  55
ENDBRANCH  49  52
ENDBRANCH  47  49
BRANCH  47  72
ATOM     72  C24 non d ame     -36.322  15.026  26.808  0.00  0.00    -0.039 C 
ATOM     73  H35 non d ame     -36.625  14.481  27.702  0.00  0.00     0.036 H 
ATOM     74  H36 non d ame     -36.730  16.017  26.609  0.00  0.00     0.036 H 
BRANCH  72  75
ATOM     75  C25 non d ame     -36.683  14.105  25.548  0.00  0.00    -0.001 C 
ATOM     76  C26 non d ame     -37.801  14.857  24.606  0.00  0.00    -0.035 C 
ATOM     77  C27 non d ame     -38.827  14.002  24.379  0.00  0.00     0.085 C 
ATOM     78  H38 non d ame     -38.268  15.673  25.159  0.00  0.00     0.036 H 
ATOM     79  H39 non d ame     -37.393  15.037  23.612  0.00  0.00     0.036 H 
ATOM     80  N5  non d ame     -38.666  12.853  25.345  0.00  0.00    -0.049 N 
ATOM     81  H40 non d ame     -39.730  14.557  24.632  0.00  0.00     0.075 H 
ATOM     82  H41 non d ame     -38.680  13.635  23.363  0.00  0.00     0.075 H 
ATOM     83  C28 non d ame     -37.163  12.967  25.924  0.00  0.00     0.193 C 
ATOM     84  H42 non d ame     -39.315  13.021  26.100  0.00  0.00     0.280 HD
ATOM     85  H43 non d ame     -38.737  12.008  24.796  0.00  0.00     0.280 HD
ATOM     86  H44 non d ame     -36.381  12.295  25.569  0.00  0.00     0.129 H 
ATOM     87  H37 non d ame     -35.793  13.720  25.050  0.00  0.00     0.046 H 
BRANCH  83  88
ATOM     88  O6  non d ame     -37.171  12.828  27.346  0.00  0.00    -0.369 OA
ATOM     89  H45 non d ame     -38.046  12.559  27.636  0.00  0.00     0.212 HD
ENDBRANCH  83  88
ENDBRANCH  72  75
ENDBRANCH  47  72
ENDBRANCH  45  47
ENDBRANCH   1  43
BRANCH   1  90
ATOM     90  C16 non d ame     -31.650  11.754  28.446  0.00  0.00    -0.035 C 
ATOM     91  H21 non d ame     -31.507  10.749  28.842  0.00  0.00     0.037 H 
ATOM     92  H22 non d ame     -31.529  11.942  27.379  0.00  0.00     0.037 H 
BRANCH  90  93
ATOM     93  C17 non d ame     -30.614  12.667  29.175  0.00  0.00    -0.059 C 
ATOM     94  H23 non d ame     -29.654  12.151  29.166  0.00  0.00     0.038 H 
BRANCH  93  95
ATOM     95  C18 non d ame     -30.425  14.039  28.452  0.00  0.00    -0.073 C 
ATOM     96  H24 non d ame     -31.206  14.165  27.703  0.00  0.00     0.028 H 
ATOM     97  H25 non d ame     -30.488  14.846  29.181  0.00  0.00     0.028 H 
ATOM     98  H26 non d ame     -29.449  14.062  27.967  0.00  0.00     0.028 H 
ENDBRANCH  93  95
BRANCH  93  99
ATOM     99  C19 non d ame     -31.004  12.873  30.641  0.00  0.00    -0.073 C 
ATOM    100  H27 non d ame     -31.930  13.446  30.694  0.00  0.00     0.028 H 
ATOM    101  H28 non d ame     -31.148  11.904  31.120  0.00  0.00     0.028 H 
ATOM    102  H29 non d ame     -30.211  13.416  31.155  0.00  0.00     0.028 H 
ENDBRANCH  93  99
ENDBRANCH  90  93
ENDBRANCH   1  90
TORSDOF 26
ENDMDL
MODEL 10
REMARK VINA RESULT:      -6.3      3.039      8.002
REMARK  26 active torsions:
REMARK  status: ('A' for Active; 'I' for Inactive)
REMARK    1  A    between atoms: C2_2  and  C3_3 
REMARK    2  A    between atoms: C4_6  and  C5_7 
REMARK       I    between atoms: C5_7  and  N2_9 
REMARK    3  A    between atoms: N2_9  and  C6_10 
REMARK    4  A    between atoms: C6_10  and  C7_11 
REMARK    5  A    between atoms: C6_10  and  C8_13 
REMARK       I    between atoms: C7_11  and  N3_14 
REMARK    6  A    between atoms: N3_14  and  C9_15 
REMARK    7  A    between atoms: C9_15  and  C10_16 
REMARK    8  A    between atoms: C9_15  and  C11_18 
REMARK       I    between atoms: C10_16  and  N4_21 
REMARK    9  A    between atoms: C11_18  and  C12_19 
REMARK   10  A    between atoms: C11_18  and  C13_20 
REMARK   11  A    between atoms: N4_21  and  C14_22 
REMARK   12  A    between atoms: C14_22  and  C15_23 
REMARK   13  A    between atoms: C14_22  and  C16_25 
REMARK       I    between atoms: C15_23  and  N6_40 
REMARK   14  A    between atoms: C16_25  and  C17_26 
REMARK   15  A    between atoms: C17_26  and  C18_27 
REMARK   16  A    between atoms: C17_26  and  C19_28 
REMARK   17  A    between atoms: C20_29  and  C21_30 
REMARK   18  A    between atoms: C20_29  and  C24_33 
REMARK   19  A    between atoms: C20_29  and  N6_40 
REMARK   20  A    between atoms: C21_30  and  C22_31 
REMARK   21  A    between atoms: C22_31  and  C23_32 
REMARK   22  A    between atoms: C23_32  and  O8_43 
REMARK   23  A    between atoms: C24_33  and  C25_34 
REMARK   24  A    between atoms: C28_38  and  O6_39 
REMARK   25  A    between atoms: C29_42  and  O8_43 
REMARK   26  A    between atoms: C29_42  and  C35_49 
ROOT
ATOM      1  C14 non d ame     -35.957  10.268  26.290  0.00  0.00     0.089 C 
ATOM      2  H20 non d ame     -37.007  10.134  26.549  0.00  0.00     0.087 H 
ENDROOT
BRANCH   1   3
ATOM      3  N4  non d ame     -35.179  10.092  27.507  0.00  0.00    -0.346 N 
ATOM      4  C10 non d ame     -35.833  10.249  28.857  0.00  0.00     0.241 C 
ATOM      5  O4  non d ame     -36.986  10.519  28.938  0.00  0.00    -0.271 OA
ATOM      6  H19 non d ame     -34.199   9.865  27.417  0.00  0.00     0.163 HD
BRANCH   4   7
ATOM      7  C9  non d ame     -35.015  10.058  30.107  0.00  0.00     0.092 C 
ATOM      8  H11 non d ame     -34.484   9.108  30.047  0.00  0.00     0.088 H 
BRANCH   7   9
ATOM      9  N3  non d ame     -34.002  11.115  30.195  0.00  0.00    -0.346 N 
ATOM     10  C7  non d ame     -32.727  10.946  29.543  0.00  0.00     0.240 C 
ATOM     11  O3  non d ame     -32.498   9.966  28.945  0.00  0.00    -0.271 OA
ATOM     12  H10 non d ame     -34.184  11.965  30.709  0.00  0.00     0.163 HD
BRANCH  10  13
ATOM     13  C6  non d ame     -31.652  12.073  29.642  0.00  0.00     0.086 C 
ATOM     14  H6  non d ame     -30.872  11.979  28.887  0.00  0.00     0.086 H 
BRANCH  13  15
ATOM     15  N2  non d ame     -32.294  13.358  29.420  0.00  0.00    -0.343 N 
ATOM     16  C5  non d ame     -31.561  14.420  28.728  0.00  0.00     0.273 C 
ATOM     17  O2  non d ame     -30.455  14.232  28.357  0.00  0.00    -0.266 OA
ATOM     18  H5  non d ame     -33.239  13.510  29.743  0.00  0.00     0.163 HD
BRANCH  16  19
ATOM     19  C4  non d ame     -32.228  15.783  28.485  0.00  0.00     0.154 A 
ATOM     20  C1  non d ame     -33.050  16.158  27.375  0.00  0.00    -0.017 A 
ATOM     21  C2  non d ame     -33.408  17.501  27.625  0.00  0.00     0.077 A 
ATOM     22  H1  non d ame     -33.341  15.548  26.519  0.00  0.00     0.091 H 
ATOM     23  O1  non d ame     -32.853  17.847  28.750  0.00  0.00    -0.218 OA
ATOM     24  N1  non d ame     -32.159  16.861  29.270  0.00  0.00    -0.123 NA
BRANCH  21  25
ATOM     25  C3  non d ame     -34.283  18.380  26.742  0.00  0.00    -0.029 C 
ATOM     26  H2  non d ame     -34.666  19.216  27.326  0.00  0.00     0.036 H 
ATOM     27  H3  non d ame     -33.692  18.761  25.909  0.00  0.00     0.036 H 
ATOM     28  H4  non d ame     -35.117  17.794  26.357  0.00  0.00     0.036 H 
ENDBRANCH  21  25
ENDBRANCH  16  19
ENDBRANCH  13  15
BRANCH  13  29
ATOM     29  C8  non d ame     -31.014  12.043  31.008  0.00  0.00    -0.049 C 
ATOM     30  H7  non d ame     -31.537  12.736  31.668  0.00  0.00     0.030 H 
ATOM     31  H8  non d ame     -31.076  11.035  31.416  0.00  0.00     0.030 H 
ATOM     32  H9  non d ame     -29.968  12.339  30.927  0.00  0.00     0.030 H 
ENDBRANCH  13  29
ENDBRANCH  10  13
ENDBRANCH   7   9
BRANCH   7  33
ATOM     33  C11 non d ame     -35.946  10.131  31.353  0.00  0.00    -0.033 C 
ATOM     34  H12 non d ame     -36.851  10.661  31.056  0.00  0.00     0.042 H 
BRANCH  33  35
ATOM     35  C12 non d ame     -36.371   8.708  31.829  0.00  0.00    -0.071 C 
ATOM     36  H13 non d ame     -36.606   8.089  30.963  0.00  0.00     0.028 H 
ATOM     37  H14 non d ame     -35.554   8.253  32.389  0.00  0.00     0.028 H 
ATOM     38  H15 non d ame     -37.251   8.786  32.468  0.00  0.00     0.028 H 
ENDBRANCH  33  35
BRANCH  33  39
ATOM     39  C13 non d ame     -35.271  10.938  32.509  0.00  0.00    -0.071 C 
ATOM     40  H16 non d ame     -35.982  11.660  32.911  0.00  0.00     0.028 H 
ATOM     41  H17 non d ame     -34.964  10.252  33.299  0.00  0.00     0.028 H 
ATOM     42  H18 non d ame     -34.397  11.462  32.124  0.00  0.00     0.028 H 
ENDBRANCH  33  39
ENDBRANCH   7  33
ENDBRANCH   4   7
ENDBRANCH   1   3
BRANCH   1  43
ATOM     43  C15 non d ame     -35.474   9.226  25.240  0.00  0.00     0.240 C 
ATOM     44  O5  non d ame     -36.262   8.510  24.712  0.00  0.00    -0.271 OA
ATOM     45  N6  non d ame     -34.029   9.128  24.885  0.00  0.00    -0.355 N 
ATOM     46  H46 non d ame     -33.351   9.734  25.323  0.00  0.00     0.162 HD
BRANCH  45  47
ATOM     47  C20 non d ame     -33.587   8.134  23.884  0.00  0.00     0.013 C 
ATOM     48  H30 non d ame     -34.474   7.651  23.475  0.00  0.00     0.072 H 
BRANCH  47  49
ATOM     49  C21 non d ame     -32.704   7.106  24.556  0.00  0.00    -0.038 C 
ATOM     50  H31 non d ame     -32.447   6.385  23.780  0.00  0.00     0.036 H 
ATOM     51  H32 non d ame     -31.918   7.675  25.054  0.00  0.00     0.036 H 
BRANCH  49  52
ATOM     52  C22 non d ame     -33.438   6.317  25.661  0.00  0.00     0.018 C 
ATOM     53  H33 non d ame     -34.464   6.682  25.654  0.00  0.00     0.048 H 
ATOM     54  H34 non d ame     -33.232   5.265  25.459  0.00  0.00     0.048 H 
BRANCH  52  55
ATOM     55  C23 non d ame     -32.897   6.591  27.092  0.00  0.00     0.259 C 
ATOM     56  O7  non d ame     -31.728   6.604  27.303  0.00  0.00    -0.265 OA
BRANCH  55  57
ATOM     57  O8  non d ame     -33.817   6.815  28.154  0.00  0.00    -0.317 OA
BRANCH  57  58
ATOM     58  C29 non d ame     -34.659   5.695  28.441  0.00  0.00     0.052 C 
ATOM     59  H47 non d ame     -35.653   6.109  28.608  0.00  0.00     0.082 H 
ATOM     60  H48 non d ame     -34.494   4.986  27.630  0.00  0.00     0.082 H 
BRANCH  58  61
ATOM     61  C35 non d ame     -34.165   5.051  29.764  0.00  0.00    -0.034 A 
ATOM     62  C30 non d ame     -34.833   5.311  30.956  0.00  0.00    -0.075 A 
ATOM     63  C31 non d ame     -34.390   4.733  32.145  0.00  0.00    -0.082 A 
ATOM     64  H49 non d ame     -35.703   5.967  30.960  0.00  0.00     0.084 H 
ATOM     65  C32 non d ame     -33.272   3.894  32.138  0.00  0.00    -0.083 A 
ATOM     66  H50 non d ame     -34.916   4.937  33.078  0.00  0.00     0.083 H 
ATOM     67  C33 non d ame     -32.607   3.641  30.946  0.00  0.00    -0.082 A 
ATOM     68  H51 non d ame     -32.919   3.438  33.063  0.00  0.00     0.083 H 
ATOM     69  C34 non d ame     -33.048   4.215  29.756  0.00  0.00    -0.075 A 
ATOM     70  H52 non d ame     -31.733   2.988  30.945  0.00  0.00     0.083 H 
ATOM     71  H53 non d ame     -32.521   4.010  28.823  0.00  0.00     0.084 H 
ENDBRANCH  58  61
ENDBRANCH  57  58
ENDBRANCH  55  57
ENDBRANCH  52  55
ENDBRANCH  49  52
ENDBRANCH  47  49
BRANCH  47  72
ATOM     72  C24 non d ame     -32.803   8.832  22.774  0.00  0.00    -0.039 C 
ATOM     73  H35 non d ame     -32.813   8.139  21.932  0.00  0.00     0.036 H 
ATOM     74  H36 non d ame     -33.257   9.817  22.674  0.00  0.00     0.036 H 
BRANCH  72  75
ATOM     75  C25 non d ame     -31.270   9.057  23.183  0.00  0.00    -0.001 C 
ATOM     76  C26 non d ame     -30.950  10.666  23.289  0.00  0.00    -0.035 C 
ATOM     77  C27 non d ame     -29.850  10.942  22.548  0.00  0.00     0.085 C 
ATOM     78  H38 non d ame     -31.737  11.237  22.798  0.00  0.00     0.036 H 
ATOM     79  H39 non d ame     -30.643  10.920  24.304  0.00  0.00     0.036 H 
ATOM     80  N5  non d ame     -29.584   9.732  21.686  0.00  0.00    -0.049 N 
ATOM     81  H40 non d ame     -30.132  11.779  21.909  0.00  0.00     0.075 H 
ATOM     82  H41 non d ame     -29.037  11.053  23.265  0.00  0.00     0.075 H 
ATOM     83  C28 non d ame     -30.473   8.537  22.310  0.00  0.00     0.193 C 
ATOM     84  H42 non d ame     -29.940   9.951  20.767  0.00  0.00     0.280 HD
ATOM     85  H43 non d ame     -28.607   9.503  21.808  0.00  0.00     0.280 HD
ATOM     86  H44 non d ame     -30.007   7.755  22.909  0.00  0.00     0.129 H 
ATOM     87  H37 non d ame     -30.972   8.435  24.027  0.00  0.00     0.046 H 
BRANCH  83  88
ATOM     88  O6  non d ame     -31.180   7.855  21.273  0.00  0.00    -0.369 OA
ATOM     89  H45 non d ame     -31.403   6.969  21.567  0.00  0.00     0.212 HD
ENDBRANCH  83  88
ENDBRANCH  72  75
ENDBRANCH  47  72
ENDBRANCH  45  47
ENDBRANCH   1  43
BRANCH   1  90
ATOM     90  C16 non d ame     -35.732  11.673  25.756  0.00  0.00    -0.035 C 
ATOM     91  H21 non d ame     -34.739  11.959  26.102  0.00  0.00     0.037 H 
ATOM     92  H22 non d ame     -35.940  11.613  24.687  0.00  0.00     0.037 H 
BRANCH  90  93
ATOM     93  C17 non d ame     -36.723  12.731  26.339  0.00  0.00    -0.059 C 
ATOM     94  H23 non d ame     -36.679  12.660  27.426  0.00  0.00     0.038 H 
BRANCH  93  95
ATOM     95  C18 non d ame     -36.330  14.189  25.940  0.00  0.00    -0.073 C 
ATOM     96  H24 non d ame     -35.358  14.434  26.368  0.00  0.00     0.028 H 
ATOM     97  H25 non d ame     -36.278  14.268  24.855  0.00  0.00     0.028 H 
ATOM     98  H26 non d ame     -37.079  14.884  26.319  0.00  0.00     0.028 H 
ENDBRANCH  93  95
BRANCH  93  99
ATOM     99  C19 non d ame     -38.162  12.421  25.921  0.00  0.00    -0.073 C 
ATOM    100  H27 non d ame     -38.200  11.440  25.446  0.00  0.00     0.028 H 
ATOM    101  H28 non d ame     -38.805  12.423  26.801  0.00  0.00     0.028 H 
ATOM    102  H29 non d ame     -38.508  13.178  25.218  0.00  0.00     0.028 H 
ENDBRANCH  93  99
ENDBRANCH  90  93
ENDBRANCH   1  90
TORSDOF 26
ENDMDL
MODEL 11
REMARK VINA RESULT:      -6.2      3.768      9.909
REMARK  26 active torsions:
REMARK  status: ('A' for Active; 'I' for Inactive)
REMARK    1  A    between atoms: C2_2  and  C3_3 
REMARK    2  A    between atoms: C4_6  and  C5_7 
REMARK       I    between atoms: C5_7  and  N2_9 
REMARK    3  A    between atoms: N2_9  and  C6_10 
REMARK    4  A    between atoms: C6_10  and  C7_11 
REMARK    5  A    between atoms: C6_10  and  C8_13 
REMARK       I    between atoms: C7_11  and  N3_14 
REMARK    6  A    between atoms: N3_14  and  C9_15 
REMARK    7  A    between atoms: C9_15  and  C10_16 
REMARK    8  A    between atoms: C9_15  and  C11_18 
REMARK       I    between atoms: C10_16  and  N4_21 
REMARK    9  A    between atoms: C11_18  and  C12_19 
REMARK   10  A    between atoms: C11_18  and  C13_20 
REMARK   11  A    between atoms: N4_21  and  C14_22 
REMARK   12  A    between atoms: C14_22  and  C15_23 
REMARK   13  A    between atoms: C14_22  and  C16_25 
REMARK       I    between atoms: C15_23  and  N6_40 
REMARK   14  A    between atoms: C16_25  and  C17_26 
REMARK   15  A    between atoms: C17_26  and  C18_27 
REMARK   16  A    between atoms: C17_26  and  C19_28 
REMARK   17  A    between atoms: C20_29  and  C21_30 
REMARK   18  A    between atoms: C20_29  and  C24_33 
REMARK   19  A    between atoms: C20_29  and  N6_40 
REMARK   20  A    between atoms: C21_30  and  C22_31 
REMARK   21  A    between atoms: C22_31  and  C23_32 
REMARK   22  A    between atoms: C23_32  and  O8_43 
REMARK   23  A    between atoms: C24_33  and  C25_34 
REMARK   24  A    between atoms: C28_38  and  O6_39 
REMARK   25  A    between atoms: C29_42  and  O8_43 
REMARK   26  A    between atoms: C29_42  and  C35_49 
ROOT
ATOM      1  C14 non d ame     -34.982   7.745  30.176  0.00  0.00     0.089 C 
ATOM      2  H20 non d ame     -34.753   7.774  31.242  0.00  0.00     0.087 H 
ENDROOT
BRANCH   1   3
ATOM      3  N4  non d ame     -34.069   8.658  29.506  0.00  0.00    -0.346 N 
ATOM      4  C10 non d ame     -33.536   9.869  30.228  0.00  0.00     0.241 C 
ATOM      5  O4  non d ame     -33.859  10.090  31.349  0.00  0.00    -0.271 OA
ATOM      6  H19 non d ame     -33.808   8.453  28.551  0.00  0.00     0.163 HD
BRANCH   4   7
ATOM      7  C9  non d ame     -32.587  10.800  29.521  0.00  0.00     0.092 C 
ATOM      8  H11 non d ame     -31.732  10.231  29.156  0.00  0.00     0.088 H 
BRANCH   7   9
ATOM      9  N3  non d ame     -33.252  11.381  28.351  0.00  0.00    -0.346 N 
ATOM     10  C7  non d ame     -33.101  10.763  27.056  0.00  0.00     0.240 C 
ATOM     11  O3  non d ame     -32.447   9.800  26.938  0.00  0.00    -0.271 OA
ATOM     12  H10 non d ame     -33.819  12.212  28.437  0.00  0.00     0.163 HD
BRANCH  10  13
ATOM     13  C6  non d ame     -33.809  11.387  25.814  0.00  0.00     0.086 C 
ATOM     14  H6  non d ame     -34.588  12.099  26.086  0.00  0.00     0.086 H 
BRANCH  13  15
ATOM     15  N2  non d ame     -32.829  12.122  25.032  0.00  0.00    -0.343 N 
ATOM     16  C5  non d ame     -32.476  13.490  25.420  0.00  0.00     0.273 C 
ATOM     17  O2  non d ame     -32.988  13.990  26.360  0.00  0.00    -0.266 OA
ATOM     18  H5  non d ame     -32.398  11.688  24.228  0.00  0.00     0.163 HD
BRANCH  16  19
ATOM     19  C4  non d ame     -31.440  14.278  24.603  0.00  0.00     0.154 A 
ATOM     20  C1  non d ame     -30.591  13.775  23.567  0.00  0.00    -0.017 A 
ATOM     21  C2  non d ame     -29.835  14.891  23.143  0.00  0.00     0.077 A 
ATOM     22  H1  non d ame     -30.533  12.757  23.181  0.00  0.00     0.091 H 
ATOM     23  O1  non d ame     -30.213  15.910  23.858  0.00  0.00    -0.218 OA
ATOM     24  N1  non d ame     -31.149  15.577  24.717  0.00  0.00    -0.123 NA
BRANCH  21  25
ATOM     25  C3  non d ame     -28.774  14.898  22.051  0.00  0.00    -0.029 C 
ATOM     26  H2  non d ame     -29.256  14.951  21.075  0.00  0.00     0.036 H 
ATOM     27  H3  non d ame     -28.124  15.763  22.182  0.00  0.00     0.036 H 
ATOM     28  H4  non d ame     -28.181  13.986  22.114  0.00  0.00     0.036 H 
ENDBRANCH  21  25
ENDBRANCH  16  19
ENDBRANCH  13  15
BRANCH  13  29
ATOM     29  C8  non d ame     -34.421  10.292  24.977  0.00  0.00    -0.049 C 
ATOM     30  H7  non d ame     -34.112   9.322  25.367  0.00  0.00     0.030 H 
ATOM     31  H8  non d ame     -35.507  10.369  25.015  0.00  0.00     0.030 H 
ATOM     32  H9  non d ame     -34.085  10.393  23.945  0.00  0.00     0.030 H 
ENDBRANCH  13  29
ENDBRANCH  10  13
ENDBRANCH   7   9
BRANCH   7  33
ATOM     33  C11 non d ame     -32.160  11.941  30.491  0.00  0.00    -0.033 C 
ATOM     34  H12 non d ame     -32.764  11.848  31.393  0.00  0.00     0.042 H 
BRANCH  33  35
ATOM     35  C12 non d ame     -30.664  11.801  30.910  0.00  0.00    -0.071 C 
ATOM     36  H13 non d ame     -30.111  12.683  30.587  0.00  0.00     0.028 H 
ATOM     37  H14 non d ame     -30.598  11.708  31.994  0.00  0.00     0.028 H 
ATOM     38  H15 non d ame     -30.237  10.914  30.443  0.00  0.00     0.028 H 
ENDBRANCH  33  35
BRANCH  33  39
ATOM     39  C13 non d ame     -32.443  13.344  29.863  0.00  0.00    -0.071 C 
ATOM     40  H16 non d ame     -33.340  13.291  29.245  0.00  0.00     0.028 H 
ATOM     41  H17 non d ame     -32.592  14.075  30.658  0.00  0.00     0.028 H 
ATOM     42  H18 non d ame     -31.595  13.645  29.248  0.00  0.00     0.028 H 
ENDBRANCH  33  39
ENDBRANCH   7  33
ENDBRANCH   4   7
ENDBRANCH   1   3
BRANCH   1  43
ATOM     43  C15 non d ame     -34.792   6.323  29.574  0.00  0.00     0.240 C 
ATOM     44  O5  non d ame     -34.189   5.499  30.182  0.00  0.00    -0.271 OA
ATOM     45  N6  non d ame     -35.371   5.985  28.243  0.00  0.00    -0.355 N 
ATOM     46  H46 non d ame     -35.890   6.674  27.719  0.00  0.00     0.162 HD
BRANCH  45  47
ATOM     47  C20 non d ame     -35.183   4.628  27.685  0.00  0.00     0.013 C 
ATOM     48  H30 non d ame     -34.569   4.061  28.383  0.00  0.00     0.072 H 
BRANCH  47  49
ATOM     49  C21 non d ame     -34.485   4.730  26.348  0.00  0.00    -0.038 C 
ATOM     50  H31 non d ame     -34.667   3.779  25.846  0.00  0.00     0.036 H 
ATOM     51  H32 non d ame     -34.840   5.659  25.901  0.00  0.00     0.036 H 
BRANCH  49  52
ATOM     52  C22 non d ame     -32.953   4.867  26.480  0.00  0.00     0.018 C 
ATOM     53  H33 non d ame     -32.702   4.451  27.456  0.00  0.00     0.048 H 
ATOM     54  H34 non d ame     -32.537   4.423  25.575  0.00  0.00     0.048 H 
BRANCH  52  55
ATOM     55  C23 non d ame     -32.455   6.339  26.503  0.00  0.00     0.259 C 
ATOM     56  O7  non d ame     -32.149   6.856  27.528  0.00  0.00    -0.265 OA
BRANCH  55  57
ATOM     57  O8  non d ame     -32.380   7.068  25.284  0.00  0.00    -0.317 OA
BRANCH  57  58
ATOM     58  C29 non d ame     -31.570   6.445  24.282  0.00  0.00     0.052 C 
ATOM     59  H47 non d ame     -30.819   5.871  24.825  0.00  0.00     0.082 H 
ATOM     60  H48 non d ame     -32.265   5.938  23.614  0.00  0.00     0.082 H 
BRANCH  58  61
ATOM     61  C35 non d ame     -30.850   7.565  23.484  0.00  0.00    -0.034 A 
ATOM     62  C30 non d ame     -29.687   7.279  22.776  0.00  0.00    -0.075 A 
ATOM     63  C31 non d ame     -29.041   8.285  22.060  0.00  0.00    -0.082 A 
ATOM     64  H49 non d ame     -29.282   6.267  22.783  0.00  0.00     0.084 H 
ATOM     65  C32 non d ame     -29.560   9.582  22.055  0.00  0.00    -0.083 A 
ATOM     66  H50 non d ame     -28.130   8.057  21.505  0.00  0.00     0.083 H 
ATOM     67  C33 non d ame     -30.719   9.864  22.765  0.00  0.00    -0.082 A 
ATOM     68  H51 non d ame     -29.061  10.375  21.497  0.00  0.00     0.083 H 
ATOM     69  C34 non d ame     -31.370   8.861  23.481  0.00  0.00    -0.075 A 
ATOM     70  H52 non d ame     -31.120  10.878  22.761  0.00  0.00     0.083 H 
ATOM     71  H53 non d ame     -32.280   9.090  24.036  0.00  0.00     0.084 H 
ENDBRANCH  58  61
ENDBRANCH  57  58
ENDBRANCH  55  57
ENDBRANCH  52  55
ENDBRANCH  49  52
ENDBRANCH  47  49
BRANCH  47  72
ATOM     72  C24 non d ame     -36.540   3.952  27.501  0.00  0.00    -0.039 C 
ATOM     73  H35 non d ame     -36.579   3.661  26.451  0.00  0.00     0.036 H 
ATOM     74  H36 non d ame     -36.593   3.192  28.280  0.00  0.00     0.036 H 
BRANCH  72  75
ATOM     75  C25 non d ame     -37.749   4.972  27.754  0.00  0.00    -0.001 C 
ATOM     76  C26 non d ame     -38.576   4.537  29.107  0.00  0.00    -0.035 C 
ATOM     77  C27 non d ame     -39.895   4.465  28.808  0.00  0.00     0.085 C 
ATOM     78  H38 non d ame     -38.322   3.515  29.388  0.00  0.00     0.036 H 
ATOM     79  H39 non d ame     -38.527   5.335  29.848  0.00  0.00     0.036 H 
ATOM     80  N5  non d ame     -40.009   4.490  27.302  0.00  0.00    -0.049 N 
ATOM     81  H40 non d ame     -40.223   3.491  29.173  0.00  0.00     0.075 H 
ATOM     82  H41 non d ame     -40.336   5.375  29.212  0.00  0.00     0.075 H 
ATOM     83  C28 non d ame     -38.570   4.980  26.757  0.00  0.00     0.193 C 
ATOM     84  H42 non d ame     -40.155   3.534  27.010  0.00  0.00     0.280 HD
ATOM     85  H43 non d ame     -40.695   5.197  27.080  0.00  0.00     0.280 HD
ATOM     86  H44 non d ame     -38.433   5.999  26.395  0.00  0.00     0.129 H 
ATOM     87  H37 non d ame     -37.434   6.013  27.679  0.00  0.00     0.046 H 
BRANCH  83  88
ATOM     88  O6  non d ame     -38.133   4.134  25.692  0.00  0.00    -0.369 OA
ATOM     89  H45 non d ame     -38.719   3.376  25.624  0.00  0.00     0.212 HD
ENDBRANCH  83  88
ENDBRANCH  72  75
ENDBRANCH  47  72
ENDBRANCH  45  47
ENDBRANCH   1  43
BRANCH   1  90
ATOM     90  C16 non d ame     -36.410   8.212  29.943  0.00  0.00    -0.035 C 
ATOM     91  H21 non d ame     -36.322   9.137  29.375  0.00  0.00     0.037 H 
ATOM     92  H22 non d ame     -36.928   7.354  29.512  0.00  0.00     0.037 H 
BRANCH  90  93
ATOM     93  C17 non d ame     -37.174   8.573  31.257  0.00  0.00    -0.059 C 
ATOM     94  H23 non d ame     -36.599   8.175  32.093  0.00  0.00     0.038 H 
BRANCH  93  95
ATOM     95  C18 non d ame     -37.302  10.117  31.459  0.00  0.00    -0.073 C 
ATOM     96  H24 non d ame     -37.834  10.551  30.613  0.00  0.00     0.028 H 
ATOM     97  H25 non d ame     -37.853  10.319  32.376  0.00  0.00     0.028 H 
ATOM     98  H26 non d ame     -36.308  10.558  31.528  0.00  0.00     0.028 H 
ENDBRANCH  93  95
BRANCH  93  99
ATOM     99  C19 non d ame     -38.550   7.903  31.292  0.00  0.00    -0.073 C 
ATOM    100  H27 non d ame     -38.633   7.288  32.188  0.00  0.00     0.028 H 
ATOM    101  H28 non d ame     -39.327   8.668  31.302  0.00  0.00     0.028 H 
ATOM    102  H29 non d ame     -38.671   7.276  30.409  0.00  0.00     0.028 H 
ENDBRANCH  93  99
ENDBRANCH  90  93
ENDBRANCH   1  90
TORSDOF 26
ENDMDL
MODEL 12
REMARK VINA RESULT:      -6.2      2.289      7.467
REMARK  26 active torsions:
REMARK  status: ('A' for Active; 'I' for Inactive)
REMARK    1  A    between atoms: C2_2  and  C3_3 
REMARK    2  A    between atoms: C4_6  and  C5_7 
REMARK       I    between atoms: C5_7  and  N2_9 
REMARK    3  A    between atoms: N2_9  and  C6_10 
REMARK    4  A    between atoms: C6_10  and  C7_11 
REMARK    5  A    between atoms: C6_10  and  C8_13 
REMARK       I    between atoms: C7_11  and  N3_14 
REMARK    6  A    between atoms: N3_14  and  C9_15 
REMARK    7  A    between atoms: C9_15  and  C10_16 
REMARK    8  A    between atoms: C9_15  and  C11_18 
REMARK       I    between atoms: C10_16  and  N4_21 
REMARK    9  A    between atoms: C11_18  and  C12_19 
REMARK   10  A    between atoms: C11_18  and  C13_20 
REMARK   11  A    between atoms: N4_21  and  C14_22 
REMARK   12  A    between atoms: C14_22  and  C15_23 
REMARK   13  A    between atoms: C14_22  and  C16_25 
REMARK       I    between atoms: C15_23  and  N6_40 
REMARK   14  A    between atoms: C16_25  and  C17_26 
REMARK   15  A    between atoms: C17_26  and  C18_27 
REMARK   16  A    between atoms: C17_26  and  C19_28 
REMARK   17  A    between atoms: C20_29  and  C21_30 
REMARK   18  A    between atoms: C20_29  and  C24_33 
REMARK   19  A    between atoms: C20_29  and  N6_40 
REMARK   20  A    between atoms: C21_30  and  C22_31 
REMARK   21  A    between atoms: C22_31  and  C23_32 
REMARK   22  A    between atoms: C23_32  and  O8_43 
REMARK   23  A    between atoms: C24_33  and  C25_34 
REMARK   24  A    between atoms: C28_38  and  O6_39 
REMARK   25  A    between atoms: C29_42  and  O8_43 
REMARK   26  A    between atoms: C29_42  and  C35_49 
ROOT
ATOM      1  C14 non d ame     -33.219  12.194  28.906  0.00  0.00     0.089 C 
ATOM      2  H20 non d ame     -33.162  12.584  29.922  0.00  0.00     0.087 H 
ENDROOT
BRANCH   1   3
ATOM      3  N4  non d ame     -34.060  11.007  28.938  0.00  0.00    -0.346 N 
ATOM      4  C10 non d ame     -33.997  10.061  30.111  0.00  0.00     0.241 C 
ATOM      5  O4  non d ame     -33.259  10.275  31.016  0.00  0.00    -0.271 OA
ATOM      6  H19 non d ame     -34.679  10.841  28.157  0.00  0.00     0.163 HD
BRANCH   4   7
ATOM      7  C9  non d ame     -34.878   8.839  30.131  0.00  0.00     0.092 C 
ATOM      8  H11 non d ame     -35.869   9.106  29.762  0.00  0.00     0.088 H 
BRANCH   7   9
ATOM      9  N3  non d ame     -34.334   7.828  29.219  0.00  0.00    -0.346 N 
ATOM     10  C7  non d ame     -34.736   7.816  27.834  0.00  0.00     0.240 C 
ATOM     11  O3  non d ame     -35.498   8.611  27.437  0.00  0.00    -0.271 OA
ATOM     12  H10 non d ame     -33.677   7.135  29.548  0.00  0.00     0.163 HD
BRANCH  10  13
ATOM     13  C6  non d ame     -34.156   6.735  26.870  0.00  0.00     0.086 C 
ATOM     14  H6  non d ame     -34.878   6.405  26.123  0.00  0.00     0.086 H 
BRANCH  13  15
ATOM     15  N2  non d ame     -33.036   7.307  26.141  0.00  0.00    -0.343 N 
ATOM     16  C5  non d ame     -33.240   7.802  24.777  0.00  0.00     0.273 C 
ATOM     17  O2  non d ame     -34.307   7.733  24.275  0.00  0.00    -0.266 OA
ATOM     18  H5  non d ame     -32.126   7.360  26.577  0.00  0.00     0.163 HD
BRANCH  16  19
ATOM     19  C4  non d ame     -32.065   8.410  23.996  0.00  0.00     0.154 A 
ATOM     20  C1  non d ame     -31.843   9.794  23.706  0.00  0.00    -0.017 A 
ATOM     21  C2  non d ame     -30.637   9.823  22.971  0.00  0.00     0.077 A 
ATOM     22  H1  non d ame     -32.462  10.646  23.987  0.00  0.00     0.091 H 
ATOM     23  O1  non d ame     -30.223   8.595  22.858  0.00  0.00    -0.218 OA
ATOM     24  N1  non d ame     -31.039   7.752  23.448  0.00  0.00    -0.123 NA
BRANCH  21  25
ATOM     25  C3  non d ame     -29.950  11.062  22.414  0.00  0.00    -0.029 C 
ATOM     26  H2  non d ame     -30.218  11.187  21.366  0.00  0.00     0.036 H 
ATOM     27  H3  non d ame     -30.270  11.939  22.977  0.00  0.00     0.036 H 
ATOM     28  H4  non d ame     -28.869  10.949  22.502  0.00  0.00     0.036 H 
ENDBRANCH  21  25
ENDBRANCH  16  19
ENDBRANCH  13  15
BRANCH  13  29
ATOM     29  C8  non d ame     -33.698   5.541  27.667  0.00  0.00    -0.049 C 
ATOM     30  H7  non d ame     -33.571   4.687  27.001  0.00  0.00     0.030 H 
ATOM     31  H8  non d ame     -32.748   5.769  28.149  0.00  0.00     0.030 H 
ATOM     32  H9  non d ame     -34.443   5.302  28.425  0.00  0.00     0.030 H 
ENDBRANCH  13  29
ENDBRANCH  10  13
ENDBRANCH   7   9
BRANCH   7  33
ATOM     33  C11 non d ame     -34.928   8.259  31.575  0.00  0.00    -0.033 C 
ATOM     34  H12 non d ame     -33.955   8.435  32.033  0.00  0.00     0.042 H 
BRANCH  33  35
ATOM     35  C12 non d ame     -35.996   8.991  32.445  0.00  0.00    -0.071 C 
ATOM     36  H13 non d ame     -35.805   8.791  33.499  0.00  0.00     0.028 H 
ATOM     37  H14 non d ame     -35.940  10.064  32.263  0.00  0.00     0.028 H 
ATOM     38  H15 non d ame     -36.990   8.629  32.181  0.00  0.00     0.028 H 
ENDBRANCH  33  35
BRANCH  33  39
ATOM     39  C13 non d ame     -35.178   6.717  31.549  0.00  0.00    -0.071 C 
ATOM     40  H16 non d ame     -36.249   6.522  31.598  0.00  0.00     0.028 H 
ATOM     41  H17 non d ame     -34.773   6.298  30.628  0.00  0.00     0.028 H 
ATOM     42  H18 non d ame     -34.685   6.255  32.405  0.00  0.00     0.028 H 
ENDBRANCH  33  39
ENDBRANCH   7  33
ENDBRANCH   4   7
ENDBRANCH   1   3
BRANCH   1  43
ATOM     43  C15 non d ame     -33.847  13.219  27.918  0.00  0.00     0.240 C 
ATOM     44  O5  non d ame     -34.683  12.864  27.151  0.00  0.00    -0.271 OA
ATOM     45  N6  non d ame     -33.412  14.644  27.934  0.00  0.00    -0.355 N 
ATOM     46  H46 non d ame     -32.706  14.958  28.584  0.00  0.00     0.162 HD
BRANCH  45  47
ATOM     47  C20 non d ame     -34.020  15.607  26.990  0.00  0.00     0.013 C 
ATOM     48  H30 non d ame     -33.616  16.594  27.211  0.00  0.00     0.072 H 
BRANCH  47  49
ATOM     49  C21 non d ame     -35.521  15.610  27.177  0.00  0.00    -0.038 C 
ATOM     50  H31 non d ame     -35.777  14.608  27.521  0.00  0.00     0.036 H 
ATOM     51  H32 non d ame     -35.737  16.474  27.805  0.00  0.00     0.036 H 
BRANCH  49  52
ATOM     52  C22 non d ame     -36.289  15.827  25.855  0.00  0.00     0.018 C 
ATOM     53  H33 non d ame     -35.555  16.211  25.147  0.00  0.00     0.048 H 
ATOM     54  H34 non d ame     -36.801  14.886  25.653  0.00  0.00     0.048 H 
BRANCH  52  55
ATOM     55  C23 non d ame     -37.401  16.909  25.947  0.00  0.00     0.259 C 
ATOM     56  O7  non d ame     -38.280  16.940  25.148  0.00  0.00    -0.265 OA
BRANCH  55  57
ATOM     57  O8  non d ame     -37.350  17.873  26.992  0.00  0.00    -0.317 OA
BRANCH  57  58
ATOM     58  C29 non d ame     -36.931  19.172  26.565  0.00  0.00     0.052 C 
ATOM     59  H47 non d ame     -37.209  19.241  25.514  0.00  0.00     0.082 H 
ATOM     60  H48 non d ame     -37.353  19.870  27.288  0.00  0.00     0.082 H 
BRANCH  58  61
ATOM     61  C35 non d ame     -35.384  19.234  26.669  0.00  0.00    -0.034 A 
ATOM     62  C30 non d ame     -34.771  19.296  27.917  0.00  0.00    -0.075 A 
ATOM     63  C31 non d ame     -33.381  19.352  28.011  0.00  0.00    -0.082 A 
ATOM     64  H49 non d ame     -35.380  19.302  28.821  0.00  0.00     0.084 H 
ATOM     65  C32 non d ame     -32.603  19.348  26.850  0.00  0.00    -0.083 A 
ATOM     66  H50 non d ame     -32.904  19.400  28.990  0.00  0.00     0.083 H 
ATOM     67  C33 non d ame     -33.219  19.289  25.607  0.00  0.00    -0.082 A 
ATOM     68  H51 non d ame     -31.516  19.391  26.914  0.00  0.00     0.083 H 
ATOM     69  C34 non d ame     -34.607  19.231  25.509  0.00  0.00    -0.075 A 
ATOM     70  H52 non d ame     -32.609  19.289  24.703  0.00  0.00     0.083 H 
ATOM     71  H53 non d ame     -35.084  19.184  24.529  0.00  0.00     0.084 H 
ENDBRANCH  58  61
ENDBRANCH  57  58
ENDBRANCH  55  57
ENDBRANCH  52  55
ENDBRANCH  49  52
ENDBRANCH  47  49
BRANCH  47  72
ATOM     72  C24 non d ame     -33.686  15.204  25.555  0.00  0.00    -0.039 C 
ATOM     73  H35 non d ame     -33.974  14.156  25.473  0.00  0.00     0.036 H 
ATOM     74  H36 non d ame     -34.166  15.952  24.925  0.00  0.00     0.036 H 
BRANCH  72  75
ATOM     75  C25 non d ame     -32.112  15.285  25.269  0.00  0.00    -0.001 C 
ATOM     76  C26 non d ame     -31.823  16.303  24.010  0.00  0.00    -0.035 C 
ATOM     77  C27 non d ame     -31.037  15.669  23.108  0.00  0.00     0.085 C 
ATOM     78  H38 non d ame     -32.745  16.487  23.460  0.00  0.00     0.036 H 
ATOM     79  H39 non d ame     -31.209  17.141  24.340  0.00  0.00     0.036 H 
ATOM     80  N5  non d ame     -31.032  14.206  23.478  0.00  0.00    -0.049 N 
ATOM     81  H40 non d ame     -31.538  15.792  22.148  0.00  0.00     0.075 H 
ATOM     82  H41 non d ame     -30.037  16.076  23.256  0.00  0.00     0.075 H 
ATOM     83  C28 non d ame     -31.630  14.124  24.975  0.00  0.00     0.193 C 
ATOM     84  H42 non d ame     -31.676  13.749  22.848  0.00  0.00     0.280 HD
ATOM     85  H43 non d ame     -30.063  13.921  23.502  0.00  0.00     0.280 HD
ATOM     86  H44 non d ame     -30.969  13.962  25.827  0.00  0.00     0.129 H 
ATOM     87  H37 non d ame     -31.534  15.446  26.179  0.00  0.00     0.046 H 
BRANCH  83  88
ATOM     88  O6  non d ame     -32.617  13.094  25.056  0.00  0.00    -0.369 OA
ATOM     89  H45 non d ame     -32.388  12.486  25.763  0.00  0.00     0.212 HD
ENDBRANCH  83  88
ENDBRANCH  72  75
ENDBRANCH  47  72
ENDBRANCH  45  47
ENDBRANCH   1  43
BRANCH   1  90
ATOM     90  C16 non d ame     -31.830  11.805  28.424  0.00  0.00    -0.035 C 
ATOM     91  H21 non d ame     -31.725  10.749  28.668  0.00  0.00     0.037 H 
ATOM     92  H22 non d ame     -31.783  12.132  27.385  0.00  0.00     0.037 H 
BRANCH  90  93
ATOM     93  C17 non d ame     -30.677  12.547  29.173  0.00  0.00    -0.059 C 
ATOM     94  H23 non d ame     -29.795  11.909  29.135  0.00  0.00     0.038 H 
BRANCH  93  95
ATOM     95  C18 non d ame     -30.312  13.906  28.494  0.00  0.00    -0.073 C 
ATOM     96  H24 non d ame     -29.301  14.194  28.779  0.00  0.00     0.028 H 
ATOM     97  H25 non d ame     -30.366  13.797  27.411  0.00  0.00     0.028 H 
ATOM     98  H26 non d ame     -31.014  14.674  28.817  0.00  0.00     0.028 H 
ENDBRANCH  93  95
BRANCH  93  99
ATOM     99  C19 non d ame     -31.027  12.753  30.649  0.00  0.00    -0.073 C 
ATOM    100  H27 non d ame     -31.915  13.382  30.728  0.00  0.00     0.028 H 
ATOM    101  H28 non d ame     -31.225  11.786  31.114  0.00  0.00     0.028 H 
ATOM    102  H29 non d ame     -30.193  13.235  31.156  0.00  0.00     0.028 H 
ENDBRANCH  93  99
ENDBRANCH  90  93
ENDBRANCH   1  90
TORSDOF 26
ENDMDL
MODEL 13
REMARK VINA RESULT:      -6.2      3.207      7.630
REMARK  26 active torsions:
REMARK  status: ('A' for Active; 'I' for Inactive)
REMARK    1  A    between atoms: C2_2  and  C3_3 
REMARK    2  A    between atoms: C4_6  and  C5_7 
REMARK       I    between atoms: C5_7  and  N2_9 
REMARK    3  A    between atoms: N2_9  and  C6_10 
REMARK    4  A    between atoms: C6_10  and  C7_11 
REMARK    5  A    between atoms: C6_10  and  C8_13 
REMARK       I    between atoms: C7_11  and  N3_14 
REMARK    6  A    between atoms: N3_14  and  C9_15 
REMARK    7  A    between atoms: C9_15  and  C10_16 
REMARK    8  A    between atoms: C9_15  and  C11_18 
REMARK       I    between atoms: C10_16  and  N4_21 
REMARK    9  A    between atoms: C11_18  and  C12_19 
REMARK   10  A    between atoms: C11_18  and  C13_20 
REMARK   11  A    between atoms: N4_21  and  C14_22 
REMARK   12  A    between atoms: C14_22  and  C15_23 
REMARK   13  A    between atoms: C14_22  and  C16_25 
REMARK       I    between atoms: C15_23  and  N6_40 
REMARK   14  A    between atoms: C16_25  and  C17_26 
REMARK   15  A    between atoms: C17_26  and  C18_27 
REMARK   16  A    between atoms: C17_26  and  C19_28 
REMARK   17  A    between atoms: C20_29  and  C21_30 
REMARK   18  A    between atoms: C20_29  and  C24_33 
REMARK   19  A    between atoms: C20_29  and  N6_40 
REMARK   20  A    between atoms: C21_30  and  C22_31 
REMARK   21  A    between atoms: C22_31  and  C23_32 
REMARK   22  A    between atoms: C23_32  and  O8_43 
REMARK   23  A    between atoms: C24_33  and  C25_34 
REMARK   24  A    between atoms: C28_38  and  O6_39 
REMARK   25  A    between atoms: C29_42  and  O8_43 
REMARK   26  A    between atoms: C29_42  and  C35_49 
ROOT
ATOM      1  C14 non d ame     -32.560  12.273  25.715  0.00  0.00     0.089 C 
ATOM      2  H20 non d ame     -31.571  11.818  25.654  0.00  0.00     0.087 H 
ENDROOT
BRANCH   1   3
ATOM      3  N4  non d ame     -33.490  11.397  25.018  0.00  0.00    -0.346 N 
ATOM      4  C10 non d ame     -33.452   9.908  25.248  0.00  0.00     0.241 C 
ATOM      5  O4  non d ame     -32.662   9.436  25.998  0.00  0.00    -0.271 OA
ATOM      6  H19 non d ame     -34.153  11.818  24.382  0.00  0.00     0.163 HD
BRANCH   4   7
ATOM      7  C9  non d ame     -34.426   9.017  24.522  0.00  0.00     0.092 C 
ATOM      8  H11 non d ame     -34.328   9.180  23.448  0.00  0.00     0.088 H 
BRANCH   7   9
ATOM      9  N3  non d ame     -34.090   7.613  24.780  0.00  0.00    -0.346 N 
ATOM     10  C7  non d ame     -33.459   6.823  23.751  0.00  0.00     0.240 C 
ATOM     11  O3  non d ame     -33.216   7.300  22.711  0.00  0.00    -0.271 OA
ATOM     12  H10 non d ame     -34.296   7.188  25.672  0.00  0.00     0.163 HD
BRANCH  10  13
ATOM     13  C6  non d ame     -33.108   5.328  24.031  0.00  0.00     0.086 C 
ATOM     14  H6  non d ame     -32.037   5.131  23.984  0.00  0.00     0.086 H 
BRANCH  13  15
ATOM     15  N2  non d ame     -33.535   4.987  25.377  0.00  0.00    -0.343 N 
ATOM     16  C5  non d ame     -32.770   5.484  26.524  0.00  0.00     0.273 C 
ATOM     17  O2  non d ame     -31.812   6.154  26.352  0.00  0.00    -0.266 OA
ATOM     18  H5  non d ame     -34.354   4.412  25.515  0.00  0.00     0.163 HD
BRANCH  16  19
ATOM     19  C4  non d ame     -33.211   5.132  27.953  0.00  0.00     0.154 A 
ATOM     20  C1  non d ame     -32.426   4.503  28.971  0.00  0.00    -0.017 A 
ATOM     21  C2  non d ame     -33.286   4.407  30.087  0.00  0.00     0.077 A 
ATOM     22  H1  non d ame     -31.390   4.167  28.908  0.00  0.00     0.091 H 
ATOM     23  O1  non d ame     -34.428   4.925  29.741  0.00  0.00    -0.218 OA
ATOM     24  N1  non d ame     -34.410   5.355  28.501  0.00  0.00    -0.123 NA
BRANCH  21  25
ATOM     25  C3  non d ame     -32.939   3.809  31.444  0.00  0.00    -0.029 C 
ATOM     26  H2  non d ame     -33.855   3.611  31.999  0.00  0.00     0.036 H 
ATOM     27  H3  non d ame     -32.392   2.878  31.301  0.00  0.00     0.036 H 
ATOM     28  H4  non d ame     -32.320   4.511  32.003  0.00  0.00     0.036 H 
ENDBRANCH  21  25
ENDBRANCH  16  19
ENDBRANCH  13  15
BRANCH  13  29
ATOM     29  C8  non d ame     -33.810   4.448  23.028  0.00  0.00    -0.049 C 
ATOM     30  H7  non d ame     -33.885   3.436  23.424  0.00  0.00     0.030 H 
ATOM     31  H8  non d ame     -34.809   4.840  22.838  0.00  0.00     0.030 H 
ATOM     32  H9  non d ame     -33.242   4.433  22.097  0.00  0.00     0.030 H 
ENDBRANCH  13  29
ENDBRANCH  10  13
ENDBRANCH   7   9
BRANCH   7  33
ATOM     33  C11 non d ame     -35.869   9.304  25.029  0.00  0.00    -0.033 C 
ATOM     34  H12 non d ame     -35.786   9.899  25.939  0.00  0.00     0.042 H 
BRANCH  33  35
ATOM     35  C12 non d ame     -36.680  10.143  23.993  0.00  0.00    -0.071 C 
ATOM     36  H13 non d ame     -37.231   9.472  23.334  0.00  0.00     0.028 H 
ATOM     37  H14 non d ame     -37.379  10.792  24.518  0.00  0.00     0.028 H 
ATOM     38  H15 non d ame     -35.994  10.750  23.401  0.00  0.00     0.028 H 
ENDBRANCH  33  35
BRANCH  33  39
ATOM     39  C13 non d ame     -36.611   7.976  25.387  0.00  0.00    -0.071 C 
ATOM     40  H16 non d ame     -37.119   8.091  26.345  0.00  0.00     0.028 H 
ATOM     41  H17 non d ame     -37.343   7.748  24.611  0.00  0.00     0.028 H 
ATOM     42  H18 non d ame     -35.888   7.163  25.454  0.00  0.00     0.028 H 
ENDBRANCH  33  39
ENDBRANCH   7  33
ENDBRANCH   4   7
ENDBRANCH   1   3
BRANCH   1  43
ATOM     43  C15 non d ame     -33.041  12.436  27.186  0.00  0.00     0.240 C 
ATOM     44  O5  non d ame     -34.050  13.020  27.416  0.00  0.00    -0.271 OA
ATOM     45  N6  non d ame     -32.247  11.855  28.306  0.00  0.00    -0.355 N 
ATOM     46  H46 non d ame     -31.391  11.353  28.123  0.00  0.00     0.162 HD
BRANCH  45  47
ATOM     47  C20 non d ame     -32.719  12.017  29.699  0.00  0.00     0.013 C 
ATOM     48  H30 non d ame     -33.700  12.492  29.668  0.00  0.00     0.072 H 
BRANCH  47  49
ATOM     49  C21 non d ame     -31.746  12.891  30.457  0.00  0.00    -0.038 C 
ATOM     50  H31 non d ame     -32.357  13.515  31.110  0.00  0.00     0.036 H 
ATOM     51  H32 non d ame     -31.011  12.209  30.886  0.00  0.00     0.036 H 
BRANCH  49  52
ATOM     52  C22 non d ame     -30.964  13.855  29.539  0.00  0.00     0.018 C 
ATOM     53  H33 non d ame     -29.911  13.625  29.698  0.00  0.00     0.048 H 
ATOM     54  H34 non d ame     -31.403  13.739  28.548  0.00  0.00     0.048 H 
BRANCH  52  55
ATOM     55  C23 non d ame     -31.136  15.353  29.912  0.00  0.00     0.259 C 
ATOM     56  O7  non d ame     -30.316  15.909  30.568  0.00  0.00    -0.265 OA
BRANCH  55  57
ATOM     57  O8  non d ame     -32.293  16.053  29.471  0.00  0.00    -0.317 OA
BRANCH  57  58
ATOM     58  C29 non d ame     -32.514  15.982  28.059  0.00  0.00     0.052 C 
ATOM     59  H47 non d ame     -31.585  15.600  27.635  0.00  0.00     0.082 H 
ATOM     60  H48 non d ame     -33.441  15.423  27.933  0.00  0.00     0.082 H 
BRANCH  58  61
ATOM     61  C35 non d ame     -32.736  17.426  27.536  0.00  0.00    -0.034 A 
ATOM     62  C30 non d ame     -32.565  18.511  28.391  0.00  0.00    -0.075 A 
ATOM     63  C31 non d ame     -32.765  19.808  27.921  0.00  0.00    -0.082 A 
ATOM     64  H49 non d ame     -32.274  18.344  29.428  0.00  0.00     0.084 H 
ATOM     65  C32 non d ame     -33.141  20.019  26.592  0.00  0.00    -0.083 A 
ATOM     66  H50 non d ame     -32.628  20.656  28.593  0.00  0.00     0.083 H 
ATOM     67  C33 non d ame     -33.314  18.933  25.744  0.00  0.00    -0.082 A 
ATOM     68  H51 non d ame     -33.298  21.030  26.217  0.00  0.00     0.083 H 
ATOM     69  C34 non d ame     -33.113  17.635  26.208  0.00  0.00    -0.075 A 
ATOM     70  H52 non d ame     -33.609  19.101  24.708  0.00  0.00     0.083 H 
ATOM     71  H53 non d ame     -33.249  16.788  25.536  0.00  0.00     0.084 H 
ENDBRANCH  58  61
ENDBRANCH  57  58
ENDBRANCH  55  57
ENDBRANCH  52  55
ENDBRANCH  49  52
ENDBRANCH  47  49
BRANCH  47  72
ATOM     72  C24 non d ame     -32.812  10.651  30.375  0.00  0.00    -0.039 C 
ATOM     73  H35 non d ame     -32.136  10.004  29.815  0.00  0.00     0.036 H 
ATOM     74  H36 non d ame     -32.634  10.839  31.434  0.00  0.00     0.036 H 
BRANCH  72  75
ATOM     75  C25 non d ame     -34.280  10.024  30.246  0.00  0.00    -0.001 C 
ATOM     76  C26 non d ame     -34.795   9.496  31.716  0.00  0.00    -0.035 C 
ATOM     77  C27 non d ame     -35.222   8.216  31.594  0.00  0.00     0.085 C 
ATOM     78  H38 non d ame     -33.951   9.418  32.401  0.00  0.00     0.036 H 
ATOM     79  H39 non d ame     -35.693  10.037  32.014  0.00  0.00     0.036 H 
ATOM     80  N5  non d ame     -34.744   7.716  30.252  0.00  0.00    -0.049 N 
ATOM     81  H40 non d ame     -34.712   7.663  32.382  0.00  0.00     0.075 H 
ATOM     82  H41 non d ame     -36.310   8.272  31.584  0.00  0.00     0.075 H 
ATOM     83  C28 non d ame     -34.293   9.027  29.425  0.00  0.00     0.193 C 
ATOM     84  H42 non d ame     -33.925   7.152  30.432  0.00  0.00     0.280 HD
ATOM     85  H43 non d ame     -35.548   7.309  29.796  0.00  0.00     0.280 HD
ATOM     86  H44 non d ame     -34.928   9.429  28.635  0.00  0.00     0.129 H 
ATOM     87  H37 non d ame     -34.957  10.670  29.686  0.00  0.00     0.046 H 
BRANCH  83  88
ATOM     88  O6  non d ame     -33.017   8.813  28.818  0.00  0.00    -0.369 OA
ATOM     89  H45 non d ame     -32.781   9.579  28.290  0.00  0.00     0.212 HD
ENDBRANCH  83  88
ENDBRANCH  72  75
ENDBRANCH  47  72
ENDBRANCH  45  47
ENDBRANCH   1  43
BRANCH   1  90
ATOM     90  C16 non d ame     -32.546  13.630  25.029  0.00  0.00    -0.035 C 
ATOM     91  H21 non d ame     -33.152  13.505  24.132  0.00  0.00     0.037 H 
ATOM     92  H22 non d ame     -32.848  14.344  25.796  0.00  0.00     0.037 H 
BRANCH  90  93
ATOM     93  C17 non d ame     -31.128  14.073  24.546  0.00  0.00    -0.059 C 
ATOM     94  H23 non d ame     -30.469  14.076  25.414  0.00  0.00     0.038 H 
BRANCH  93  95
ATOM     95  C18 non d ame     -30.528  13.084  23.495  0.00  0.00    -0.073 C 
ATOM     96  H24 non d ame     -30.075  13.650  22.682  0.00  0.00     0.028 H 
ATOM     97  H25 non d ame     -29.770  12.464  23.972  0.00  0.00     0.028 H 
ATOM     98  H26 non d ame     -31.321  12.450  23.100  0.00  0.00     0.028 H 
ENDBRANCH  93  95
BRANCH  93  99
ATOM     99  C19 non d ame     -31.161  15.500  23.994  0.00  0.00    -0.073 C 
ATOM    100  H27 non d ame     -30.222  16.003  24.231  0.00  0.00     0.028 H 
ATOM    101  H28 non d ame     -31.293  15.470  22.912  0.00  0.00     0.028 H 
ATOM    102  H29 non d ame     -31.989  16.046  24.445  0.00  0.00     0.028 H 
ENDBRANCH  93  99
ENDBRANCH  90  93
ENDBRANCH   1  90
TORSDOF 26
ENDMDL
MODEL 14
REMARK VINA RESULT:      -6.2      3.029      9.349
REMARK  26 active torsions:
REMARK  status: ('A' for Active; 'I' for Inactive)
REMARK    1  A    between atoms: C2_2  and  C3_3 
REMARK    2  A    between atoms: C4_6  and  C5_7 
REMARK       I    between atoms: C5_7  and  N2_9 
REMARK    3  A    between atoms: N2_9  and  C6_10 
REMARK    4  A    between atoms: C6_10  and  C7_11 
REMARK    5  A    between atoms: C6_10  and  C8_13 
REMARK       I    between atoms: C7_11  and  N3_14 
REMARK    6  A    between atoms: N3_14  and  C9_15 
REMARK    7  A    between atoms: C9_15  and  C10_16 
REMARK    8  A    between atoms: C9_15  and  C11_18 
REMARK       I    between atoms: C10_16  and  N4_21 
REMARK    9  A    between atoms: C11_18  and  C12_19 
REMARK   10  A    between atoms: C11_18  and  C13_20 
REMARK   11  A    between atoms: N4_21  and  C14_22 
REMARK   12  A    between atoms: C14_22  and  C15_23 
REMARK   13  A    between atoms: C14_22  and  C16_25 
REMARK       I    between atoms: C15_23  and  N6_40 
REMARK   14  A    between atoms: C16_25  and  C17_26 
REMARK   15  A    between atoms: C17_26  and  C18_27 
REMARK   16  A    between atoms: C17_26  and  C19_28 
REMARK   17  A    between atoms: C20_29  and  C21_30 
REMARK   18  A    between atoms: C20_29  and  C24_33 
REMARK   19  A    between atoms: C20_29  and  N6_40 
REMARK   20  A    between atoms: C21_30  and  C22_31 
REMARK   21  A    between atoms: C22_31  and  C23_32 
REMARK   22  A    between atoms: C23_32  and  O8_43 
REMARK   23  A    between atoms: C24_33  and  C25_34 
REMARK   24  A    between atoms: C28_38  and  O6_39 
REMARK   25  A    between atoms: C29_42  and  O8_43 
REMARK   26  A    between atoms: C29_42  and  C35_49 
ROOT
ATOM      1  C14 non d ame     -34.173   6.592  28.389  0.00  0.00     0.089 C 
ATOM      2  H20 non d ame     -33.656   6.315  29.309  0.00  0.00     0.087 H 
ENDROOT
BRANCH   1   3
ATOM      3  N4  non d ame     -34.701   7.936  28.571  0.00  0.00    -0.346 N 
ATOM      4  C10 non d ame     -34.814   8.529  29.953  0.00  0.00     0.241 C 
ATOM      5  O4  non d ame     -34.477   7.904  30.904  0.00  0.00    -0.271 OA
ATOM      6  H19 non d ame     -34.984   8.450  27.749  0.00  0.00     0.163 HD
BRANCH   4   7
ATOM      7  C9  non d ame     -35.358   9.924  30.122  0.00  0.00     0.092 C 
ATOM      8  H11 non d ame     -35.513  10.122  31.182  0.00  0.00     0.088 H 
BRANCH   7   9
ATOM      9  N3  non d ame     -34.371  10.895  29.640  0.00  0.00    -0.346 N 
ATOM     10  C7  non d ame     -33.320  11.350  30.517  0.00  0.00     0.240 C 
ATOM     11  O3  non d ame     -33.255  10.947  31.613  0.00  0.00    -0.271 OA
ATOM     12  H10 non d ame     -34.416  11.253  28.697  0.00  0.00     0.163 HD
BRANCH  10  13
ATOM     13  C6  non d ame     -32.275  12.386  29.999  0.00  0.00     0.086 C 
ATOM     14  H6  non d ame     -31.830  12.097  29.047  0.00  0.00     0.086 H 
BRANCH  13  15
ATOM     15  N2  non d ame     -32.942  13.658  29.776  0.00  0.00    -0.343 N 
ATOM     16  C5  non d ame     -32.458  14.552  28.722  0.00  0.00     0.273 C 
ATOM     17  O2  non d ame     -31.530  14.240  28.060  0.00  0.00    -0.266 OA
ATOM     18  H5  non d ame     -33.734  13.918  30.348  0.00  0.00     0.163 HD
BRANCH  16  19
ATOM     19  C4  non d ame     -33.155  15.899  28.474  0.00  0.00     0.154 A 
ATOM     20  C1  non d ame     -34.462  16.109  27.930  0.00  0.00    -0.017 A 
ATOM     21  C2  non d ame     -34.626  17.512  27.910  0.00  0.00     0.077 A 
ATOM     22  H1  non d ame     -35.181  15.359  27.600  0.00  0.00     0.091 H 
ATOM     23  O1  non d ame     -33.536  18.037  28.390  0.00  0.00    -0.218 OA
ATOM     24  N1  non d ame     -32.663  17.115  28.726  0.00  0.00    -0.123 NA
BRANCH  21  25
ATOM     25  C3  non d ame     -35.852  18.270  27.418  0.00  0.00    -0.029 C 
ATOM     26  H2  non d ame     -36.715  17.998  28.026  0.00  0.00     0.036 H 
ATOM     27  H3  non d ame     -35.674  19.342  27.501  0.00  0.00     0.036 H 
ATOM     28  H4  non d ame     -36.045  18.013  26.377  0.00  0.00     0.036 H 
ENDBRANCH  21  25
ENDBRANCH  16  19
ENDBRANCH  13  15
BRANCH  13  29
ATOM     29  C8  non d ame     -31.178  12.551  31.019  0.00  0.00    -0.049 C 
ATOM     30  H7  non d ame     -30.507  11.692  30.973  0.00  0.00     0.030 H 
ATOM     31  H8  non d ame     -30.618  13.461  30.807  0.00  0.00     0.030 H 
ATOM     32  H9  non d ame     -31.615  12.616  32.016  0.00  0.00     0.030 H 
ENDBRANCH  13  29
ENDBRANCH  10  13
ENDBRANCH   7   9
BRANCH   7  33
ATOM     33  C11 non d ame     -36.671  10.071  29.300  0.00  0.00    -0.033 C 
ATOM     34  H12 non d ame     -36.961   9.076  28.961  0.00  0.00     0.042 H 
BRANCH  33  35
ATOM     35  C12 non d ame     -37.835  10.624  30.181  0.00  0.00    -0.071 C 
ATOM     36  H13 non d ame     -37.848  10.098  31.136  0.00  0.00     0.028 H 
ATOM     37  H14 non d ame     -37.684  11.689  30.355  0.00  0.00     0.028 H 
ATOM     38  H15 non d ame     -38.784  10.470  29.669  0.00  0.00     0.028 H 
ENDBRANCH  33  35
BRANCH  33  39
ATOM     39  C13 non d ame     -36.444  10.964  28.037  0.00  0.00    -0.071 C 
ATOM     40  H16 non d ame     -36.100  10.342  27.210  0.00  0.00     0.028 H 
ATOM     41  H17 non d ame     -37.381  11.450  27.762  0.00  0.00     0.028 H 
ATOM     42  H18 non d ame     -35.694  11.723  28.259  0.00  0.00     0.028 H 
ENDBRANCH  33  39
ENDBRANCH   7  33
ENDBRANCH   4   7
ENDBRANCH   1   3
BRANCH   1  43
ATOM     43  C15 non d ame     -33.221   6.596  27.159  0.00  0.00     0.240 C 
ATOM     44  O5  non d ame     -32.314   5.829  27.111  0.00  0.00    -0.271 OA
ATOM     45  N6  non d ame     -33.446   7.550  26.036  0.00  0.00    -0.355 N 
ATOM     46  H46 non d ame     -34.216   8.202  26.063  0.00  0.00     0.162 HD
BRANCH  45  47
ATOM     47  C20 non d ame     -32.533   7.540  24.872  0.00  0.00     0.013 C 
ATOM     48  H30 non d ame     -31.592   7.089  25.187  0.00  0.00     0.072 H 
BRANCH  47  49
ATOM     49  C21 non d ame     -32.296   8.960  24.411  0.00  0.00    -0.038 C 
ATOM     50  H31 non d ame     -31.218   9.052  24.282  0.00  0.00     0.036 H 
ATOM     51  H32 non d ame     -32.962   9.108  23.561  0.00  0.00     0.036 H 
BRANCH  49  52
ATOM     52  C22 non d ame     -32.700  10.009  25.470  0.00  0.00     0.018 C 
ATOM     53  H33 non d ame     -33.474  10.617  25.003  0.00  0.00     0.048 H 
ATOM     54  H34 non d ame     -32.922   9.444  26.375  0.00  0.00     0.048 H 
BRANCH  52  55
ATOM     55  C23 non d ame     -31.555  10.991  25.847  0.00  0.00     0.259 C 
ATOM     56  O7  non d ame     -31.155  11.049  26.964  0.00  0.00    -0.265 OA
BRANCH  55  57
ATOM     57  O8  non d ame     -30.998  11.830  24.843  0.00  0.00    -0.317 OA
BRANCH  57  58
ATOM     58  C29 non d ame     -31.547  13.151  24.818  0.00  0.00     0.052 C 
ATOM     59  H47 non d ame     -32.616  13.024  24.649  0.00  0.00     0.082 H 
ATOM     60  H48 non d ame     -31.193  13.635  25.729  0.00  0.00     0.082 H 
BRANCH  58  61
ATOM     61  C35 non d ame     -30.943  13.898  23.600  0.00  0.00    -0.034 A 
ATOM     62  C30 non d ame     -31.263  15.233  23.371  0.00  0.00    -0.075 A 
ATOM     63  C31 non d ame     -30.721  15.904  22.277  0.00  0.00    -0.082 A 
ATOM     64  H49 non d ame     -31.940  15.753  24.050  0.00  0.00     0.084 H 
ATOM     65  C32 non d ame     -29.856  15.235  21.406  0.00  0.00    -0.083 A 
ATOM     66  H50 non d ame     -30.973  16.950  22.101  0.00  0.00     0.083 H 
ATOM     67  C33 non d ame     -29.542  13.902  21.636  0.00  0.00    -0.082 A 
ATOM     68  H51 non d ame     -29.427  15.752  20.548  0.00  0.00     0.083 H 
ATOM     69  C34 non d ame     -30.080  13.228  22.730  0.00  0.00    -0.075 A 
ATOM     70  H52 non d ame     -28.868  13.382  20.954  0.00  0.00     0.083 H 
ATOM     71  H53 non d ame     -29.827  12.182  22.905  0.00  0.00     0.084 H 
ENDBRANCH  58  61
ENDBRANCH  57  58
ENDBRANCH  55  57
ENDBRANCH  52  55
ENDBRANCH  49  52
ENDBRANCH  47  49
BRANCH  47  72
ATOM     72  C24 non d ame     -33.154   6.732  23.735  0.00  0.00    -0.039 C 
ATOM     73  H35 non d ame     -33.214   5.708  24.106  0.00  0.00     0.036 H 
ATOM     74  H36 non d ame     -34.065   7.266  23.463  0.00  0.00     0.036 H 
BRANCH  72  75
ATOM     75  C25 non d ame     -32.213   6.711  22.439  0.00  0.00    -0.001 C 
ATOM     76  C26 non d ame     -32.933   7.533  21.210  0.00  0.00    -0.035 C 
ATOM     77  C27 non d ame     -32.937   6.750  20.105  0.00  0.00     0.085 C 
ATOM     78  H38 non d ame     -33.992   7.675  21.426  0.00  0.00     0.036 H 
ATOM     79  H39 non d ame     -32.317   8.384  20.918  0.00  0.00     0.036 H 
ATOM     80  N5  non d ame     -32.582   5.353  20.552  0.00  0.00    -0.049 N 
ATOM     81  H40 non d ame     -33.966   6.758  19.746  0.00  0.00     0.075 H 
ATOM     82  H41 non d ame     -32.137   7.135  19.474  0.00  0.00     0.075 H 
ATOM     83  C28 non d ame     -31.986   5.502  22.045  0.00  0.00     0.193 C 
ATOM     84  H42 non d ame     -33.450   4.839  20.602  0.00  0.00     0.280 HD
ATOM     85  H43 non d ame     -31.842   5.036  19.941  0.00  0.00     0.280 HD
ATOM     86  H44 non d ame     -30.913   5.434  22.223  0.00  0.00     0.129 H 
ATOM     87  H37 non d ame     -31.181   6.974  22.674  0.00  0.00     0.046 H 
BRANCH  83  88
ATOM     88  O6  non d ame     -32.579   4.533  22.912  0.00  0.00    -0.369 OA
ATOM     89  H45 non d ame     -32.935   4.972  23.688  0.00  0.00     0.212 HD
ENDBRANCH  83  88
ENDBRANCH  72  75
ENDBRANCH  47  72
ENDBRANCH  45  47
ENDBRANCH   1  43
BRANCH   1  90
ATOM     90  C16 non d ame     -35.327   5.635  28.140  0.00  0.00    -0.035 C 
ATOM     91  H21 non d ame     -35.183   5.268  27.124  0.00  0.00     0.037 H 
ATOM     92  H22 non d ame     -35.311   4.938  28.979  0.00  0.00     0.037 H 
BRANCH  90  93
ATOM     93  C17 non d ame     -36.729   6.323  28.165  0.00  0.00    -0.059 C 
ATOM     94  H23 non d ame     -36.584   7.356  28.483  0.00  0.00     0.038 H 
BRANCH  93  95
ATOM     95  C18 non d ame     -37.398   6.348  26.754  0.00  0.00    -0.073 C 
ATOM     96  H24 non d ame     -36.679   6.703  26.016  0.00  0.00     0.028 H 
ATOM     97  H25 non d ame     -37.724   5.343  26.488  0.00  0.00     0.028 H 
ATOM     98  H26 non d ame     -38.259   7.016  26.772  0.00  0.00     0.028 H 
ENDBRANCH  93  95
BRANCH  93  99
ATOM     99  C19 non d ame     -37.647   5.656  29.192  0.00  0.00    -0.073 C 
ATOM    100  H27 non d ame     -37.043   5.189  29.971  0.00  0.00     0.028 H 
ATOM    101  H28 non d ame     -38.299   6.407  29.640  0.00  0.00     0.028 H 
ATOM    102  H29 non d ame     -38.254   4.898  28.698  0.00  0.00     0.028 H 
ENDBRANCH  93  99
ENDBRANCH  90  93
ENDBRANCH   1  90
TORSDOF 26
ENDMDL
MODEL 15
REMARK VINA RESULT:      -6.2      1.869      3.060
REMARK  26 active torsions:
REMARK  status: ('A' for Active; 'I' for Inactive)
REMARK    1  A    between atoms: C2_2  and  C3_3 
REMARK    2  A    between atoms: C4_6  and  C5_7 
REMARK       I    between atoms: C5_7  and  N2_9 
REMARK    3  A    between atoms: N2_9  and  C6_10 
REMARK    4  A    between atoms: C6_10  and  C7_11 
REMARK    5  A    between atoms: C6_10  and  C8_13 
REMARK       I    between atoms: C7_11  and  N3_14 
REMARK    6  A    between atoms: N3_14  and  C9_15 
REMARK    7  A    between atoms: C9_15  and  C10_16 
REMARK    8  A    between atoms: C9_15  and  C11_18 
REMARK       I    between atoms: C10_16  and  N4_21 
REMARK    9  A    between atoms: C11_18  and  C12_19 
REMARK   10  A    between atoms: C11_18  and  C13_20 
REMARK   11  A    between atoms: N4_21  and  C14_22 
REMARK   12  A    between atoms: C14_22  and  C15_23 
REMARK   13  A    between atoms: C14_22  and  C16_25 
REMARK       I    between atoms: C15_23  and  N6_40 
REMARK   14  A    between atoms: C16_25  and  C17_26 
REMARK   15  A    between atoms: C17_26  and  C18_27 
REMARK   16  A    between atoms: C17_26  and  C19_28 
REMARK   17  A    between atoms: C20_29  and  C21_30 
REMARK   18  A    between atoms: C20_29  and  C24_33 
REMARK   19  A    between atoms: C20_29  and  N6_40 
REMARK   20  A    between atoms: C21_30  and  C22_31 
REMARK   21  A    between atoms: C22_31  and  C23_32 
REMARK   22  A    between atoms: C23_32  and  O8_43 
REMARK   23  A    between atoms: C24_33  and  C25_34 
REMARK   24  A    between atoms: C28_38  and  O6_39 
REMARK   25  A    between atoms: C29_42  and  O8_43 
REMARK   26  A    between atoms: C29_42  and  C35_49 
ROOT
ATOM      1  C14 non d ame     -30.925  14.001  24.084  0.00  0.00     0.089 C 
ATOM      2  H20 non d ame     -29.873  13.941  24.361  0.00  0.00     0.087 H 
ENDROOT
BRANCH   1   3
ATOM      3  N4  non d ame     -31.361  12.659  23.728  0.00  0.00    -0.346 N 
ATOM      4  C10 non d ame     -31.251  11.532  24.724  0.00  0.00     0.241 C 
ATOM      5  O4  non d ame     -30.804  11.730  25.806  0.00  0.00    -0.271 OA
ATOM      6  H19 non d ame     -31.736  12.511  22.801  0.00  0.00     0.163 HD
BRANCH   4   7
ATOM      7  C9  non d ame     -31.712  10.151  24.340  0.00  0.00     0.092 C 
ATOM      8  H11 non d ame     -31.412   9.445  25.115  0.00  0.00     0.088 H 
BRANCH   7   9
ATOM      9  N3  non d ame     -33.176  10.125  24.274  0.00  0.00    -0.346 N 
ATOM     10  C7  non d ame     -33.922   9.260  25.154  0.00  0.00     0.240 C 
ATOM     11  O3  non d ame     -33.361   8.578  25.921  0.00  0.00    -0.271 OA
ATOM     12  H10 non d ame     -33.675  10.707  23.616  0.00  0.00     0.163 HD
BRANCH  10  13
ATOM     13  C6  non d ame     -35.481   9.235  25.077  0.00  0.00     0.086 C 
ATOM     14  H6  non d ame     -35.883   8.225  25.005  0.00  0.00     0.086 H 
BRANCH  13  15
ATOM     15  N2  non d ame     -36.023   9.813  26.295  0.00  0.00    -0.343 N 
ATOM     16  C5  non d ame     -37.325   9.361  26.791  0.00  0.00     0.273 C 
ATOM     17  O2  non d ame     -37.929   8.534  26.200  0.00  0.00    -0.266 OA
ATOM     18  H5  non d ame     -35.501  10.521  26.792  0.00  0.00     0.163 HD
BRANCH  16  19
ATOM     19  C4  non d ame     -37.909   9.962  28.078  0.00  0.00     0.154 A 
ATOM     20  C1  non d ame     -38.464   9.251  29.190  0.00  0.00    -0.017 A 
ATOM     21  C2  non d ame     -38.855  10.255  30.104  0.00  0.00     0.077 A 
ATOM     22  H1  non d ame     -38.567   8.173  29.314  0.00  0.00     0.091 H 
ATOM     23  O1  non d ame     -38.554  11.403  29.571  0.00  0.00    -0.218 OA
ATOM     24  N1  non d ame     -38.002  11.258  28.389  0.00  0.00    -0.123 NA
BRANCH  21  25
ATOM     25  C3  non d ame     -39.506  10.032  31.463  0.00  0.00    -0.029 C 
ATOM     26  H2  non d ame     -40.452  10.571  31.505  0.00  0.00     0.036 H 
ATOM     27  H3  non d ame     -39.688   8.968  31.608  0.00  0.00     0.036 H 
ATOM     28  H4  non d ame     -38.845  10.398  32.248  0.00  0.00     0.036 H 
ENDBRANCH  21  25
ENDBRANCH  16  19
ENDBRANCH  13  15
BRANCH  13  29
ATOM     29  C8  non d ame     -35.940  10.029  23.880  0.00  0.00    -0.049 C 
ATOM     30  H7  non d ame     -36.837   9.571  23.463  0.00  0.00     0.030 H 
ATOM     31  H8  non d ame     -36.162  11.051  24.186  0.00  0.00     0.030 H 
ATOM     32  H9  non d ame     -35.152  10.038  23.126  0.00  0.00     0.030 H 
ENDBRANCH  13  29
ENDBRANCH  10  13
ENDBRANCH   7   9
BRANCH   7  33
ATOM     33  C11 non d ame     -31.126   9.777  22.948  0.00  0.00    -0.033 C 
ATOM     34  H12 non d ame     -31.374  10.584  22.258  0.00  0.00     0.042 H 
BRANCH  33  35
ATOM     35  C12 non d ame     -29.570   9.665  22.997  0.00  0.00    -0.071 C 
ATOM     36  H13 non d ame     -29.282   8.919  23.738  0.00  0.00     0.028 H 
ATOM     37  H14 non d ame     -29.195   9.368  22.018  0.00  0.00     0.028 H 
ATOM     38  H15 non d ame     -29.145  10.631  23.272  0.00  0.00     0.028 H 
ENDBRANCH  33  35
BRANCH  33  39
ATOM     39  C13 non d ame     -31.770   8.461  22.404  0.00  0.00    -0.071 C 
ATOM     40  H16 non d ame     -31.072   7.966  21.730  0.00  0.00     0.028 H 
ATOM     41  H17 non d ame     -32.003   7.799  23.239  0.00  0.00     0.028 H 
ATOM     42  H18 non d ame     -32.688   8.701  21.867  0.00  0.00     0.028 H 
ENDBRANCH  33  39
ENDBRANCH   7  33
ENDBRANCH   4   7
ENDBRANCH   1   3
BRANCH   1  43
ATOM     43  C15 non d ame     -31.813  14.516  25.253  0.00  0.00     0.240 C 
ATOM     44  O5  non d ame     -31.435  15.419  25.928  0.00  0.00    -0.271 OA
ATOM     45  N6  non d ame     -33.137  13.889  25.526  0.00  0.00    -0.355 N 
ATOM     46  H46 non d ame     -33.471  13.125  24.957  0.00  0.00     0.162 HD
BRANCH  45  47
ATOM     47  C20 non d ame     -33.970  14.392  26.641  0.00  0.00     0.013 C 
ATOM     48  H30 non d ame     -33.726  15.443  26.794  0.00  0.00     0.072 H 
BRANCH  47  49
ATOM     49  C21 non d ame     -33.660  13.601  27.892  0.00  0.00    -0.038 C 
ATOM     50  H31 non d ame     -34.625  13.381  28.348  0.00  0.00     0.036 H 
ATOM     51  H32 non d ame     -33.009  12.787  27.571  0.00  0.00     0.036 H 
BRANCH  49  52
ATOM     52  C22 non d ame     -32.860  14.415  28.932  0.00  0.00     0.018 C 
ATOM     53  H33 non d ame     -32.623  15.362  28.448  0.00  0.00     0.048 H 
ATOM     54  H34 non d ame     -33.461  14.403  29.842  0.00  0.00     0.048 H 
BRANCH  52  55
ATOM     55  C23 non d ame     -31.495  13.776  29.312  0.00  0.00     0.259 C 
ATOM     56  O7  non d ame     -30.612  13.725  28.519  0.00  0.00    -0.265 OA
BRANCH  55  57
ATOM     57  O8  non d ame     -31.316  13.241  30.617  0.00  0.00    -0.317 OA
BRANCH  57  58
ATOM     58  C29 non d ame     -31.087  11.829  30.641  0.00  0.00     0.052 C 
ATOM     59  H47 non d ame     -30.469  11.615  29.768  0.00  0.00     0.082 H 
ATOM     60  H48 non d ame     -30.713  11.607  31.640  0.00  0.00     0.082 H 
BRANCH  58  61
ATOM     61  C35 non d ame     -32.455  11.119  30.460  0.00  0.00    -0.034 A 
ATOM     62  C30 non d ame     -32.676  10.303  29.355  0.00  0.00    -0.075 A 
ATOM     63  C31 non d ame     -33.905   9.665  29.191  0.00  0.00    -0.082 A 
ATOM     64  H49 non d ame     -31.886  10.163  28.616  0.00  0.00     0.084 H 
ATOM     65  C32 non d ame     -34.917   9.848  30.138  0.00  0.00    -0.083 A 
ATOM     66  H50 non d ame     -34.074   9.025  28.325  0.00  0.00     0.083 H 
ATOM     67  C33 non d ame     -34.693  10.666  31.237  0.00  0.00    -0.082 A 
ATOM     68  H51 non d ame     -35.880   9.353  30.018  0.00  0.00     0.083 H 
ATOM     69  C34 non d ame     -33.466  11.303  31.405  0.00  0.00    -0.075 A 
ATOM     70  H52 non d ame     -35.485  10.809  31.972  0.00  0.00     0.083 H 
ATOM     71  H53 non d ame     -33.297  11.943  32.272  0.00  0.00     0.084 H 
ENDBRANCH  58  61
ENDBRANCH  57  58
ENDBRANCH  55  57
ENDBRANCH  52  55
ENDBRANCH  49  52
ENDBRANCH  47  49
BRANCH  47  72
ATOM     72  C24 non d ame     -35.449  14.235  26.292  0.00  0.00    -0.039 C 
ATOM     73  H35 non d ame     -35.491  13.424  25.565  0.00  0.00     0.036 H 
ATOM     74  H36 non d ame     -35.963  14.138  27.248  0.00  0.00     0.036 H 
BRANCH  72  75
ATOM     75  C25 non d ame     -36.030  15.544  25.573  0.00  0.00    -0.001 C 
ATOM     76  C26 non d ame     -35.068  16.837  25.902  0.00  0.00    -0.035 C 
ATOM     77  C27 non d ame     -35.842  17.850  26.361  0.00  0.00     0.085 C 
ATOM     78  H38 non d ame     -34.416  16.613  26.746  0.00  0.00     0.036 H 
ATOM     79  H39 non d ame     -34.648  17.235  24.979  0.00  0.00     0.036 H 
ATOM     80  N5  non d ame     -37.194  17.262  26.684  0.00  0.00    -0.049 N 
ATOM     81  H40 non d ame     -35.368  18.182  27.284  0.00  0.00     0.075 H 
ATOM     82  H41 non d ame     -35.946  18.539  25.523  0.00  0.00     0.075 H 
ATOM     83  C28 non d ame     -37.226  15.809  25.981  0.00  0.00     0.193 C 
ATOM     84  H42 non d ame     -37.219  17.135  27.686  0.00  0.00     0.280 HD
ATOM     85  H43 non d ame     -37.878  17.853  26.233  0.00  0.00     0.280 HD
ATOM     86  H44 non d ame     -37.788  15.652  25.060  0.00  0.00     0.129 H 
ATOM     87  H37 non d ame     -36.278  15.364  24.527  0.00  0.00     0.046 H 
BRANCH  83  88
ATOM     88  O6  non d ame     -37.712  14.828  26.898  0.00  0.00    -0.369 OA
ATOM     89  H45 non d ame     -37.116  14.075  26.908  0.00  0.00     0.212 HD
ENDBRANCH  83  88
ENDBRANCH  72  75
ENDBRANCH  47  72
ENDBRANCH  45  47
ENDBRANCH   1  43
BRANCH   1  90
ATOM     90  C16 non d ame     -31.089  14.912  22.878  0.00  0.00    -0.035 C 
ATOM     91  H21 non d ame     -32.013  14.593  22.398  0.00  0.00     0.037 H 
ATOM     92  H22 non d ame     -31.000  15.926  23.268  0.00  0.00     0.037 H 
BRANCH  90  93
ATOM     93  C17 non d ame     -29.960  14.749  21.812  0.00  0.00    -0.059 C 
ATOM     94  H23 non d ame     -29.898  13.692  21.555  0.00  0.00     0.038 H 
BRANCH  93  95
ATOM     95  C18 non d ame     -30.269  15.541  20.500  0.00  0.00    -0.073 C 
ATOM     96  H24 non d ame     -30.799  14.894  19.802  0.00  0.00     0.028 H 
ATOM     97  H25 non d ame     -30.888  16.406  20.735  0.00  0.00     0.028 H 
ATOM     98  H26 non d ame     -29.334  15.875  20.049  0.00  0.00     0.028 H 
ENDBRANCH  93  95
BRANCH  93  99
ATOM     99  C19 non d ame     -28.601  15.157  22.387  0.00  0.00    -0.073 C 
ATOM    100  H27 non d ame     -28.542  16.245  22.442  0.00  0.00     0.028 H 
ATOM    101  H28 non d ame     -28.488  14.737  23.386  0.00  0.00     0.028 H 
ATOM    102  H29 non d ame     -27.806  14.782  21.743  0.00  0.00     0.028 H 
ENDBRANCH  93  99
ENDBRANCH  90  93
ENDBRANCH   1  90
TORSDOF 26
ENDMDL
MODEL 16
REMARK VINA RESULT:      -6.2      3.378      7.146
REMARK  26 active torsions:
REMARK  status: ('A' for Active; 'I' for Inactive)
REMARK    1  A    between atoms: C2_2  and  C3_3 
REMARK    2  A    between atoms: C4_6  and  C5_7 
REMARK       I    between atoms: C5_7  and  N2_9 
REMARK    3  A    between atoms: N2_9  and  C6_10 
REMARK    4  A    between atoms: C6_10  and  C7_11 
REMARK    5  A    between atoms: C6_10  and  C8_13 
REMARK       I    between atoms: C7_11  and  N3_14 
REMARK    6  A    between atoms: N3_14  and  C9_15 
REMARK    7  A    between atoms: C9_15  and  C10_16 
REMARK    8  A    between atoms: C9_15  and  C11_18 
REMARK       I    between atoms: C10_16  and  N4_21 
REMARK    9  A    between atoms: C11_18  and  C12_19 
REMARK   10  A    between atoms: C11_18  and  C13_20 
REMARK   11  A    between atoms: N4_21  and  C14_22 
REMARK   12  A    between atoms: C14_22  and  C15_23 
REMARK   13  A    between atoms: C14_22  and  C16_25 
REMARK       I    between atoms: C15_23  and  N6_40 
REMARK   14  A    between atoms: C16_25  and  C17_26 
REMARK   15  A    between atoms: C17_26  and  C18_27 
REMARK   16  A    between atoms: C17_26  and  C19_28 
REMARK   17  A    between atoms: C20_29  and  C21_30 
REMARK   18  A    between atoms: C20_29  and  C24_33 
REMARK   19  A    between atoms: C20_29  and  N6_40 
REMARK   20  A    between atoms: C21_30  and  C22_31 
REMARK   21  A    between atoms: C22_31  and  C23_32 
REMARK   22  A    between atoms: C23_32  and  O8_43 
REMARK   23  A    between atoms: C24_33  and  C25_34 
REMARK   24  A    between atoms: C28_38  and  O6_39 
REMARK   25  A    between atoms: C29_42  and  O8_43 
REMARK   26  A    between atoms: C29_42  and  C35_49 
ROOT
ATOM      1  C14 non d ame     -32.183   8.664  24.772  0.00  0.00     0.089 C 
ATOM      2  H20 non d ame     -31.154   8.305  24.770  0.00  0.00     0.087 H 
ENDROOT
BRANCH   1   3
ATOM      3  N4  non d ame     -33.050   7.509  24.955  0.00  0.00    -0.346 N 
ATOM      4  C10 non d ame     -32.506   6.114  24.781  0.00  0.00     0.241 C 
ATOM      5  O4  non d ame     -31.368   5.945  24.491  0.00  0.00    -0.271 OA
ATOM      6  H19 non d ame     -34.016   7.675  25.200  0.00  0.00     0.163 HD
BRANCH   4   7
ATOM      7  C9  non d ame     -33.417   4.930  24.980  0.00  0.00     0.092 C 
ATOM      8  H11 non d ame     -32.824   4.072  25.298  0.00  0.00     0.088 H 
BRANCH   7   9
ATOM      9  N3  non d ame     -34.370   5.221  26.055  0.00  0.00    -0.346 N 
ATOM     10  C7  non d ame     -34.173   4.652  27.366  0.00  0.00     0.240 C 
ATOM     11  O3  non d ame     -33.254   3.957  27.572  0.00  0.00    -0.271 OA
ATOM     12  H10 non d ame     -35.168   5.818  25.892  0.00  0.00     0.163 HD
BRANCH  10  13
ATOM     13  C6  non d ame     -35.192   4.963  28.506  0.00  0.00     0.086 C 
ATOM     14  H6  non d ame     -35.102   4.280  29.350  0.00  0.00     0.086 H 
BRANCH  13  15
ATOM     15  N2  non d ame     -34.932   6.297  29.020  0.00  0.00    -0.343 N 
ATOM     16  C5  non d ame     -35.385   6.652  30.366  0.00  0.00     0.273 C 
ATOM     17  O2  non d ame     -35.962   5.859  31.026  0.00  0.00    -0.266 OA
ATOM     18  H5  non d ame     -34.441   6.970  28.448  0.00  0.00     0.163 HD
BRANCH  16  19
ATOM     19  C4  non d ame     -35.116   8.059  30.924  0.00  0.00     0.154 A 
ATOM     20  C1  non d ame     -35.820   8.721  31.979  0.00  0.00    -0.017 A 
ATOM     21  C2  non d ame     -35.188   9.978  32.105  0.00  0.00     0.077 A 
ATOM     22  H1  non d ame     -36.661   8.346  32.563  0.00  0.00     0.091 H 
ATOM     23  O1  non d ame     -34.233  10.022  31.223  0.00  0.00    -0.218 OA
ATOM     24  N1  non d ame     -34.171   8.914  30.521  0.00  0.00    -0.123 NA
BRANCH  21  25
ATOM     25  C3  non d ame     -35.557  11.077  33.093  0.00  0.00    -0.029 C 
ATOM     26  H2  non d ame     -35.359  12.050  32.645  0.00  0.00     0.036 H 
ATOM     27  H3  non d ame     -36.615  11.001  33.342  0.00  0.00     0.036 H 
ATOM     28  H4  non d ame     -34.961  10.966  33.999  0.00  0.00     0.036 H 
ENDBRANCH  21  25
ENDBRANCH  16  19
ENDBRANCH  13  15
BRANCH  13  29
ATOM     29  C8  non d ame     -36.596   4.884  27.963  0.00  0.00    -0.049 C 
ATOM     30  H7  non d ame     -36.644   5.397  27.003  0.00  0.00     0.030 H 
ATOM     31  H8  non d ame     -36.876   3.839  27.830  0.00  0.00     0.030 H 
ATOM     32  H9  non d ame     -37.284   5.358  28.663  0.00  0.00     0.030 H 
ENDBRANCH  13  29
ENDBRANCH  10  13
ENDBRANCH   7   9
BRANCH   7  33
ATOM     33  C11 non d ame     -34.196   4.648  23.662  0.00  0.00    -0.033 C 
ATOM     34  H12 non d ame     -34.214   5.574  23.087  0.00  0.00     0.042 H 
BRANCH  33  35
ATOM     35  C12 non d ame     -33.474   3.570  22.795  0.00  0.00    -0.071 C 
ATOM     36  H13 non d ame     -32.506   3.953  22.471  0.00  0.00     0.028 H 
ATOM     37  H14 non d ame     -33.329   2.666  23.385  0.00  0.00     0.028 H 
ATOM     38  H15 non d ame     -34.084   3.340  21.921  0.00  0.00     0.028 H 
ENDBRANCH  33  35
BRANCH  33  39
ATOM     39  C13 non d ame     -35.673   4.237  23.963  0.00  0.00    -0.071 C 
ATOM     40  H16 non d ame     -35.811   4.141  25.040  0.00  0.00     0.028 H 
ATOM     41  H17 non d ame     -36.349   5.001  23.576  0.00  0.00     0.028 H 
ATOM     42  H18 non d ame     -35.890   3.284  23.481  0.00  0.00     0.028 H 
ENDBRANCH  33  39
ENDBRANCH   7  33
ENDBRANCH   4   7
ENDBRANCH   1   3
BRANCH   1  43
ATOM     43  C15 non d ame     -32.451   9.672  25.926  0.00  0.00     0.240 C 
ATOM     44  O5  non d ame     -32.526   9.283  27.046  0.00  0.00    -0.271 OA
ATOM     45  N6  non d ame     -32.606  11.126  25.635  0.00  0.00    -0.355 N 
ATOM     46  H46 non d ame     -32.540  11.470  24.688  0.00  0.00     0.162 HD
BRANCH  45  47
ATOM     47  C20 non d ame     -32.859  12.072  26.743  0.00  0.00     0.013 C 
ATOM     48  H30 non d ame     -33.225  11.501  27.596  0.00  0.00     0.072 H 
BRANCH  47  49
ATOM     49  C21 non d ame     -33.900  13.080  26.312  0.00  0.00    -0.038 C 
ATOM     50  H31 non d ame     -33.756  13.212  25.239  0.00  0.00     0.036 H 
ATOM     51  H32 non d ame     -34.850  12.704  26.693  0.00  0.00     0.036 H 
BRANCH  49  52
ATOM     52  C22 non d ame     -33.692  14.469  26.954  0.00  0.00     0.018 C 
ATOM     53  H33 non d ame     -34.606  14.679  27.508  0.00  0.00     0.048 H 
ATOM     54  H34 non d ame     -32.738  14.412  27.478  0.00  0.00     0.048 H 
BRANCH  52  55
ATOM     55  C23 non d ame     -33.544  15.621  25.921  0.00  0.00     0.259 C 
ATOM     56  O7  non d ame     -33.818  16.738  26.219  0.00  0.00    -0.265 OA
BRANCH  55  57
ATOM     57  O8  non d ame     -33.088  15.324  24.607  0.00  0.00    -0.317 OA
BRANCH  57  58
ATOM     58  C29 non d ame     -32.034  16.175  24.150  0.00  0.00     0.052 C 
ATOM     59  H47 non d ame     -32.513  16.929  23.525  0.00  0.00     0.082 H 
ATOM     60  H48 non d ame     -31.488  16.475  25.044  0.00  0.00     0.082 H 
BRANCH  58  61
ATOM     61  C35 non d ame     -31.087  15.329  23.258  0.00  0.00    -0.034 A 
ATOM     62  C30 non d ame     -30.791  14.015  23.606  0.00  0.00    -0.075 A 
ATOM     63  C31 non d ame     -29.941  13.254  22.805  0.00  0.00    -0.082 A 
ATOM     64  H49 non d ame     -31.226  13.581  24.507  0.00  0.00     0.084 H 
ATOM     65  C32 non d ame     -29.383  13.813  21.653  0.00  0.00    -0.083 A 
ATOM     66  H50 non d ame     -29.712  12.224  23.080  0.00  0.00     0.083 H 
ATOM     67  C33 non d ame     -29.678  15.126  21.311  0.00  0.00    -0.082 A 
ATOM     68  H51 non d ame     -28.717  13.226  21.020  0.00  0.00     0.083 H 
ATOM     69  C34 non d ame     -30.529  15.889  22.107  0.00  0.00    -0.075 A 
ATOM     70  H52 non d ame     -29.239  15.560  20.412  0.00  0.00     0.083 H 
ATOM     71  H53 non d ame     -30.757  16.919  21.831  0.00  0.00     0.084 H 
ENDBRANCH  58  61
ENDBRANCH  57  58
ENDBRANCH  55  57
ENDBRANCH  52  55
ENDBRANCH  49  52
ENDBRANCH  47  49
BRANCH  47  72
ATOM     72  C24 non d ame     -31.566  12.799  27.107  0.00  0.00    -0.039 C 
ATOM     73  H35 non d ame     -30.840  12.496  26.352  0.00  0.00     0.036 H 
ATOM     74  H36 non d ame     -31.841  13.849  27.208  0.00  0.00     0.036 H 
BRANCH  72  75
ATOM     75  C25 non d ame     -30.997  12.321  28.527  0.00  0.00    -0.001 C 
ATOM     76  C26 non d ame     -32.241  11.890  29.512  0.00  0.00    -0.035 C 
ATOM     77  C27 non d ame     -32.107  12.537  30.694  0.00  0.00     0.085 C 
ATOM     78  H38 non d ame     -33.181  12.274  29.117  0.00  0.00     0.036 H 
ATOM     79  H39 non d ame     -32.154  10.838  29.786  0.00  0.00     0.036 H 
ATOM     80  N5  non d ame     -31.072  13.617  30.491  0.00  0.00    -0.049 N 
ATOM     81  H40 non d ame     -33.074  13.003  30.883  0.00  0.00     0.075 H 
ATOM     82  H41 non d ame     -31.714  11.796  31.389  0.00  0.00     0.075 H 
ATOM     83  C28 non d ame     -30.327  13.263  29.103  0.00  0.00     0.193 C 
ATOM     84  H42 non d ame     -31.580  14.482  30.371  0.00  0.00     0.280 HD
ATOM     85  H43 non d ame     -30.408  13.522  31.246  0.00  0.00     0.280 HD
ATOM     86  H44 non d ame     -29.330  12.822  29.107  0.00  0.00     0.129 H 
ATOM     87  H37 non d ame     -30.176  11.611  28.425  0.00  0.00     0.046 H 
BRANCH  83  88
ATOM     88  O6  non d ame     -30.226  14.430  28.285  0.00  0.00    -0.369 OA
ATOM     89  H45 non d ame     -31.096  14.665  27.954  0.00  0.00     0.212 HD
ENDBRANCH  83  88
ENDBRANCH  72  75
ENDBRANCH  47  72
ENDBRANCH  45  47
ENDBRANCH   1  43
BRANCH   1  90
ATOM     90  C16 non d ame     -32.503   9.318  23.437  0.00  0.00    -0.035 C 
ATOM     91  H21 non d ame     -33.372   8.783  23.055  0.00  0.00     0.037 H 
ATOM     92  H22 non d ame     -32.568  10.386  23.647  0.00  0.00     0.037 H 
BRANCH  90  93
ATOM     93  C17 non d ame     -31.376   9.146  22.370  0.00  0.00    -0.059 C 
ATOM     94  H23 non d ame     -31.514   9.920  21.615  0.00  0.00     0.038 H 
BRANCH  93  95
ATOM     95  C18 non d ame     -29.950   9.330  22.983  0.00  0.00    -0.073 C 
ATOM     96  H24 non d ame     -29.781  10.383  23.202  0.00  0.00     0.028 H 
ATOM     97  H25 non d ame     -29.874   8.751  23.904  0.00  0.00     0.028 H 
ATOM     98  H26 non d ame     -29.202   8.981  22.272  0.00  0.00     0.028 H 
ENDBRANCH  93  95
BRANCH  93  99
ATOM     99  C19 non d ame     -31.494   7.794  21.662  0.00  0.00    -0.073 C 
ATOM    100  H27 non d ame     -31.676   7.012  22.400  0.00  0.00     0.028 H 
ATOM    101  H28 non d ame     -32.323   7.825  20.955  0.00  0.00     0.028 H 
ATOM    102  H29 non d ame     -30.569   7.582  21.127  0.00  0.00     0.028 H 
ENDBRANCH  93  99
ENDBRANCH  90  93
ENDBRANCH   1  90
TORSDOF 26
ENDMDL
MODEL 17
REMARK VINA RESULT:      -6.1      2.991      7.199
REMARK  26 active torsions:
REMARK  status: ('A' for Active; 'I' for Inactive)
REMARK    1  A    between atoms: C2_2  and  C3_3 
REMARK    2  A    between atoms: C4_6  and  C5_7 
REMARK       I    between atoms: C5_7  and  N2_9 
REMARK    3  A    between atoms: N2_9  and  C6_10 
REMARK    4  A    between atoms: C6_10  and  C7_11 
REMARK    5  A    between atoms: C6_10  and  C8_13 
REMARK       I    between atoms: C7_11  and  N3_14 
REMARK    6  A    between atoms: N3_14  and  C9_15 
REMARK    7  A    between atoms: C9_15  and  C10_16 
REMARK    8  A    between atoms: C9_15  and  C11_18 
REMARK       I    between atoms: C10_16  and  N4_21 
REMARK    9  A    between atoms: C11_18  and  C12_19 
REMARK   10  A    between atoms: C11_18  and  C13_20 
REMARK   11  A    between atoms: N4_21  and  C14_22 
REMARK   12  A    between atoms: C14_22  and  C15_23 
REMARK   13  A    between atoms: C14_22  and  C16_25 
REMARK       I    between atoms: C15_23  and  N6_40 
REMARK   14  A    between atoms: C16_25  and  C17_26 
REMARK   15  A    between atoms: C17_26  and  C18_27 
REMARK   16  A    between atoms: C17_26  and  C19_28 
REMARK   17  A    between atoms: C20_29  and  C21_30 
REMARK   18  A    between atoms: C20_29  and  C24_33 
REMARK   19  A    between atoms: C20_29  and  N6_40 
REMARK   20  A    between atoms: C21_30  and  C22_31 
REMARK   21  A    between atoms: C22_31  and  C23_32 
REMARK   22  A    between atoms: C23_32  and  O8_43 
REMARK   23  A    between atoms: C24_33  and  C25_34 
REMARK   24  A    between atoms: C28_38  and  O6_39 
REMARK   25  A    between atoms: C29_42  and  O8_43 
REMARK   26  A    between atoms: C29_42  and  C35_49 
ROOT
ATOM      1  C14 non d ame     -32.489  11.603  27.612  0.00  0.00     0.089 C 
ATOM      2  H20 non d ame     -33.556  11.759  27.451  0.00  0.00     0.087 H 
ENDROOT
BRANCH   1   3
ATOM      3  N4  non d ame     -32.114  10.385  26.910  0.00  0.00    -0.346 N 
ATOM      4  C10 non d ame     -32.878   9.944  25.687  0.00  0.00     0.241 C 
ATOM      5  O4  non d ame     -33.794  10.585  25.289  0.00  0.00    -0.271 OA
ATOM      6  H19 non d ame     -31.333   9.852  27.267  0.00  0.00     0.163 HD
BRANCH   4   7
ATOM      7  C9  non d ame     -32.473   8.683  24.970  0.00  0.00     0.092 C 
ATOM      8  H11 non d ame     -31.449   8.428  25.245  0.00  0.00     0.088 H 
BRANCH   7   9
ATOM      9  N3  non d ame     -33.328   7.575  25.406  0.00  0.00    -0.346 N 
ATOM     10  C7  non d ame     -33.078   6.927  26.670  0.00  0.00     0.240 C 
ATOM     11  O3  non d ame     -32.192   7.283  27.348  0.00  0.00    -0.271 OA
ATOM     12  H10 non d ame     -34.095   7.256  24.832  0.00  0.00     0.163 HD
BRANCH  10  13
ATOM     13  C6  non d ame     -33.990   5.747  27.128  0.00  0.00     0.086 C 
ATOM     14  H6  non d ame     -33.475   5.048  27.788  0.00  0.00     0.086 H 
BRANCH  13  15
ATOM     15  N2  non d ame     -35.111   6.282  27.882  0.00  0.00    -0.343 N 
ATOM     16  C5  non d ame     -35.311   5.866  29.272  0.00  0.00     0.273 C 
ATOM     17  O2  non d ame     -34.565   5.097  29.773  0.00  0.00    -0.266 OA
ATOM     18  H5  non d ame     -35.745   6.936  27.444  0.00  0.00     0.163 HD
BRANCH  16  19
ATOM     19  C4  non d ame     -36.492   6.425  30.081  0.00  0.00     0.154 A 
ATOM     20  C1  non d ame     -36.953   7.779  30.114  0.00  0.00    -0.017 A 
ATOM     21  C2  non d ame     -38.053   7.767  31.000  0.00  0.00     0.077 A 
ATOM     22  H1  non d ame     -36.552   8.639  29.577  0.00  0.00     0.091 H 
ATOM     23  O1  non d ame     -38.199   6.544  31.420  0.00  0.00    -0.218 OA
ATOM     24  N1  non d ame     -37.299   5.743  30.898  0.00  0.00    -0.123 NA
BRANCH  21  25
ATOM     25  C3  non d ame     -38.910   8.964  31.390  0.00  0.00    -0.029 C 
ATOM     26  H2  non d ame     -39.104   9.574  30.509  0.00  0.00     0.036 H 
ATOM     27  H3  non d ame     -39.855   8.614  31.804  0.00  0.00     0.036 H 
ATOM     28  H4  non d ame     -38.385   9.559  32.136  0.00  0.00     0.036 H 
ENDBRANCH  21  25
ENDBRANCH  16  19
ENDBRANCH  13  15
BRANCH  13  29
ATOM     29  C8  non d ame     -34.490   4.997  25.920  0.00  0.00    -0.049 C 
ATOM     30  H7  non d ame     -35.479   5.365  25.648  0.00  0.00     0.030 H 
ATOM     31  H8  non d ame     -33.804   5.151  25.087  0.00  0.00     0.030 H 
ATOM     32  H9  non d ame     -34.549   3.933  26.151  0.00  0.00     0.030 H 
ENDBRANCH  13  29
ENDBRANCH  10  13
ENDBRANCH   7   9
BRANCH   7  33
ATOM     33  C11 non d ame     -32.634   8.885  23.435  0.00  0.00    -0.033 C 
ATOM     34  H12 non d ame     -33.461   9.577  23.279  0.00  0.00     0.042 H 
BRANCH  33  35
ATOM     35  C12 non d ame     -31.358   9.532  22.810  0.00  0.00    -0.071 C 
ATOM     36  H13 non d ame     -30.534   8.819  22.845  0.00  0.00     0.028 H 
ATOM     37  H14 non d ame     -31.559   9.804  21.774  0.00  0.00     0.028 H 
ATOM     38  H15 non d ame     -31.090  10.425  23.375  0.00  0.00     0.028 H 
ENDBRANCH  33  35
BRANCH  33  39
ATOM     39  C13 non d ame     -32.990   7.539  22.727  0.00  0.00    -0.071 C 
ATOM     40  H16 non d ame     -34.017   7.262  22.968  0.00  0.00     0.028 H 
ATOM     41  H17 non d ame     -32.889   7.657  21.648  0.00  0.00     0.028 H 
ATOM     42  H18 non d ame     -32.312   6.757  23.071  0.00  0.00     0.028 H 
ENDBRANCH  33  39
ENDBRANCH   7  33
ENDBRANCH   4   7
ENDBRANCH   1   3
BRANCH   1  43
ATOM     43  C15 non d ame     -31.634  12.778  27.057  0.00  0.00     0.240 C 
ATOM     44  O5  non d ame     -30.688  13.160  27.666  0.00  0.00    -0.271 OA
ATOM     45  N6  non d ame     -31.989  13.421  25.760  0.00  0.00    -0.355 N 
ATOM     46  H46 non d ame     -32.787  13.102  25.230  0.00  0.00     0.162 HD
BRANCH  45  47
ATOM     47  C20 non d ame     -31.165  14.536  25.245  0.00  0.00     0.013 C 
ATOM     48  H30 non d ame     -30.313  14.661  25.913  0.00  0.00     0.072 H 
BRANCH  47  49
ATOM     49  C21 non d ame     -31.993  15.801  25.222  0.00  0.00    -0.038 C 
ATOM     50  H31 non d ame     -31.335  16.577  24.831  0.00  0.00     0.036 H 
ATOM     51  H32 non d ame     -32.909  15.543  24.691  0.00  0.00     0.036 H 
BRANCH  49  52
ATOM     52  C22 non d ame     -32.422  16.262  26.633  0.00  0.00     0.018 C 
ATOM     53  H33 non d ame     -33.364  15.754  26.836  0.00  0.00     0.048 H 
ATOM     54  H34 non d ame     -31.558  16.087  27.275  0.00  0.00     0.048 H 
BRANCH  52  55
ATOM     55  C23 non d ame     -32.726  17.783  26.729  0.00  0.00     0.259 C 
ATOM     56  O7  non d ame     -31.870  18.583  26.529  0.00  0.00    -0.265 OA
BRANCH  55  57
ATOM     57  O8  non d ame     -34.038  18.210  27.073  0.00  0.00    -0.317 OA
BRANCH  57  58
ATOM     58  C29 non d ame     -34.515  19.310  26.294  0.00  0.00     0.052 C 
ATOM     59  H47 non d ame     -34.899  20.036  27.011  0.00  0.00     0.082 H 
ATOM     60  H48 non d ame     -33.693  19.581  25.632  0.00  0.00     0.082 H 
BRANCH  58  61
ATOM     61  C35 non d ame     -35.698  18.804  25.425  0.00  0.00    -0.034 A 
ATOM     62  C30 non d ame     -36.012  17.449  25.397  0.00  0.00    -0.075 A 
ATOM     63  C31 non d ame     -37.074  16.995  24.617  0.00  0.00    -0.082 A 
ATOM     64  H49 non d ame     -35.426  16.744  25.986  0.00  0.00     0.084 H 
ATOM     65  C32 non d ame     -37.822  17.901  23.861  0.00  0.00    -0.083 A 
ATOM     66  H50 non d ame     -37.319  15.932  24.599  0.00  0.00     0.083 H 
ATOM     67  C33 non d ame     -37.503  19.252  23.889  0.00  0.00    -0.082 A 
ATOM     68  H51 non d ame     -38.655  17.554  23.249  0.00  0.00     0.083 H 
ATOM     69  C34 non d ame     -36.444  19.711  24.669  0.00  0.00    -0.075 A 
ATOM     70  H52 non d ame     -38.087  19.956  23.296  0.00  0.00     0.083 H 
ATOM     71  H53 non d ame     -36.200  20.773  24.687  0.00  0.00     0.084 H 
ENDBRANCH  58  61
ENDBRANCH  57  58
ENDBRANCH  55  57
ENDBRANCH  52  55
ENDBRANCH  49  52
ENDBRANCH  47  49
BRANCH  47  72
ATOM     72  C24 non d ame     -30.687  14.215  23.830  0.00  0.00    -0.039 C 
ATOM     73  H35 non d ame     -29.713  13.741  23.954  0.00  0.00     0.036 H 
ATOM     74  H36 non d ame     -31.505  13.665  23.365  0.00  0.00     0.036 H 
BRANCH  72  75
ATOM     75  C25 non d ame     -30.459  15.544  22.965  0.00  0.00    -0.001 C 
ATOM     76  C26 non d ame     -31.404  15.505  21.620  0.00  0.00    -0.035 C 
ATOM     77  C27 non d ame     -30.630  15.755  20.536  0.00  0.00     0.085 C 
ATOM     78  H38 non d ame     -31.766  14.492  21.446  0.00  0.00     0.036 H 
ATOM     79  H39 non d ame     -32.104  16.341  21.631  0.00  0.00     0.036 H 
ATOM     80  N5  non d ame     -29.193  15.636  20.983  0.00  0.00    -0.049 N 
ATOM     81  H40 non d ame     -30.851  14.954  19.830  0.00  0.00     0.075 H 
ATOM     82  H41 non d ame     -30.834  16.791  20.266  0.00  0.00     0.075 H 
ATOM     83  C28 non d ame     -29.227  15.656  22.597  0.00  0.00     0.193 C 
ATOM     84  H42 non d ame     -28.873  14.728  20.679  0.00  0.00     0.280 HD
ATOM     85  H43 non d ame     -28.724  16.471  20.660  0.00  0.00     0.280 HD
ATOM     86  H44 non d ame     -28.937  16.553  23.145  0.00  0.00     0.129 H 
ATOM     87  H37 non d ame     -30.502  16.446  23.576  0.00  0.00     0.046 H 
BRANCH  83  88
ATOM     88  O6  non d ame     -28.410  14.607  23.120  0.00  0.00    -0.369 OA
ATOM     89  H45 non d ame     -27.507  14.721  22.812  0.00  0.00     0.212 HD
ENDBRANCH  83  88
ENDBRANCH  72  75
ENDBRANCH  47  72
ENDBRANCH  45  47
ENDBRANCH   1  43
BRANCH   1  90
ATOM     90  C16 non d ame     -32.212  11.426  29.096  0.00  0.00    -0.035 C 
ATOM     91  H21 non d ame     -31.505  10.600  29.161  0.00  0.00     0.037 H 
ATOM     92  H22 non d ame     -31.929  12.415  29.457  0.00  0.00     0.037 H 
BRANCH  90  93
ATOM     93  C17 non d ame     -33.467  10.998  29.921  0.00  0.00    -0.059 C 
ATOM     94  H23 non d ame     -34.326  11.538  29.521  0.00  0.00     0.038 H 
BRANCH  93  95
ATOM     95  C18 non d ame     -33.764   9.470  29.792  0.00  0.00    -0.073 C 
ATOM     96  H24 non d ame     -32.906   8.969  29.344  0.00  0.00     0.028 H 
ATOM     97  H25 non d ame     -33.953   9.051  30.781  0.00  0.00     0.028 H 
ATOM     98  H26 non d ame     -34.641   9.322  29.162  0.00  0.00     0.028 H 
ENDBRANCH  93  95
BRANCH  93  99
ATOM     99  C19 non d ame     -33.320  11.403  31.390  0.00  0.00    -0.073 C 
ATOM    100  H27 non d ame     -32.779  12.347  31.455  0.00  0.00     0.028 H 
ATOM    101  H28 non d ame     -34.308  11.519  31.837  0.00  0.00     0.028 H 
ATOM    102  H29 non d ame     -32.769  10.630  31.926  0.00  0.00     0.028 H 
ENDBRANCH  93  99
ENDBRANCH  90  93
ENDBRANCH   1  90
TORSDOF 26
ENDMDL
MODEL 18
REMARK VINA RESULT:      -6.1      3.882     10.006
REMARK  26 active torsions:
REMARK  status: ('A' for Active; 'I' for Inactive)
REMARK    1  A    between atoms: C2_2  and  C3_3 
REMARK    2  A    between atoms: C4_6  and  C5_7 
REMARK       I    between atoms: C5_7  and  N2_9 
REMARK    3  A    between atoms: N2_9  and  C6_10 
REMARK    4  A    between atoms: C6_10  and  C7_11 
REMARK    5  A    between atoms: C6_10  and  C8_13 
REMARK       I    between atoms: C7_11  and  N3_14 
REMARK    6  A    between atoms: N3_14  and  C9_15 
REMARK    7  A    between atoms: C9_15  and  C10_16 
REMARK    8  A    between atoms: C9_15  and  C11_18 
REMARK       I    between atoms: C10_16  and  N4_21 
REMARK    9  A    between atoms: C11_18  and  C12_19 
REMARK   10  A    between atoms: C11_18  and  C13_20 
REMARK   11  A    between atoms: N4_21  and  C14_22 
REMARK   12  A    between atoms: C14_22  and  C15_23 
REMARK   13  A    between atoms: C14_22  and  C16_25 
REMARK       I    between atoms: C15_23  and  N6_40 
REMARK   14  A    between atoms: C16_25  and  C17_26 
REMARK   15  A    between atoms: C17_26  and  C18_27 
REMARK   16  A    between atoms: C17_26  and  C19_28 
REMARK   17  A    between atoms: C20_29  and  C21_30 
REMARK   18  A    between atoms: C20_29  and  C24_33 
REMARK   19  A    between atoms: C20_29  and  N6_40 
REMARK   20  A    between atoms: C21_30  and  C22_31 
REMARK   21  A    between atoms: C22_31  and  C23_32 
REMARK   22  A    between atoms: C23_32  and  O8_43 
REMARK   23  A    between atoms: C24_33  and  C25_34 
REMARK   24  A    between atoms: C28_38  and  O6_39 
REMARK   25  A    between atoms: C29_42  and  O8_43 
REMARK   26  A    between atoms: C29_42  and  C35_49 
ROOT
ATOM      1  C14 non d ame     -35.646   5.523  29.212  0.00  0.00     0.089 C 
ATOM      2  H20 non d ame     -35.722   4.991  30.161  0.00  0.00     0.087 H 
ENDROOT
BRANCH   1   3
ATOM      3  N4  non d ame     -35.519   6.941  29.513  0.00  0.00    -0.346 N 
ATOM      4  C10 non d ame     -35.167   7.395  30.907  0.00  0.00     0.241 C 
ATOM      5  O4  non d ame     -34.993   6.600  31.771  0.00  0.00    -0.271 OA
ATOM      6  H19 non d ame     -35.674   7.601  28.764  0.00  0.00     0.163 HD
BRANCH   4   7
ATOM      7  C9  non d ame     -35.035   8.867  31.199  0.00  0.00     0.092 C 
ATOM      8  H11 non d ame     -34.732   9.000  32.238  0.00  0.00     0.088 H 
BRANCH   7   9
ATOM      9  N3  non d ame     -33.975   9.438  30.362  0.00  0.00    -0.346 N 
ATOM     10  C7  non d ame     -33.311  10.652  30.770  0.00  0.00     0.240 C 
ATOM     11  O3  non d ame     -33.618  11.182  31.767  0.00  0.00    -0.271 OA
ATOM     12  H10 non d ame     -33.701   8.993  29.498  0.00  0.00     0.163 HD
BRANCH  10  13
ATOM     13  C6  non d ame     -32.187  11.257  29.873  0.00  0.00     0.086 C 
ATOM     14  H6  non d ame     -31.779  10.537  29.165  0.00  0.00     0.086 H 
BRANCH  13  15
ATOM     15  N2  non d ame     -32.745  12.344  29.086  0.00  0.00    -0.343 N 
ATOM     16  C5  non d ame     -32.062  12.776  27.865  0.00  0.00     0.273 C 
ATOM     17  O2  non d ame     -31.062  12.244  27.526  0.00  0.00    -0.266 OA
ATOM     18  H5  non d ame     -33.599  12.795  29.385  0.00  0.00     0.163 HD
BRANCH  16  19
ATOM     19  C4  non d ame     -32.642  13.923  27.023  0.00  0.00     0.154 A 
ATOM     20  C1  non d ame     -32.792  15.291  27.412  0.00  0.00    -0.017 A 
ATOM     21  C2  non d ame     -33.367  15.928  26.290  0.00  0.00     0.077 A 
ATOM     22  H1  non d ame     -32.524  15.752  28.363  0.00  0.00     0.091 H 
ATOM     23  O1  non d ame     -33.524  15.022  25.369  0.00  0.00    -0.218 OA
ATOM     24  N1  non d ame     -33.108  13.844  25.773  0.00  0.00    -0.123 NA
BRANCH  21  25
ATOM     25  C3  non d ame     -33.735  17.401  26.179  0.00  0.00    -0.029 C 
ATOM     26  H2  non d ame     -33.279  17.953  27.000  0.00  0.00     0.036 H 
ATOM     27  H3  non d ame     -33.371  17.796  25.231  0.00  0.00     0.036 H 
ATOM     28  H4  non d ame     -34.818  17.510  26.225  0.00  0.00     0.036 H 
ENDBRANCH  21  25
ENDBRANCH  16  19
ENDBRANCH  13  15
BRANCH  13  29
ATOM     29  C8  non d ame     -31.068  11.771  30.744  0.00  0.00    -0.049 C 
ATOM     30  H7  non d ame     -30.862  12.812  30.493  0.00  0.00     0.030 H 
ATOM     31  H8  non d ame     -31.362  11.701  31.791  0.00  0.00     0.030 H 
ATOM     32  H9  non d ame     -30.173  11.173  30.576  0.00  0.00     0.030 H 
ENDBRANCH  13  29
ENDBRANCH  10  13
ENDBRANCH   7   9
BRANCH   7  33
ATOM     33  C11 non d ame     -36.382   9.581  30.886  0.00  0.00    -0.033 C 
ATOM     34  H12 non d ame     -36.347  10.566  31.350  0.00  0.00     0.042 H 
BRANCH  33  35
ATOM     35  C12 non d ame     -36.570   9.792  29.351  0.00  0.00    -0.071 C 
ATOM     36  H13 non d ame     -37.335   9.110  28.981  0.00  0.00     0.028 H 
ATOM     37  H14 non d ame     -36.876  10.820  29.160  0.00  0.00     0.028 H 
ATOM     38  H15 non d ame     -35.628   9.592  28.839  0.00  0.00     0.028 H 
ENDBRANCH  33  35
BRANCH  33  39
ATOM     39  C13 non d ame     -37.586   8.799  31.501  0.00  0.00    -0.071 C 
ATOM     40  H16 non d ame     -38.284   8.525  30.710  0.00  0.00     0.028 H 
ATOM     41  H17 non d ame     -37.221   7.896  31.992  0.00  0.00     0.028 H 
ATOM     42  H18 non d ame     -38.093   9.428  32.232  0.00  0.00     0.028 H 
ENDBRANCH  33  39
ENDBRANCH   7  33
ENDBRANCH   4   7
ENDBRANCH   1   3
BRANCH   1  43
ATOM     43  C15 non d ame     -34.403   5.078  28.388  0.00  0.00     0.240 C 
ATOM     44  O5  non d ame     -33.506   4.516  28.929  0.00  0.00    -0.271 OA
ATOM     45  N6  non d ame     -34.335   5.346  26.923  0.00  0.00    -0.355 N 
ATOM     46  H46 non d ame     -35.093   5.818  26.452  0.00  0.00     0.162 HD
BRANCH  45  47
ATOM     47  C20 non d ame     -33.147   4.915  26.155  0.00  0.00     0.013 C 
ATOM     48  H30 non d ame     -32.537   4.287  26.803  0.00  0.00     0.072 H 
BRANCH  47  49
ATOM     49  C21 non d ame     -32.360   6.134  25.728  0.00  0.00    -0.038 C 
ATOM     50  H31 non d ame     -31.434   5.751  25.299  0.00  0.00     0.036 H 
ATOM     51  H32 non d ame     -33.042   6.724  25.115  0.00  0.00     0.036 H 
BRANCH  49  52
ATOM     52  C22 non d ame     -31.953   7.031  26.916  0.00  0.00     0.018 C 
ATOM     53  H33 non d ame     -32.234   6.479  27.813  0.00  0.00     0.048 H 
ATOM     54  H34 non d ame     -30.909   7.295  26.743  0.00  0.00     0.048 H 
BRANCH  52  55
ATOM     55  C23 non d ame     -32.729   8.376  26.981  0.00  0.00     0.259 C 
ATOM     56  O7  non d ame     -33.780   8.440  27.532  0.00  0.00    -0.265 OA
BRANCH  55  57
ATOM     57  O8  non d ame     -32.176   9.530  26.361  0.00  0.00    -0.317 OA
BRANCH  57  58
ATOM     58  C29 non d ame     -33.013  10.110  25.356  0.00  0.00     0.052 C 
ATOM     59  H47 non d ame     -34.036   9.898  25.667  0.00  0.00     0.082 H 
ATOM     60  H48 non d ame     -32.678  11.141  25.252  0.00  0.00     0.082 H 
BRANCH  58  61
ATOM     61  C35 non d ame     -32.742   9.368  24.020  0.00  0.00    -0.034 A 
ATOM     62  C30 non d ame     -33.805   8.967  23.218  0.00  0.00    -0.075 A 
ATOM     63  C31 non d ame     -33.561   8.300  22.018  0.00  0.00    -0.082 A 
ATOM     64  H49 non d ame     -34.829   9.174  23.529  0.00  0.00     0.084 H 
ATOM     65  C32 non d ame     -32.248   8.032  21.622  0.00  0.00    -0.083 A 
ATOM     66  H50 non d ame     -34.396   7.989  21.390  0.00  0.00     0.083 H 
ATOM     67  C33 non d ame     -31.190   8.432  22.428  0.00  0.00    -0.082 A 
ATOM     68  H51 non d ame     -32.048   7.512  20.686  0.00  0.00     0.083 H 
ATOM     69  C34 non d ame     -31.429   9.100  23.627  0.00  0.00    -0.075 A 
ATOM     70  H52 non d ame     -30.167   8.219  22.118  0.00  0.00     0.083 H 
ATOM     71  H53 non d ame     -30.593   9.411  24.254  0.00  0.00     0.084 H 
ENDBRANCH  58  61
ENDBRANCH  57  58
ENDBRANCH  55  57
ENDBRANCH  52  55
ENDBRANCH  49  52
ENDBRANCH  47  49
BRANCH  47  72
ATOM     72  C24 non d ame     -33.587   4.133  24.919  0.00  0.00    -0.039 C 
ATOM     73  H35 non d ame     -32.757   3.465  24.687  0.00  0.00     0.036 H 
ATOM     74  H36 non d ame     -34.564   3.721  25.169  0.00  0.00     0.036 H 
BRANCH  72  75
ATOM     75  C25 non d ame     -33.789   5.092  23.651  0.00  0.00    -0.001 C 
ATOM     76  C26 non d ame     -35.365   5.548  23.539  0.00  0.00    -0.035 C 
ATOM     77  C27 non d ame     -35.802   5.301  22.281  0.00  0.00     0.085 C 
ATOM     78  H38 non d ame     -35.986   4.900  24.157  0.00  0.00     0.036 H 
ATOM     79  H39 non d ame     -35.448   6.631  23.630  0.00  0.00     0.036 H 
ATOM     80  N5  non d ame     -34.770   4.419  21.621  0.00  0.00    -0.049 N 
ATOM     81  H40 non d ame     -36.728   4.738  22.401  0.00  0.00     0.075 H 
ATOM     82  H41 non d ame     -35.814   6.269  21.782  0.00  0.00     0.075 H 
ATOM     83  C28 non d ame     -33.456   4.495  22.556  0.00  0.00     0.193 C 
ATOM     84  H42 non d ame     -35.134   3.478  21.654  0.00  0.00     0.280 HD
ATOM     85  H43 non d ame     -34.557   4.847  20.731  0.00  0.00     0.280 HD
ATOM     86  H44 non d ame     -32.597   5.096  22.256  0.00  0.00     0.129 H 
ATOM     87  H37 non d ame     -33.040   5.883  23.609  0.00  0.00     0.046 H 
BRANCH  83  88
ATOM     88  O6  non d ame     -32.942   3.184  22.791  0.00  0.00    -0.369 OA
ATOM     89  H45 non d ame     -33.581   2.676  23.298  0.00  0.00     0.212 HD
ENDBRANCH  83  88
ENDBRANCH  72  75
ENDBRANCH  47  72
ENDBRANCH  45  47
ENDBRANCH   1  43
BRANCH   1  90
ATOM     90  C16 non d ame     -36.907   5.300  28.393  0.00  0.00    -0.035 C 
ATOM     91  H21 non d ame     -36.893   6.072  27.625  0.00  0.00     0.037 H 
ATOM     92  H22 non d ame     -36.885   4.247  28.109  0.00  0.00     0.037 H 
BRANCH  90  93
ATOM     93  C17 non d ame     -38.226   5.509  29.204  0.00  0.00    -0.059 C 
ATOM     94  H23 non d ame     -37.952   5.654  30.249  0.00  0.00     0.038 H 
BRANCH  93  95
ATOM     95  C18 non d ame     -39.009   6.778  28.737  0.00  0.00    -0.073 C 
ATOM     96  H24 non d ame     -40.025   6.742  29.130  0.00  0.00     0.028 H 
ATOM     97  H25 non d ame     -38.509   7.672  29.109  0.00  0.00     0.028 H 
ATOM     98  H26 non d ame     -39.041   6.805  27.648  0.00  0.00     0.028 H 
ENDBRANCH  93  95
BRANCH  93  99
ATOM     99  C19 non d ame     -39.114   4.264  29.135  0.00  0.00    -0.073 C 
ATOM    100  H27 non d ame     -39.821   4.276  29.965  0.00  0.00     0.028 H 
ATOM    101  H28 non d ame     -39.661   4.259  28.192  0.00  0.00     0.028 H 
ATOM    102  H29 non d ame     -38.493   3.371  29.199  0.00  0.00     0.028 H 
ENDBRANCH  93  99
ENDBRANCH  90  93
ENDBRANCH   1  90
TORSDOF 26
ENDMDL
