MODEL 1
REMARK VINA RESULT:      -7.1      0.000      0.000
REMARK  26 active torsions:
REMARK  status: ('A' for Active; 'I' for Inactive)
REMARK    1  A    between atoms: C2_2  and  C3_3 
REMARK    2  A    between atoms: C4_6  and  C5_7 
REMARK       I    between atoms: C5_7  and  N2_9 
REMARK    3  A    between atoms: N2_9  and  C6_10 
REMARK    4  A    between atoms: C6_10  and  C7_11 
REMARK    5  A    between atoms: C6_10  and  C8_13 
REMARK       I    between atoms: C7_11  and  N3_14 
REMARK    6  A    between atoms: N3_14  and  C9_15 
REMARK    7  A    between atoms: C9_15  and  C10_16 
REMARK    8  A    between atoms: C9_15  and  C11_18 
REMARK       I    between atoms: C10_16  and  N4_21 
REMARK    9  A    between atoms: C11_18  and  C12_19 
REMARK   10  A    between atoms: C11_18  and  C13_20 
REMARK   11  A    between atoms: N4_21  and  C14_22 
REMARK   12  A    between atoms: C14_22  and  C15_23 
REMARK   13  A    between atoms: C14_22  and  C16_25 
REMARK       I    between atoms: C15_23  and  N6_40 
REMARK   14  A    between atoms: C16_25  and  C17_26 
REMARK   15  A    between atoms: C17_26  and  C18_27 
REMARK   16  A    between atoms: C17_26  and  C19_28 
REMARK   17  A    between atoms: C20_29  and  C21_30 
REMARK   18  A    between atoms: C20_29  and  C24_33 
REMARK   19  A    between atoms: C20_29  and  N6_40 
REMARK   20  A    between atoms: C21_30  and  C22_31 
REMARK   21  A    between atoms: C22_31  and  C23_32 
REMARK   22  A    between atoms: C23_32  and  O8_43 
REMARK   23  A    between atoms: C24_33  and  C25_34 
REMARK   24  A    between atoms: C28_38  and  O6_39 
REMARK   25  A    between atoms: C29_42  and  O8_43 
REMARK   26  A    between atoms: C29_42  and  C35_49 
ROOT
ATOM      1  C14 non d ame     -31.067  14.411  24.370  0.00  0.00     0.089 C 
ATOM      2  H20 non d ame     -29.999  14.251  24.221  0.00  0.00     0.087 H 
ENDROOT
BRANCH   1   3
ATOM      3  N4  non d ame     -31.672  13.114  24.635  0.00  0.00    -0.346 N 
ATOM      4  C10 non d ame     -31.129  11.871  23.976  0.00  0.00     0.241 C 
ATOM      5  O4  non d ame     -30.205  11.941  23.234  0.00  0.00    -0.271 OA
ATOM      6  H19 non d ame     -32.459  13.077  25.268  0.00  0.00     0.163 HD
BRANCH   4   7
ATOM      7  C9  non d ame     -31.764  10.537  24.265  0.00  0.00     0.092 C 
ATOM      8  H11 non d ame     -31.215  10.045  25.069  0.00  0.00     0.088 H 
BRANCH   7   9
ATOM      9  N3  non d ame     -33.136  10.741  24.740  0.00  0.00    -0.346 N 
ATOM     10  C7  non d ame     -33.587  10.084  25.942  0.00  0.00     0.240 C 
ATOM     11  O3  non d ame     -32.860   9.388  26.540  0.00  0.00    -0.271 OA
ATOM     12  H10 non d ame     -33.775  11.337  24.234  0.00  0.00     0.163 HD
BRANCH  10  13
ATOM     13  C6  non d ame     -35.050  10.303  26.440  0.00  0.00     0.086 C 
ATOM     14  H6  non d ame     -35.117  10.392  27.524  0.00  0.00     0.086 H 
BRANCH  13  15
ATOM     15  N2  non d ame     -35.555  11.549  25.888  0.00  0.00    -0.343 N 
ATOM     16  C5  non d ame     -35.142  12.822  26.483  0.00  0.00     0.273 C 
ATOM     17  O2  non d ame     -34.405  12.832  27.408  0.00  0.00    -0.266 OA
ATOM     18  H5  non d ame     -36.186  11.530  25.099  0.00  0.00     0.163 HD
BRANCH  16  19
ATOM     19  C4  non d ame     -35.667  14.146  25.908  0.00  0.00     0.154 A 
ATOM     20  C1  non d ame     -36.890  14.810  26.243  0.00  0.00    -0.017 A 
ATOM     21  C2  non d ame     -36.901  15.976  25.445  0.00  0.00     0.077 A 
ATOM     22  H1  non d ame     -37.652  14.494  26.955  0.00  0.00     0.091 H 
ATOM     23  O1  non d ame     -35.807  15.974  24.741  0.00  0.00    -0.218 OA
ATOM     24  N1  non d ame     -35.071  14.916  24.993  0.00  0.00    -0.123 NA
BRANCH  21  25
ATOM     25  C3  non d ame     -37.991  17.039  25.417  0.00  0.00    -0.029 C 
ATOM     26  H2  non d ame     -38.189  17.383  26.432  0.00  0.00     0.036 H 
ATOM     27  H3  non d ame     -37.662  17.880  24.807  0.00  0.00     0.036 H 
ATOM     28  H4  non d ame     -38.901  16.616  24.992  0.00  0.00     0.036 H 
ENDBRANCH  21  25
ENDBRANCH  16  19
ENDBRANCH  13  15
BRANCH  13  29
ATOM     29  C8  non d ame     -35.913   9.151  25.992  0.00  0.00    -0.049 C 
ATOM     30  H7  non d ame     -35.283   8.292  25.764  0.00  0.00     0.030 H 
ATOM     31  H8  non d ame     -36.611   8.890  26.787  0.00  0.00     0.030 H 
ATOM     32  H9  non d ame     -36.470   9.440  25.100  0.00  0.00     0.030 H 
ENDBRANCH  13  29
ENDBRANCH  10  13
ENDBRANCH   7   9
BRANCH   7  33
ATOM     33  C11 non d ame     -31.789   9.681  22.965  0.00  0.00    -0.033 C 
ATOM     34  H12 non d ame     -31.603  10.353  22.126  0.00  0.00     0.042 H 
BRANCH  33  35
ATOM     35  C12 non d ame     -30.655   8.609  22.967  0.00  0.00    -0.071 C 
ATOM     36  H13 non d ame     -29.703   9.087  22.736  0.00  0.00     0.028 H 
ATOM     37  H14 non d ame     -30.598   8.143  23.951  0.00  0.00     0.028 H 
ATOM     38  H15 non d ame     -30.872   7.849  22.217  0.00  0.00     0.028 H 
ENDBRANCH  33  35
BRANCH  33  39
ATOM     39  C13 non d ame     -33.190   9.023  22.755  0.00  0.00    -0.071 C 
ATOM     40  H16 non d ame     -33.583   9.306  21.778  0.00  0.00     0.028 H 
ATOM     41  H17 non d ame     -33.094   7.938  22.808  0.00  0.00     0.028 H 
ATOM     42  H18 non d ame     -33.872   9.364  23.534  0.00  0.00     0.028 H 
ENDBRANCH  33  39
ENDBRANCH   7  33
ENDBRANCH   4   7
ENDBRANCH   1   3
BRANCH   1  43
ATOM     43  C15 non d ame     -31.357  15.348  25.577  0.00  0.00     0.240 C 
ATOM     44  O5  non d ame     -30.988  16.478  25.551  0.00  0.00    -0.271 OA
ATOM     45  N6  non d ame     -32.103  14.840  26.763  0.00  0.00    -0.355 N 
ATOM     46  H46 non d ame     -32.426  13.884  26.796  0.00  0.00     0.162 HD
BRANCH  45  47
ATOM     47  C20 non d ame     -32.372  15.744  27.902  0.00  0.00     0.013 C 
ATOM     48  H30 non d ame     -31.667  16.574  27.846  0.00  0.00     0.072 H 
BRANCH  47  49
ATOM     49  C21 non d ame     -32.179  14.988  29.197  0.00  0.00    -0.038 C 
ATOM     50  H31 non d ame     -31.958  15.745  29.950  0.00  0.00     0.036 H 
ATOM     51  H32 non d ame     -33.059  14.354  29.302  0.00  0.00     0.036 H 
BRANCH  49  52
ATOM     52  C22 non d ame     -30.960  14.041  29.161  0.00  0.00     0.018 C 
ATOM     53  H33 non d ame     -30.392  14.323  28.275  0.00  0.00     0.048 H 
ATOM     54  H34 non d ame     -30.501  14.112  30.148  0.00  0.00     0.048 H 
BRANCH  52  55
ATOM     55  C23 non d ame     -31.335  12.545  28.971  0.00  0.00     0.259 C 
ATOM     56  O7  non d ame     -31.079  11.984  27.955  0.00  0.00    -0.265 OA
BRANCH  55  57
ATOM     57  O8  non d ame     -32.001  11.854  30.021  0.00  0.00    -0.317 OA
BRANCH  57  58
ATOM     58  C29 non d ame     -32.663  10.657  29.603  0.00  0.00     0.052 C 
ATOM     59  H47 non d ame     -33.197  10.920  28.689  0.00  0.00     0.082 H 
ATOM     60  H48 non d ame     -31.893   9.886  29.582  0.00  0.00     0.082 H 
BRANCH  58  61
ATOM     61  C35 non d ame     -33.705  10.281  30.690  0.00  0.00    -0.034 A 
ATOM     62  C30 non d ame     -34.304   9.026  30.676  0.00  0.00    -0.075 A 
ATOM     63  C31 non d ame     -35.240   8.688  31.653  0.00  0.00    -0.082 A 
ATOM     64  H49 non d ame     -34.040   8.307  29.900  0.00  0.00     0.084 H 
ATOM     65  C32 non d ame     -35.578   9.612  32.645  0.00  0.00    -0.083 A 
ATOM     66  H50 non d ame     -35.706   7.703  31.640  0.00  0.00     0.083 H 
ATOM     67  C33 non d ame     -34.980  10.865  32.652  0.00  0.00    -0.082 A 
ATOM     68  H51 non d ame     -36.308   9.356  33.412  0.00  0.00     0.083 H 
ATOM     69  C34 non d ame     -34.043  11.207  31.680  0.00  0.00    -0.075 A 
ATOM     70  H52 non d ame     -35.248  11.585  33.426  0.00  0.00     0.083 H 
ATOM     71  H53 non d ame     -33.577  12.192  31.693  0.00  0.00     0.084 H 
ENDBRANCH  58  61
ENDBRANCH  57  58
ENDBRANCH  55  57
ENDBRANCH  52  55
ENDBRANCH  49  52
ENDBRANCH  47  49
BRANCH  47  72
ATOM     72  C24 non d ame     -33.807  16.261  27.824  0.00  0.00    -0.039 C 
ATOM     73  H35 non d ame     -34.329  15.570  27.162  0.00  0.00     0.036 H 
ATOM     74  H36 non d ame     -34.132  16.375  28.858  0.00  0.00     0.036 H 
BRANCH  72  75
ATOM     75  C25 non d ame     -33.879  17.710  27.144  0.00  0.00    -0.001 C 
ATOM     76  C26 non d ame     -32.528  18.571  27.516  0.00  0.00    -0.035 C 
ATOM     77  C27 non d ame     -32.900  19.778  28.003  0.00  0.00     0.085 C 
ATOM     78  H38 non d ame     -32.009  18.107  28.354  0.00  0.00     0.036 H 
ATOM     79  H39 non d ame     -31.981  18.820  26.607  0.00  0.00     0.036 H 
ATOM     80  N5  non d ame     -34.377  19.697  28.304  0.00  0.00    -0.049 N 
ATOM     81  H40 non d ame     -32.353  19.896  28.939  0.00  0.00     0.075 H 
ATOM     82  H41 non d ame     -32.742  20.483  27.187  0.00  0.00     0.075 H 
ATOM     83  C28 non d ame     -34.910  18.369  27.555  0.00  0.00     0.193 C 
ATOM     84  H42 non d ame     -34.460  19.559  29.301  0.00  0.00     0.280 HD
ATOM     85  H43 non d ame     -34.802  20.504  27.869  0.00  0.00     0.280 HD
ATOM     86  H44 non d ame     -35.479  18.447  26.629  0.00  0.00     0.129 H 
ATOM     87  H37 non d ame     -34.160  17.659  26.092  0.00  0.00     0.046 H 
BRANCH  83  88
ATOM     88  O6  non d ame     -35.725  17.598  28.440  0.00  0.00    -0.369 OA
ATOM     89  H45 non d ame     -36.602  17.498  28.063  0.00  0.00     0.212 HD
ENDBRANCH  83  88
ENDBRANCH  72  75
ENDBRANCH  47  72
ENDBRANCH  45  47
ENDBRANCH   1  43
BRANCH   1  90
ATOM     90  C16 non d ame     -31.681  14.997  23.109  0.00  0.00    -0.035 C 
ATOM     91  H21 non d ame     -32.121  14.151  22.583  0.00  0.00     0.037 H 
ATOM     92  H22 non d ame     -32.313  15.817  23.450  0.00  0.00     0.037 H 
BRANCH  90  93
ATOM     93  C17 non d ame     -30.633  15.624  22.135  0.00  0.00    -0.059 C 
ATOM     94  H23 non d ame     -30.764  16.705  22.160  0.00  0.00     0.038 H 
BRANCH  93  95
ATOM     95  C18 non d ame     -29.164  15.311  22.569  0.00  0.00    -0.073 C 
ATOM     96  H24 non d ame     -28.871  14.336  22.183  0.00  0.00     0.028 H 
ATOM     97  H25 non d ame     -28.497  16.075  22.169  0.00  0.00     0.028 H 
ATOM     98  H26 non d ame     -29.100  15.307  23.656  0.00  0.00     0.028 H 
ENDBRANCH  93  95
BRANCH  93  99
ATOM     99  C19 non d ame     -30.884  15.169  20.695  0.00  0.00    -0.073 C 
ATOM    100  H27 non d ame     -31.497  14.267  20.700  0.00  0.00     0.028 H 
ATOM    101  H28 non d ame     -31.402  15.957  20.149  0.00  0.00     0.028 H 
ATOM    102  H29 non d ame     -29.931  14.958  20.209  0.00  0.00     0.028 H 
ENDBRANCH  93  99
ENDBRANCH  90  93
ENDBRANCH   1  90
TORSDOF 26
ENDMDL
MODEL 2
REMARK VINA RESULT:      -6.7      1.882      3.984
REMARK  26 active torsions:
REMARK  status: ('A' for Active; 'I' for Inactive)
REMARK    1  A    between atoms: C2_2  and  C3_3 
REMARK    2  A    between atoms: C4_6  and  C5_7 
REMARK       I    between atoms: C5_7  and  N2_9 
REMARK    3  A    between atoms: N2_9  and  C6_10 
REMARK    4  A    between atoms: C6_10  and  C7_11 
REMARK    5  A    between atoms: C6_10  and  C8_13 
REMARK       I    between atoms: C7_11  and  N3_14 
REMARK    6  A    between atoms: N3_14  and  C9_15 
REMARK    7  A    between atoms: C9_15  and  C10_16 
REMARK    8  A    between atoms: C9_15  and  C11_18 
REMARK       I    between atoms: C10_16  and  N4_21 
REMARK    9  A    between atoms: C11_18  and  C12_19 
REMARK   10  A    between atoms: C11_18  and  C13_20 
REMARK   11  A    between atoms: N4_21  and  C14_22 
REMARK   12  A    between atoms: C14_22  and  C15_23 
REMARK   13  A    between atoms: C14_22  and  C16_25 
REMARK       I    between atoms: C15_23  and  N6_40 
REMARK   14  A    between atoms: C16_25  and  C17_26 
REMARK   15  A    between atoms: C17_26  and  C18_27 
REMARK   16  A    between atoms: C17_26  and  C19_28 
REMARK   17  A    between atoms: C20_29  and  C21_30 
REMARK   18  A    between atoms: C20_29  and  C24_33 
REMARK   19  A    between atoms: C20_29  and  N6_40 
REMARK   20  A    between atoms: C21_30  and  C22_31 
REMARK   21  A    between atoms: C22_31  and  C23_32 
REMARK   22  A    between atoms: C23_32  and  O8_43 
REMARK   23  A    between atoms: C24_33  and  C25_34 
REMARK   24  A    between atoms: C28_38  and  O6_39 
REMARK   25  A    between atoms: C29_42  and  O8_43 
REMARK   26  A    between atoms: C29_42  and  C35_49 
ROOT
ATOM      1  C14 non d ame     -30.763  14.208  24.116  0.00  0.00     0.089 C 
ATOM      2  H20 non d ame     -29.675  14.142  24.070  0.00  0.00     0.087 H 
ENDROOT
BRANCH   1   3
ATOM      3  N4  non d ame     -31.275  12.863  24.332  0.00  0.00    -0.346 N 
ATOM      4  C10 non d ame     -30.715  11.700  23.552  0.00  0.00     0.241 C 
ATOM      5  O4  non d ame     -29.855  11.872  22.753  0.00  0.00    -0.271 OA
ATOM      6  H19 non d ame     -32.009  12.738  25.015  0.00  0.00     0.163 HD
BRANCH   4   7
ATOM      7  C9  non d ame     -31.253  10.314  23.794  0.00  0.00     0.092 C 
ATOM      8  H11 non d ame     -30.756   9.883  24.663  0.00  0.00     0.088 H 
BRANCH   7   9
ATOM      9  N3  non d ame     -32.683  10.391  24.105  0.00  0.00    -0.346 N 
ATOM     10  C7  non d ame     -33.194   9.770  25.302  0.00  0.00     0.240 C 
ATOM     11  O3  non d ame     -32.469   9.203  26.025  0.00  0.00    -0.271 OA
ATOM     12  H10 non d ame     -33.321  10.876  23.490  0.00  0.00     0.163 HD
BRANCH  10  13
ATOM     13  C6  non d ame     -34.718   9.854  25.627  0.00  0.00     0.086 C 
ATOM     14  H6  non d ame     -35.340   9.422  24.843  0.00  0.00     0.086 H 
BRANCH  13  15
ATOM     15  N2  non d ame     -34.985   9.092  26.836  0.00  0.00    -0.343 N 
ATOM     16  C5  non d ame     -35.484   7.720  26.729  0.00  0.00     0.273 C 
ATOM     17  O2  non d ame     -35.670   7.238  25.666  0.00  0.00    -0.266 OA
ATOM     18  H5  non d ame     -34.826   9.513  27.741  0.00  0.00     0.163 HD
BRANCH  16  19
ATOM     19  C4  non d ame     -35.769   6.903  27.999  0.00  0.00     0.154 A 
ATOM     20  C1  non d ame     -36.861   7.071  28.908  0.00  0.00    -0.017 A 
ATOM     21  C2  non d ame     -36.666   6.081  29.897  0.00  0.00     0.077 A 
ATOM     22  H1  non d ame     -37.670   7.800  28.858  0.00  0.00     0.091 H 
ATOM     23  O1  non d ame     -35.587   5.426  29.582  0.00  0.00    -0.218 OA
ATOM     24  N1  non d ame     -35.046   5.887  28.478  0.00  0.00    -0.123 NA
BRANCH  21  25
ATOM     25  C3  non d ame     -37.556   5.827  31.107  0.00  0.00    -0.029 C 
ATOM     26  H2  non d ame     -37.035   6.138  32.012  0.00  0.00     0.036 H 
ATOM     27  H3  non d ame     -38.478   6.399  31.005  0.00  0.00     0.036 H 
ATOM     28  H4  non d ame     -37.791   4.765  31.169  0.00  0.00     0.036 H 
ENDBRANCH  21  25
ENDBRANCH  16  19
ENDBRANCH  13  15
BRANCH  13  29
ATOM     29  C8  non d ame     -35.115  11.294  25.825  0.00  0.00    -0.049 C 
ATOM     30  H7  non d ame     -35.433  11.445  26.857  0.00  0.00     0.030 H 
ATOM     31  H8  non d ame     -34.262  11.938  25.611  0.00  0.00     0.030 H 
ATOM     32  H9  non d ame     -35.936  11.542  25.153  0.00  0.00     0.030 H 
ENDBRANCH  13  29
ENDBRANCH  10  13
ENDBRANCH   7   9
BRANCH   7  33
ATOM     33  C11 non d ame     -31.049   9.449  22.515  0.00  0.00    -0.033 C 
ATOM     34  H12 non d ame     -30.844  10.128  21.688  0.00  0.00     0.042 H 
BRANCH  33  35
ATOM     35  C12 non d ame     -29.817   8.501  22.660  0.00  0.00    -0.071 C 
ATOM     36  H13 non d ame     -30.029   7.742  23.414  0.00  0.00     0.028 H 
ATOM     37  H14 non d ame     -29.616   8.018  21.705  0.00  0.00     0.028 H 
ATOM     38  H15 non d ame     -28.947   9.081  22.965  0.00  0.00     0.028 H 
ENDBRANCH  33  35
BRANCH  33  39
ATOM     39  C13 non d ame     -32.344   8.645  22.171  0.00  0.00    -0.071 C 
ATOM     40  H16 non d ame     -33.218   9.199  22.517  0.00  0.00     0.028 H 
ATOM     41  H17 non d ame     -32.407   8.502  21.092  0.00  0.00     0.028 H 
ATOM     42  H18 non d ame     -32.311   7.674  22.664  0.00  0.00     0.028 H 
ENDBRANCH  33  39
ENDBRANCH   7  33
ENDBRANCH   4   7
ENDBRANCH   1   3
BRANCH   1  43
ATOM     43  C15 non d ame     -31.248  15.116  25.281  0.00  0.00     0.240 C 
ATOM     44  O5  non d ame     -31.070  16.290  25.229  0.00  0.00    -0.271 OA
ATOM     45  N6  non d ame     -31.942  14.523  26.460  0.00  0.00    -0.355 N 
ATOM     46  H46 non d ame     -32.103  13.528  26.513  0.00  0.00     0.162 HD
BRANCH  45  47
ATOM     47  C20 non d ame     -32.399  15.401  27.559  0.00  0.00     0.013 C 
ATOM     48  H30 non d ame     -31.776  16.295  27.555  0.00  0.00     0.072 H 
BRANCH  47  49
ATOM     49  C21 non d ame     -32.248  14.672  28.875  0.00  0.00    -0.038 C 
ATOM     50  H31 non d ame     -32.084  15.447  29.625  0.00  0.00     0.036 H 
ATOM     51  H32 non d ame     -33.115  14.016  28.950  0.00  0.00     0.036 H 
BRANCH  49  52
ATOM     52  C22 non d ame     -31.004  13.757  28.915  0.00  0.00     0.018 C 
ATOM     53  H33 non d ame     -30.372  14.083  28.089  0.00  0.00     0.048 H 
ATOM     54  H34 non d ame     -30.632  13.808  29.939  0.00  0.00     0.048 H 
BRANCH  52  55
ATOM     55  C23 non d ame     -31.319  12.259  28.648  0.00  0.00     0.259 C 
ATOM     56  O7  non d ame     -31.192  11.801  27.559  0.00  0.00    -0.265 OA
BRANCH  55  57
ATOM     57  O8  non d ame     -31.776  11.442  29.719  0.00  0.00    -0.317 OA
BRANCH  57  58
ATOM     58  C29 non d ame     -32.754  10.472  29.335  0.00  0.00     0.052 C 
ATOM     59  H47 non d ame     -33.327  10.933  28.530  0.00  0.00     0.082 H 
ATOM     60  H48 non d ame     -32.201   9.551  29.151  0.00  0.00     0.082 H 
BRANCH  58  61
ATOM     61  C35 non d ame     -33.701  10.242  30.543  0.00  0.00    -0.034 A 
ATOM     62  C30 non d ame     -34.342   9.018  30.703  0.00  0.00    -0.075 A 
ATOM     63  C31 non d ame     -35.193   8.812  31.787  0.00  0.00    -0.082 A 
ATOM     64  H49 non d ame     -34.179   8.220  29.977  0.00  0.00     0.084 H 
ATOM     65  C32 non d ame     -35.403   9.836  32.714  0.00  0.00    -0.083 A 
ATOM     66  H50 non d ame     -35.693   7.851  31.911  0.00  0.00     0.083 H 
ATOM     67  C33 non d ame     -34.764  11.057  32.549  0.00  0.00    -0.082 A 
ATOM     68  H51 non d ame     -36.066   9.683  33.565  0.00  0.00     0.083 H 
ATOM     69  C34 non d ame     -33.911  11.267  31.467  0.00  0.00    -0.075 A 
ATOM     70  H52 non d ame     -34.932  11.856  33.272  0.00  0.00     0.083 H 
ATOM     71  H53 non d ame     -33.411  12.229  31.345  0.00  0.00     0.084 H 
ENDBRANCH  58  61
ENDBRANCH  57  58
ENDBRANCH  55  57
ENDBRANCH  52  55
ENDBRANCH  49  52
ENDBRANCH  47  49
BRANCH  47  72
ATOM     72  C24 non d ame     -33.864  15.774  27.348  0.00  0.00    -0.039 C 
ATOM     73  H35 non d ame     -34.171  15.244  26.446  0.00  0.00     0.036 H 
ATOM     74  H36 non d ame     -34.357  15.563  28.297  0.00  0.00     0.036 H 
BRANCH  72  75
ATOM     75  C25 non d ame     -34.042  17.340  27.061  0.00  0.00    -0.001 C 
ATOM     76  C26 non d ame     -35.282  17.937  27.961  0.00  0.00    -0.035 C 
ATOM     77  C27 non d ame     -36.126  18.615  27.146  0.00  0.00     0.085 C 
ATOM     78  H38 non d ame     -35.896  17.120  28.340  0.00  0.00     0.036 H 
ATOM     79  H39 non d ame     -34.914  18.704  28.642  0.00  0.00     0.036 H 
ATOM     80  N5  non d ame     -35.750  18.259  25.728  0.00  0.00    -0.049 N 
ATOM     81  H40 non d ame     -37.118  18.219  27.361  0.00  0.00     0.075 H 
ATOM     82  H41 non d ame     -35.910  19.669  27.316  0.00  0.00     0.075 H 
ATOM     83  C28 non d ame     -34.298  17.560  25.815  0.00  0.00     0.193 C 
ATOM     84  H42 non d ame     -36.421  17.569  25.419  0.00  0.00     0.280 HD
ATOM     85  H43 non d ame     -35.658  19.133  25.229  0.00  0.00     0.280 HD
ATOM     86  H44 non d ame     -33.401  18.108  25.523  0.00  0.00     0.129 H 
ATOM     87  H37 non d ame     -33.095  17.877  27.103  0.00  0.00     0.046 H 
BRANCH  83  88
ATOM     88  O6  non d ame     -34.281  16.360  25.040  0.00  0.00    -0.369 OA
ATOM     89  H45 non d ame     -34.548  15.620  25.591  0.00  0.00     0.212 HD
ENDBRANCH  83  88
ENDBRANCH  72  75
ENDBRANCH  47  72
ENDBRANCH  45  47
ENDBRANCH   1  43
BRANCH   1  90
ATOM     90  C16 non d ame     -31.302  14.737  22.796  0.00  0.00    -0.035 C 
ATOM     91  H21 non d ame     -31.939  13.944  22.406  0.00  0.00     0.037 H 
ATOM     92  H22 non d ame     -31.728  15.713  23.030  0.00  0.00     0.037 H 
BRANCH  90  93
ATOM     93  C17 non d ame     -30.197  14.984  21.721  0.00  0.00    -0.059 C 
ATOM     94  H23 non d ame     -30.093  14.069  21.138  0.00  0.00     0.038 H 
BRANCH  93  95
ATOM     95  C18 non d ame     -30.578  16.136  20.737  0.00  0.00    -0.073 C 
ATOM     96  H24 non d ame     -29.926  16.100  19.865  0.00  0.00     0.028 H 
ATOM     97  H25 non d ame     -31.614  16.016  20.421  0.00  0.00     0.028 H 
ATOM     98  H26 non d ame     -30.460  17.096  21.239  0.00  0.00     0.028 H 
ENDBRANCH  93  95
BRANCH  93  99
ATOM     99  C19 non d ame     -28.843  15.258  22.382  0.00  0.00    -0.073 C 
ATOM    100  H27 non d ame     -28.286  15.979  21.783  0.00  0.00     0.028 H 
ATOM    101  H28 non d ame     -29.001  15.661  23.382  0.00  0.00     0.028 H 
ATOM    102  H29 non d ame     -28.278  14.328  22.451  0.00  0.00     0.028 H 
ENDBRANCH  93  99
ENDBRANCH  90  93
ENDBRANCH   1  90
TORSDOF 26
ENDMDL
MODEL 3
REMARK VINA RESULT:      -6.5      1.879      6.882
REMARK  26 active torsions:
REMARK  status: ('A' for Active; 'I' for Inactive)
REMARK    1  A    between atoms: C2_2  and  C3_3 
REMARK    2  A    between atoms: C4_6  and  C5_7 
REMARK       I    between atoms: C5_7  and  N2_9 
REMARK    3  A    between atoms: N2_9  and  C6_10 
REMARK    4  A    between atoms: C6_10  and  C7_11 
REMARK    5  A    between atoms: C6_10  and  C8_13 
REMARK       I    between atoms: C7_11  and  N3_14 
REMARK    6  A    between atoms: N3_14  and  C9_15 
REMARK    7  A    between atoms: C9_15  and  C10_16 
REMARK    8  A    between atoms: C9_15  and  C11_18 
REMARK       I    between atoms: C10_16  and  N4_21 
REMARK    9  A    between atoms: C11_18  and  C12_19 
REMARK   10  A    between atoms: C11_18  and  C13_20 
REMARK   11  A    between atoms: N4_21  and  C14_22 
REMARK   12  A    between atoms: C14_22  and  C15_23 
REMARK   13  A    between atoms: C14_22  and  C16_25 
REMARK       I    between atoms: C15_23  and  N6_40 
REMARK   14  A    between atoms: C16_25  and  C17_26 
REMARK   15  A    between atoms: C17_26  and  C18_27 
REMARK   16  A    between atoms: C17_26  and  C19_28 
REMARK   17  A    between atoms: C20_29  and  C21_30 
REMARK   18  A    between atoms: C20_29  and  C24_33 
REMARK   19  A    between atoms: C20_29  and  N6_40 
REMARK   20  A    between atoms: C21_30  and  C22_31 
REMARK   21  A    between atoms: C22_31  and  C23_32 
REMARK   22  A    between atoms: C23_32  and  O8_43 
REMARK   23  A    between atoms: C24_33  and  C25_34 
REMARK   24  A    between atoms: C28_38  and  O6_39 
REMARK   25  A    between atoms: C29_42  and  O8_43 
REMARK   26  A    between atoms: C29_42  and  C35_49 
ROOT
ATOM      1  C14 non d ame     -36.066  14.502  25.848  0.00  0.00     0.089 C 
ATOM      2  H20 non d ame     -36.907  14.866  26.438  0.00  0.00     0.087 H 
ENDROOT
BRANCH   1   3
ATOM      3  N4  non d ame     -34.866  15.157  26.346  0.00  0.00    -0.346 N 
ATOM      4  C10 non d ame     -34.970  16.270  27.358  0.00  0.00     0.241 C 
ATOM      5  O4  non d ame     -36.032  16.623  27.755  0.00  0.00    -0.271 OA
ATOM      6  H19 non d ame     -33.972  14.844  25.995  0.00  0.00     0.163 HD
BRANCH   4   7
ATOM      7  C9  non d ame     -33.717  16.933  27.868  0.00  0.00     0.092 C 
ATOM      8  H11 non d ame     -33.744  16.961  28.957  0.00  0.00     0.088 H 
BRANCH   7   9
ATOM      9  N3  non d ame     -32.550  16.135  27.482  0.00  0.00    -0.346 N 
ATOM     10  C7  non d ame     -32.393  14.795  27.992  0.00  0.00     0.240 C 
ATOM     11  O3  non d ame     -33.196  14.344  28.715  0.00  0.00    -0.271 OA
ATOM     12  H10 non d ame     -31.848  16.511  26.861  0.00  0.00     0.163 HD
BRANCH  10  13
ATOM     13  C6  non d ame     -31.147  13.951  27.580  0.00  0.00     0.086 C 
ATOM     14  H6  non d ame     -31.393  12.910  27.373  0.00  0.00     0.086 H 
BRANCH  13  15
ATOM     15  N2  non d ame     -30.590  14.500  26.355  0.00  0.00    -0.343 N 
ATOM     16  C5  non d ame     -31.266  14.249  25.080  0.00  0.00     0.273 C 
ATOM     17  O2  non d ame     -32.256  13.603  25.051  0.00  0.00    -0.266 OA
ATOM     18  H5  non d ame     -29.743  15.049  26.389  0.00  0.00     0.163 HD
BRANCH  16  19
ATOM     19  C4  non d ame     -30.690  14.824  23.777  0.00  0.00     0.154 A 
ATOM     20  C1  non d ame     -31.408  15.143  22.581  0.00  0.00    -0.017 A 
ATOM     21  C2  non d ame     -30.428  15.635  21.689  0.00  0.00     0.077 A 
ATOM     22  H1  non d ame     -32.475  15.035  22.389  0.00  0.00     0.091 H 
ATOM     23  O1  non d ame     -29.286  15.599  22.311  0.00  0.00    -0.218 OA
ATOM     24  N1  non d ame     -29.413  15.130  23.530  0.00  0.00    -0.123 NA
BRANCH  21  25
ATOM     25  C3  non d ame     -30.667  16.118  20.265  0.00  0.00    -0.029 C 
ATOM     26  H2  non d ame     -30.778  15.259  19.603  0.00  0.00     0.036 H 
ATOM     27  H3  non d ame     -31.574  16.721  20.233  0.00  0.00     0.036 H 
ATOM     28  H4  non d ame     -29.819  16.721  19.939  0.00  0.00     0.036 H 
ENDBRANCH  21  25
ENDBRANCH  16  19
ENDBRANCH  13  15
BRANCH  13  29
ATOM     29  C8  non d ame     -30.118  13.999  28.681  0.00  0.00    -0.049 C 
ATOM     30  H7  non d ame     -30.069  13.028  29.175  0.00  0.00     0.030 H 
ATOM     31  H8  non d ame     -29.144  14.240  28.258  0.00  0.00     0.030 H 
ATOM     32  H9  non d ame     -30.398  14.762  29.408  0.00  0.00     0.030 H 
ENDBRANCH  13  29
ENDBRANCH  10  13
ENDBRANCH   7   9
BRANCH   7  33
ATOM     33  C11 non d ame     -33.596  18.357  27.249  0.00  0.00    -0.033 C 
ATOM     34  H12 non d ame     -34.593  18.797  27.238  0.00  0.00     0.042 H 
BRANCH  33  35
ATOM     35  C12 non d ame     -32.687  19.279  28.120  0.00  0.00    -0.071 C 
ATOM     36  H13 non d ame     -32.792  19.007  29.170  0.00  0.00     0.028 H 
ATOM     37  H14 non d ame     -31.648  19.156  27.815  0.00  0.00     0.028 H 
ATOM     38  H15 non d ame     -32.986  20.318  27.983  0.00  0.00     0.028 H 
ENDBRANCH  33  35
BRANCH  33  39
ATOM     39  C13 non d ame     -33.084  18.285  25.775  0.00  0.00    -0.071 C 
ATOM     40  H16 non d ame     -33.823  17.773  25.158  0.00  0.00     0.028 H 
ATOM     41  H17 non d ame     -32.928  19.295  25.394  0.00  0.00     0.028 H 
ATOM     42  H18 non d ame     -32.142  17.737  25.744  0.00  0.00     0.028 H 
ENDBRANCH  33  39
ENDBRANCH   7  33
ENDBRANCH   4   7
ENDBRANCH   1   3
BRANCH   1  43
ATOM     43  C15 non d ame     -35.880  12.963  25.977  0.00  0.00     0.240 C 
ATOM     44  O5  non d ame     -36.694  12.229  25.518  0.00  0.00    -0.271 OA
ATOM     45  N6  non d ame     -34.681  12.404  26.665  0.00  0.00    -0.355 N 
ATOM     46  H46 non d ame     -33.980  13.018  27.054  0.00  0.00     0.162 HD
BRANCH  45  47
ATOM     47  C20 non d ame     -34.518  10.939  26.778  0.00  0.00     0.013 C 
ATOM     48  H30 non d ame     -35.204  10.469  26.073  0.00  0.00     0.072 H 
BRANCH  47  49
ATOM     49  C21 non d ame     -34.850  10.506  28.188  0.00  0.00    -0.038 C 
ATOM     50  H31 non d ame     -35.019  11.427  28.746  0.00  0.00     0.036 H 
ATOM     51  H32 non d ame     -35.651   9.773  28.090  0.00  0.00     0.036 H 
BRANCH  49  52
ATOM     52  C22 non d ame     -33.678   9.782  28.885  0.00  0.00     0.018 C 
ATOM     53  H33 non d ame     -33.992   8.744  28.988  0.00  0.00     0.048 H 
ATOM     54  H34 non d ame     -32.791  10.027  28.301  0.00  0.00     0.048 H 
BRANCH  52  55
ATOM     55  C23 non d ame     -33.397  10.289  30.327  0.00  0.00     0.259 C 
ATOM     56  O7  non d ame     -32.849  11.328  30.504  0.00  0.00    -0.265 OA
BRANCH  55  57
ATOM     57  O8  non d ame     -33.791   9.489  31.435  0.00  0.00    -0.317 OA
BRANCH  57  58
ATOM     58  C29 non d ame     -35.160   9.654  31.815  0.00  0.00     0.052 C 
ATOM     59  H47 non d ame     -35.151   9.811  32.893  0.00  0.00     0.082 H 
ATOM     60  H48 non d ame     -35.558  10.426  31.156  0.00  0.00     0.082 H 
BRANCH  58  61
ATOM     61  C35 non d ame     -35.903   8.325  31.518  0.00  0.00    -0.034 A 
ATOM     62  C30 non d ame     -35.185   7.142  31.374  0.00  0.00    -0.075 A 
ATOM     63  C31 non d ame     -35.852   5.947  31.108  0.00  0.00    -0.082 A 
ATOM     64  H49 non d ame     -34.099   7.151  31.470  0.00  0.00     0.084 H 
ATOM     65  C32 non d ame     -37.244   5.938  30.983  0.00  0.00    -0.083 A 
ATOM     66  H50 non d ame     -35.286   5.022  30.997  0.00  0.00     0.083 H 
ATOM     67  C33 non d ame     -37.956   7.121  31.124  0.00  0.00    -0.082 A 
ATOM     68  H51 non d ame     -37.773   5.009  30.775  0.00  0.00     0.083 H 
ATOM     69  C34 non d ame     -37.294   8.317  31.393  0.00  0.00    -0.075 A 
ATOM     70  H52 non d ame     -39.042   7.111  31.024  0.00  0.00     0.083 H 
ATOM     71  H53 non d ame     -37.861   9.242  31.503  0.00  0.00     0.084 H 
ENDBRANCH  58  61
ENDBRANCH  57  58
ENDBRANCH  55  57
ENDBRANCH  52  55
ENDBRANCH  49  52
ENDBRANCH  47  49
BRANCH  47  72
ATOM     72  C24 non d ame     -33.076  10.553  26.453  0.00  0.00    -0.039 C 
ATOM     73  H35 non d ame     -32.489  11.455  26.624  0.00  0.00     0.036 H 
ATOM     74  H36 non d ame     -32.878   9.654  27.037  0.00  0.00     0.036 H 
BRANCH  72  75
ATOM     75  C25 non d ame     -32.901  10.161  24.909  0.00  0.00    -0.001 C 
ATOM     76  C26 non d ame     -33.386   8.609  24.667  0.00  0.00    -0.035 C 
ATOM     77  C27 non d ame     -32.406   7.943  24.010  0.00  0.00     0.085 C 
ATOM     78  H38 non d ame     -33.455   8.086  25.620  0.00  0.00     0.036 H 
ATOM     79  H39 non d ame     -34.223   8.583  23.969  0.00  0.00     0.036 H 
ATOM     80  N5  non d ame     -31.169   8.805  24.072  0.00  0.00    -0.049 N 
ATOM     81  H40 non d ame     -32.235   7.034  24.587  0.00  0.00     0.075 H 
ATOM     82  H41 non d ame     -32.742   7.877  22.976  0.00  0.00     0.075 H 
ATOM     83  C28 non d ame     -31.670  10.268  24.536  0.00  0.00     0.193 C 
ATOM     84  H42 non d ame     -30.586   8.419  24.801  0.00  0.00     0.280 HD
ATOM     85  H43 non d ame     -30.819   8.870  23.127  0.00  0.00     0.280 HD
ATOM     86  H44 non d ame     -31.751  11.081  23.814  0.00  0.00     0.129 H 
ATOM     87  H37 non d ame     -33.313  10.919  24.242  0.00  0.00     0.046 H 
BRANCH  83  88
ATOM     88  O6  non d ame     -30.832  10.768  25.580  0.00  0.00    -0.369 OA
ATOM     89  H45 non d ame     -30.056  11.183  25.197  0.00  0.00     0.212 HD
ENDBRANCH  83  88
ENDBRANCH  72  75
ENDBRANCH  47  72
ENDBRANCH  45  47
ENDBRANCH   1  43
BRANCH   1  90
ATOM     90  C16 non d ame     -36.262  14.872  24.386  0.00  0.00    -0.035 C 
ATOM     91  H21 non d ame     -35.471  15.587  24.161  0.00  0.00     0.037 H 
ATOM     92  H22 non d ame     -36.309  13.923  23.852  0.00  0.00     0.037 H 
BRANCH  90  93
ATOM     93  C17 non d ame     -37.612  15.606  24.102  0.00  0.00    -0.059 C 
ATOM     94  H23 non d ame     -37.379  16.640  23.848  0.00  0.00     0.038 H 
BRANCH  93  95
ATOM     95  C18 non d ame     -38.380  14.980  22.894  0.00  0.00    -0.073 C 
ATOM     96  H24 non d ame     -38.197  13.906  22.864  0.00  0.00     0.028 H 
ATOM     97  H25 non d ame     -39.448  15.163  23.008  0.00  0.00     0.028 H 
ATOM     98  H26 non d ame     -38.030  15.434  21.967  0.00  0.00     0.028 H 
ENDBRANCH  93  95
BRANCH  93  99
ATOM     99  C19 non d ame     -38.494  15.632  25.353  0.00  0.00    -0.073 C 
ATOM    100  H27 non d ame     -38.623  16.663  25.685  0.00  0.00     0.028 H 
ATOM    101  H28 non d ame     -39.468  15.200  25.121  0.00  0.00     0.028 H 
ATOM    102  H29 non d ame     -38.019  15.052  26.145  0.00  0.00     0.028 H 
ENDBRANCH  93  99
ENDBRANCH  90  93
ENDBRANCH   1  90
TORSDOF 26
ENDMDL
MODEL 4
REMARK VINA RESULT:      -6.5      2.121      5.263
REMARK  26 active torsions:
REMARK  status: ('A' for Active; 'I' for Inactive)
REMARK    1  A    between atoms: C2_2  and  C3_3 
REMARK    2  A    between atoms: C4_6  and  C5_7 
REMARK       I    between atoms: C5_7  and  N2_9 
REMARK    3  A    between atoms: N2_9  and  C6_10 
REMARK    4  A    between atoms: C6_10  and  C7_11 
REMARK    5  A    between atoms: C6_10  and  C8_13 
REMARK       I    between atoms: C7_11  and  N3_14 
REMARK    6  A    between atoms: N3_14  and  C9_15 
REMARK    7  A    between atoms: C9_15  and  C10_16 
REMARK    8  A    between atoms: C9_15  and  C11_18 
REMARK       I    between atoms: C10_16  and  N4_21 
REMARK    9  A    between atoms: C11_18  and  C12_19 
REMARK   10  A    between atoms: C11_18  and  C13_20 
REMARK   11  A    between atoms: N4_21  and  C14_22 
REMARK   12  A    between atoms: C14_22  and  C15_23 
REMARK   13  A    between atoms: C14_22  and  C16_25 
REMARK       I    between atoms: C15_23  and  N6_40 
REMARK   14  A    between atoms: C16_25  and  C17_26 
REMARK   15  A    between atoms: C17_26  and  C18_27 
REMARK   16  A    between atoms: C17_26  and  C19_28 
REMARK   17  A    between atoms: C20_29  and  C21_30 
REMARK   18  A    between atoms: C20_29  and  C24_33 
REMARK   19  A    between atoms: C20_29  and  N6_40 
REMARK   20  A    between atoms: C21_30  and  C22_31 
REMARK   21  A    between atoms: C22_31  and  C23_32 
REMARK   22  A    between atoms: C23_32  and  O8_43 
REMARK   23  A    between atoms: C24_33  and  C25_34 
REMARK   24  A    between atoms: C28_38  and  O6_39 
REMARK   25  A    between atoms: C29_42  and  O8_43 
REMARK   26  A    between atoms: C29_42  and  C35_49 
ROOT
ATOM      1  C14 non d ame     -31.226  13.768  24.637  0.00  0.00     0.089 C 
ATOM      2  H20 non d ame     -30.203  13.685  25.006  0.00  0.00     0.087 H 
ENDROOT
BRANCH   1   3
ATOM      3  N4  non d ame     -31.700  12.422  24.352  0.00  0.00    -0.346 N 
ATOM      4  C10 non d ame     -31.465  11.307  25.340  0.00  0.00     0.241 C 
ATOM      5  O4  non d ame     -30.889  11.517  26.356  0.00  0.00    -0.271 OA
ATOM      6  H19 non d ame     -32.186  12.264  23.481  0.00  0.00     0.163 HD
BRANCH   4   7
ATOM      7  C9  non d ame     -31.967   9.921  25.031  0.00  0.00     0.092 C 
ATOM      8  H11 non d ame     -31.221   9.191  25.345  0.00  0.00     0.088 H 
BRANCH   7   9
ATOM      9  N3  non d ame     -33.184   9.659  25.805  0.00  0.00    -0.346 N 
ATOM     10  C7  non d ame     -33.140   8.763  26.935  0.00  0.00     0.240 C 
ATOM     11  O3  non d ame     -32.134   8.245  27.235  0.00  0.00    -0.271 OA
ATOM     12  H10 non d ame     -34.060  10.097  25.558  0.00  0.00     0.163 HD
BRANCH  10  13
ATOM     13  C6  non d ame     -34.439   8.485  27.754  0.00  0.00     0.086 C 
ATOM     14  H6  non d ame     -34.309   8.656  28.822  0.00  0.00     0.086 H 
BRANCH  13  15
ATOM     15  N2  non d ame     -35.480   9.398  27.311  0.00  0.00    -0.343 N 
ATOM     16  C5  non d ame     -36.291  10.105  28.304  0.00  0.00     0.273 C 
ATOM     17  O2  non d ame     -36.100   9.930  29.458  0.00  0.00    -0.266 OA
ATOM     18  H5  non d ame     -35.638   9.539  26.323  0.00  0.00     0.163 HD
BRANCH  16  19
ATOM     19  C4  non d ame     -37.393  11.073  27.850  0.00  0.00     0.154 A 
ATOM     20  C1  non d ame     -37.571  11.630  26.543  0.00  0.00    -0.017 A 
ATOM     21  C2  non d ame     -38.717  12.449  26.650  0.00  0.00     0.077 A 
ATOM     22  H1  non d ame     -36.961  11.466  25.655  0.00  0.00     0.091 H 
ATOM     23  O1  non d ame     -39.142  12.363  27.876  0.00  0.00    -0.218 OA
ATOM     24  N1  non d ame     -38.385  11.567  28.596  0.00  0.00    -0.123 NA
BRANCH  21  25
ATOM     25  C3  non d ame     -39.341  13.276  25.534  0.00  0.00    -0.029 C 
ATOM     26  H2  non d ame     -38.587  13.495  24.779  0.00  0.00     0.036 H 
ATOM     27  H3  non d ame     -40.157  12.715  25.079  0.00  0.00     0.036 H 
ATOM     28  H4  non d ame     -39.726  14.209  25.944  0.00  0.00     0.036 H 
ENDBRANCH  21  25
ENDBRANCH  16  19
ENDBRANCH  13  15
BRANCH  13  29
ATOM     29  C8  non d ame     -34.876   7.059  27.538  0.00  0.00    -0.049 C 
ATOM     30  H7  non d ame     -35.862   7.048  27.074  0.00  0.00     0.030 H 
ATOM     31  H8  non d ame     -34.162   6.555  26.888  0.00  0.00     0.030 H 
ATOM     32  H9  non d ame     -34.921   6.543  28.498  0.00  0.00     0.030 H 
ENDBRANCH  13  29
ENDBRANCH  10  13
ENDBRANCH   7   9
BRANCH   7  33
ATOM     33  C11 non d ame     -32.289   9.813  23.512  0.00  0.00    -0.033 C 
ATOM     34  H12 non d ame     -32.459  10.823  23.139  0.00  0.00     0.042 H 
BRANCH  33  35
ATOM     35  C12 non d ame     -31.086   9.215  22.717  0.00  0.00    -0.071 C 
ATOM     36  H13 non d ame     -31.037   9.676  21.731  0.00  0.00     0.028 H 
ATOM     37  H14 non d ame     -30.161   9.411  23.258  0.00  0.00     0.028 H 
ATOM     38  H15 non d ame     -31.223   8.139  22.607  0.00  0.00     0.028 H 
ENDBRANCH  33  35
BRANCH  33  39
ATOM     39  C13 non d ame     -33.593   8.985  23.274  0.00  0.00    -0.071 C 
ATOM     40  H16 non d ame     -34.391   9.374  23.906  0.00  0.00     0.028 H 
ATOM     41  H17 non d ame     -33.887   9.063  22.227  0.00  0.00     0.028 H 
ATOM     42  H18 non d ame     -33.409   7.939  23.521  0.00  0.00     0.028 H 
ENDBRANCH  33  39
ENDBRANCH   7  33
ENDBRANCH   4   7
ENDBRANCH   1   3
BRANCH   1  43
ATOM     43  C15 non d ame     -32.177  14.418  25.683  0.00  0.00     0.240 C 
ATOM     44  O5  non d ame     -33.259  14.782  25.352  0.00  0.00    -0.271 OA
ATOM     45  N6  non d ame     -31.742  14.578  27.100  0.00  0.00    -0.355 N 
ATOM     46  H46 non d ame     -30.827  14.268  27.394  0.00  0.00     0.162 HD
BRANCH  45  47
ATOM     47  C20 non d ame     -32.659  15.196  28.082  0.00  0.00     0.013 C 
ATOM     48  H30 non d ame     -33.654  15.227  27.639  0.00  0.00     0.072 H 
BRANCH  47  49
ATOM     49  C21 non d ame     -32.186  16.598  28.393  0.00  0.00    -0.038 C 
ATOM     50  H31 non d ame     -32.750  16.911  29.272  0.00  0.00     0.036 H 
ATOM     51  H32 non d ame     -31.098  16.540  28.434  0.00  0.00     0.036 H 
BRANCH  49  52
ATOM     52  C22 non d ame     -32.527  17.607  27.274  0.00  0.00     0.018 C 
ATOM     53  H33 non d ame     -31.594  17.784  26.742  0.00  0.00     0.048 H 
ATOM     54  H34 non d ame     -33.384  17.185  26.747  0.00  0.00     0.048 H 
BRANCH  52  55
ATOM     55  C23 non d ame     -32.990  18.993  27.801  0.00  0.00     0.259 C 
ATOM     56  O7  non d ame     -32.326  19.594  28.582  0.00  0.00    -0.265 OA
BRANCH  55  57
ATOM     57  O8  non d ame     -34.226  19.534  27.349  0.00  0.00    -0.317 OA
BRANCH  57  58
ATOM     58  C29 non d ame     -35.378  18.936  27.951  0.00  0.00     0.052 C 
ATOM     59  H47 non d ame     -35.029  18.500  28.887  0.00  0.00     0.082 H 
ATOM     60  H48 non d ame     -36.141  19.713  27.962  0.00  0.00     0.082 H 
BRANCH  58  61
ATOM     61  C35 non d ame     -35.860  17.788  27.025  0.00  0.00    -0.034 A 
ATOM     62  C30 non d ame     -36.115  18.037  25.680  0.00  0.00    -0.075 A 
ATOM     63  C31 non d ame     -36.548  17.006  24.848  0.00  0.00    -0.082 A 
ATOM     64  H49 non d ame     -35.975  19.041  25.278  0.00  0.00     0.084 H 
ATOM     65  C32 non d ame     -36.729  15.721  25.366  0.00  0.00    -0.083 A 
ATOM     66  H50 non d ame     -36.745  17.205  23.794  0.00  0.00     0.083 H 
ATOM     67  C33 non d ame     -36.477  15.477  26.709  0.00  0.00    -0.082 A 
ATOM     68  H51 non d ame     -37.067  14.909  24.722  0.00  0.00     0.083 H 
ATOM     69  C34 non d ame     -36.042  16.504  27.544  0.00  0.00    -0.075 A 
ATOM     70  H52 non d ame     -36.621  14.474  27.111  0.00  0.00     0.083 H 
ATOM     71  H53 non d ame     -35.844  16.305  28.598  0.00  0.00     0.084 H 
ENDBRANCH  58  61
ENDBRANCH  57  58
ENDBRANCH  55  57
ENDBRANCH  52  55
ENDBRANCH  49  52
ENDBRANCH  47  49
BRANCH  47  72
ATOM     72  C24 non d ame     -32.675  14.367  29.365  0.00  0.00    -0.039 C 
ATOM     73  H35 non d ame     -32.097  14.942  30.089  0.00  0.00     0.036 H 
ATOM     74  H36 non d ame     -33.726  14.150  29.557  0.00  0.00     0.036 H 
BRANCH  72  75
ATOM     75  C25 non d ame     -31.930  12.962  29.173  0.00  0.00    -0.001 C 
ATOM     76  C26 non d ame     -33.024  11.736  29.227  0.00  0.00    -0.035 C 
ATOM     77  C27 non d ame     -32.599  10.811  30.120  0.00  0.00     0.085 C 
ATOM     78  H38 non d ame     -33.962  12.091  29.654  0.00  0.00     0.036 H 
ATOM     79  H39 non d ame     -33.026  11.195  28.281  0.00  0.00     0.036 H 
ATOM     80  N5  non d ame     -31.487  11.446  30.918  0.00  0.00    -0.049 N 
ATOM     81  H40 non d ame     -33.450  10.629  30.777  0.00  0.00     0.075 H 
ATOM     82  H41 non d ame     -32.188   9.997  29.523  0.00  0.00     0.075 H 
ATOM     83  C28 non d ame     -31.052  12.768  30.100  0.00  0.00     0.193 C 
ATOM     84  H42 non d ame     -31.892  11.731  31.798  0.00  0.00     0.280 HD
ATOM     85  H43 non d ame     -30.717  10.792  30.905  0.00  0.00     0.280 HD
ATOM     86  H44 non d ame     -30.136  12.778  29.510  0.00  0.00     0.129 H 
ATOM     87  H37 non d ame     -31.239  12.973  28.330  0.00  0.00     0.046 H 
BRANCH  83  88
ATOM     88  O6  non d ame     -30.948  13.884  30.986  0.00  0.00    -0.369 OA
ATOM     89  H45 non d ame     -31.185  14.688  30.518  0.00  0.00     0.212 HD
ENDBRANCH  83  88
ENDBRANCH  72  75
ENDBRANCH  47  72
ENDBRANCH  45  47
ENDBRANCH   1  43
BRANCH   1  90
ATOM     90  C16 non d ame     -31.245  14.583  23.353  0.00  0.00    -0.035 C 
ATOM     91  H21 non d ame     -32.132  14.252  22.814  0.00  0.00     0.037 H 
ATOM     92  H22 non d ame     -31.156  15.623  23.670  0.00  0.00     0.037 H 
BRANCH  90  93
ATOM     93  C17 non d ame     -30.029  14.302  22.415  0.00  0.00    -0.059 C 
ATOM     94  H23 non d ame     -29.844  13.228  22.425  0.00  0.00     0.038 H 
BRANCH  93  95
ATOM     95  C18 non d ame     -30.315  14.721  20.937  0.00  0.00    -0.073 C 
ATOM     96  H24 non d ame     -30.828  13.910  20.422  0.00  0.00     0.028 H 
ATOM     97  H25 non d ame     -30.944  15.611  20.927  0.00  0.00     0.028 H 
ATOM     98  H26 non d ame     -29.374  14.936  20.432  0.00  0.00     0.028 H 
ENDBRANCH  93  95
BRANCH  93  99
ATOM     99  C19 non d ame     -28.763  14.986  22.939  0.00  0.00    -0.073 C 
ATOM    100  H27 non d ame     -28.178  15.360  22.100  0.00  0.00     0.028 H 
ATOM    101  H28 non d ame     -29.041  15.817  23.588  0.00  0.00     0.028 H 
ATOM    102  H29 non d ame     -28.170  14.268  23.505  0.00  0.00     0.028 H 
ENDBRANCH  93  99
ENDBRANCH  90  93
ENDBRANCH   1  90
TORSDOF 26
ENDMDL
MODEL 5
REMARK VINA RESULT:      -6.3      2.167      5.643
REMARK  26 active torsions:
REMARK  status: ('A' for Active; 'I' for Inactive)
REMARK    1  A    between atoms: C2_2  and  C3_3 
REMARK    2  A    between atoms: C4_6  and  C5_7 
REMARK       I    between atoms: C5_7  and  N2_9 
REMARK    3  A    between atoms: N2_9  and  C6_10 
REMARK    4  A    between atoms: C6_10  and  C7_11 
REMARK    5  A    between atoms: C6_10  and  C8_13 
REMARK       I    between atoms: C7_11  and  N3_14 
REMARK    6  A    between atoms: N3_14  and  C9_15 
REMARK    7  A    between atoms: C9_15  and  C10_16 
REMARK    8  A    between atoms: C9_15  and  C11_18 
REMARK       I    between atoms: C10_16  and  N4_21 
REMARK    9  A    between atoms: C11_18  and  C12_19 
REMARK   10  A    between atoms: C11_18  and  C13_20 
REMARK   11  A    between atoms: N4_21  and  C14_22 
REMARK   12  A    between atoms: C14_22  and  C15_23 
REMARK   13  A    between atoms: C14_22  and  C16_25 
REMARK       I    between atoms: C15_23  and  N6_40 
REMARK   14  A    between atoms: C16_25  and  C17_26 
REMARK   15  A    between atoms: C17_26  and  C18_27 
REMARK   16  A    between atoms: C17_26  and  C19_28 
REMARK   17  A    between atoms: C20_29  and  C21_30 
REMARK   18  A    between atoms: C20_29  and  C24_33 
REMARK   19  A    between atoms: C20_29  and  N6_40 
REMARK   20  A    between atoms: C21_30  and  C22_31 
REMARK   21  A    between atoms: C22_31  and  C23_32 
REMARK   22  A    between atoms: C23_32  and  O8_43 
REMARK   23  A    between atoms: C24_33  and  C25_34 
REMARK   24  A    between atoms: C28_38  and  O6_39 
REMARK   25  A    between atoms: C29_42  and  O8_43 
REMARK   26  A    between atoms: C29_42  and  C35_49 
ROOT
ATOM      1  C14 non d ame     -31.596  13.052  25.237  0.00  0.00     0.089 C 
ATOM      2  H20 non d ame     -30.513  13.001  25.354  0.00  0.00     0.087 H 
ENDROOT
BRANCH   1   3
ATOM      3  N4  non d ame     -32.003  11.917  24.422  0.00  0.00    -0.346 N 
ATOM      4  C10 non d ame     -31.578  10.519  24.796  0.00  0.00     0.241 C 
ATOM      5  O4  non d ame     -30.906  10.333  25.756  0.00  0.00    -0.271 OA
ATOM      6  H19 non d ame     -32.573  12.097  23.608  0.00  0.00     0.163 HD
BRANCH   4   7
ATOM      7  C9  non d ame     -32.014   9.356  23.944  0.00  0.00     0.092 C 
ATOM      8  H11 non d ame     -31.793   8.426  24.467  0.00  0.00     0.088 H 
BRANCH   7   9
ATOM      9  N3  non d ame     -33.465   9.409  23.748  0.00  0.00    -0.346 N 
ATOM     10  C7  non d ame     -34.336   8.639  24.601  0.00  0.00     0.240 C 
ATOM     11  O3  non d ame     -33.886   7.969  25.449  0.00  0.00    -0.271 OA
ATOM     12  H10 non d ame     -33.869   9.981  23.019  0.00  0.00     0.163 HD
BRANCH  10  13
ATOM     13  C6  non d ame     -35.881   8.697  24.386  0.00  0.00     0.086 C 
ATOM     14  H6  non d ame     -36.440   8.580  25.313  0.00  0.00     0.086 H 
BRANCH  13  15
ATOM     15  N2  non d ame     -36.233  10.002  23.850  0.00  0.00    -0.343 N 
ATOM     16  C5  non d ame     -36.518  11.106  24.769  0.00  0.00     0.273 C 
ATOM     17  O2  non d ame     -36.464  10.934  25.938  0.00  0.00    -0.266 OA
ATOM     18  H5  non d ame     -36.279  10.140  22.850  0.00  0.00     0.163 HD
BRANCH  16  19
ATOM     19  C4  non d ame     -36.890  12.491  24.217  0.00  0.00     0.154 A 
ATOM     20  C1  non d ame     -36.790  13.747  24.895  0.00  0.00    -0.017 A 
ATOM     21  C2  non d ame     -37.251  14.702  23.961  0.00  0.00     0.077 A 
ATOM     22  H1  non d ame     -36.437  13.937  25.909  0.00  0.00     0.091 H 
ATOM     23  O1  non d ame     -37.573  14.059  22.877  0.00  0.00    -0.218 OA
ATOM     24  N1  non d ame     -37.372  12.767  23.002  0.00  0.00    -0.123 NA
BRANCH  21  25
ATOM     25  C3  non d ame     -37.350  16.205  24.183  0.00  0.00    -0.029 C 
ATOM     26  H2  non d ame     -36.563  16.708  23.623  0.00  0.00     0.036 H 
ATOM     27  H3  non d ame     -38.322  16.559  23.840  0.00  0.00     0.036 H 
ATOM     28  H4  non d ame     -37.238  16.424  25.245  0.00  0.00     0.036 H 
ENDBRANCH  21  25
ENDBRANCH  16  19
ENDBRANCH  13  15
BRANCH  13  29
ATOM     29  C8  non d ame     -36.298   7.614  23.424  0.00  0.00    -0.049 C 
ATOM     30  H7  non d ame     -36.903   6.876  23.949  0.00  0.00     0.030 H 
ATOM     31  H8  non d ame     -36.882   8.053  22.614  0.00  0.00     0.030 H 
ATOM     32  H9  non d ame     -35.411   7.132  23.012  0.00  0.00     0.030 H 
ENDBRANCH  13  29
ENDBRANCH  10  13
ENDBRANCH   7   9
BRANCH   7  33
ATOM     33  C11 non d ame     -31.303   9.432  22.561  0.00  0.00    -0.033 C 
ATOM     34  H12 non d ame     -31.697  10.302  22.036  0.00  0.00     0.042 H 
BRANCH  33  35
ATOM     35  C12 non d ame     -29.765   9.638  22.722  0.00  0.00    -0.071 C 
ATOM     36  H13 non d ame     -29.562  10.681  22.966  0.00  0.00     0.028 H 
ATOM     37  H14 non d ame     -29.395   8.999  23.523  0.00  0.00     0.028 H 
ATOM     38  H15 non d ame     -29.264   9.380  21.789  0.00  0.00     0.028 H 
ENDBRANCH  33  35
BRANCH  33  39
ATOM     39  C13 non d ame     -31.617   8.166  21.700  0.00  0.00    -0.071 C 
ATOM     40  H16 non d ame     -30.719   7.860  21.163  0.00  0.00     0.028 H 
ATOM     41  H17 non d ame     -31.945   7.356  22.352  0.00  0.00     0.028 H 
ATOM     42  H18 non d ame     -32.407   8.399  20.986  0.00  0.00     0.028 H 
ENDBRANCH  33  39
ENDBRANCH   7  33
ENDBRANCH   4   7
ENDBRANCH   1   3
BRANCH   1  43
ATOM     43  C15 non d ame     -32.338  12.972  26.603  0.00  0.00     0.240 C 
ATOM     44  O5  non d ame     -33.488  13.262  26.668  0.00  0.00    -0.271 OA
ATOM     45  N6  non d ame     -31.614  12.527  27.828  0.00  0.00    -0.355 N 
ATOM     46  H46 non d ame     -30.638  12.274  27.784  0.00  0.00     0.162 HD
BRANCH  45  47
ATOM     47  C20 non d ame     -32.334  12.455  29.118  0.00  0.00     0.013 C 
ATOM     48  H30 non d ame     -33.344  12.833  28.960  0.00  0.00     0.072 H 
BRANCH  47  49
ATOM     49  C21 non d ame     -31.616  13.309  30.139  0.00  0.00    -0.038 C 
ATOM     50  H31 non d ame     -32.395  13.719  30.780  0.00  0.00     0.036 H 
ATOM     51  H32 non d ame     -30.840  12.671  30.562  0.00  0.00     0.036 H 
BRANCH  49  52
ATOM     52  C22 non d ame     -30.890  14.516  29.506  0.00  0.00     0.018 C 
ATOM     53  H33 non d ame     -30.012  14.691  30.126  0.00  0.00     0.048 H 
ATOM     54  H34 non d ame     -30.773  14.270  28.450  0.00  0.00     0.048 H 
BRANCH  52  55
ATOM     55  C23 non d ame     -31.713  15.834  29.549  0.00  0.00     0.259 C 
ATOM     56  O7  non d ame     -31.455  16.680  30.343  0.00  0.00    -0.265 OA
BRANCH  55  57
ATOM     57  O8  non d ame     -32.789  16.014  28.636  0.00  0.00    -0.317 OA
BRANCH  57  58
ATOM     58  C29 non d ame     -32.384  16.469  27.342  0.00  0.00     0.052 C 
ATOM     59  H47 non d ame     -31.313  16.656  27.417  0.00  0.00     0.082 H 
ATOM     60  H48 non d ame     -32.759  15.727  26.638  0.00  0.00     0.082 H 
BRANCH  58  61
ATOM     61  C35 non d ame     -33.100  17.817  27.063  0.00  0.00    -0.034 A 
ATOM     62  C30 non d ame     -34.331  17.831  26.415  0.00  0.00    -0.075 A 
ATOM     63  C31 non d ame     -34.974  19.042  26.163  0.00  0.00    -0.082 A 
ATOM     64  H49 non d ame     -34.791  16.893  26.103  0.00  0.00     0.084 H 
ATOM     65  C32 non d ame     -34.381  20.243  26.560  0.00  0.00    -0.083 A 
ATOM     66  H50 non d ame     -35.940  19.049  25.656  0.00  0.00     0.083 H 
ATOM     67  C33 non d ame     -33.151  20.225  27.204  0.00  0.00    -0.082 A 
ATOM     68  H51 non d ame     -34.877  21.194  26.368  0.00  0.00     0.083 H 
ATOM     69  C34 non d ame     -32.505  19.017  27.459  0.00  0.00    -0.075 A 
ATOM     70  H52 non d ame     -32.689  21.164  27.510  0.00  0.00     0.083 H 
ATOM     71  H53 non d ame     -31.540  19.010  27.966  0.00  0.00     0.084 H 
ENDBRANCH  58  61
ENDBRANCH  57  58
ENDBRANCH  55  57
ENDBRANCH  52  55
ENDBRANCH  49  52
ENDBRANCH  47  49
BRANCH  47  72
ATOM     72  C24 non d ame     -32.379  11.008  29.605  0.00  0.00    -0.039 C 
ATOM     73  H35 non d ame     -31.742  10.451  28.917  0.00  0.00     0.036 H 
ATOM     74  H36 non d ame     -32.130  11.051  30.665  0.00  0.00     0.036 H 
BRANCH  72  75
ATOM     75  C25 non d ame     -33.853  10.390  29.490  0.00  0.00    -0.001 C 
ATOM     76  C26 non d ame     -34.293   9.723  30.927  0.00  0.00    -0.035 C 
ATOM     77  C27 non d ame     -34.727   8.458  30.706  0.00  0.00     0.085 C 
ATOM     78  H38 non d ame     -33.417   9.585  31.559  0.00  0.00     0.036 H 
ATOM     79  H39 non d ame     -35.175  10.229  31.320  0.00  0.00     0.036 H 
ATOM     80  N5  non d ame     -34.316   8.090  29.301  0.00  0.00    -0.049 N 
ATOM     81  H40 non d ame     -34.178   7.835  31.412  0.00  0.00     0.075 H 
ATOM     82  H41 non d ame     -35.814   8.511  30.756  0.00  0.00     0.075 H 
ATOM     83  C28 non d ame     -33.906   9.475  28.580  0.00  0.00     0.193 C 
ATOM     84  H42 non d ame     -33.490   7.515  29.386  0.00  0.00     0.280 HD
ATOM     85  H43 non d ame     -35.142   7.724  28.849  0.00  0.00     0.280 HD
ATOM     86  H44 non d ame     -34.580   9.947  27.864  0.00  0.00     0.129 H 
ATOM     87  H37 non d ame     -34.556  11.083  29.028  0.00  0.00     0.046 H 
BRANCH  83  88
ATOM     88  O6  non d ame     -32.663   9.325  27.893  0.00  0.00    -0.369 OA
ATOM     89  H45 non d ame     -32.804   8.835  27.079  0.00  0.00     0.212 HD
ENDBRANCH  83  88
ENDBRANCH  72  75
ENDBRANCH  47  72
ENDBRANCH  45  47
ENDBRANCH   1  43
BRANCH   1  90
ATOM     90  C16 non d ame     -31.977  14.338  24.523  0.00  0.00    -0.035 C 
ATOM     91  H21 non d ame     -33.023  14.214  24.243  0.00  0.00     0.037 H 
ATOM     92  H22 non d ame     -31.686  15.142  25.200  0.00  0.00     0.037 H 
BRANCH  90  93
ATOM     93  C17 non d ame     -31.191  14.574  23.194  0.00  0.00    -0.059 C 
ATOM     94  H23 non d ame     -31.660  13.966  22.420  0.00  0.00     0.038 H 
BRANCH  93  95
ATOM     95  C18 non d ame     -31.250  16.064  22.730  0.00  0.00    -0.073 C 
ATOM     96  H24 non d ame     -30.354  16.303  22.159  0.00  0.00     0.028 H 
ATOM     97  H25 non d ame     -32.130  16.216  22.106  0.00  0.00     0.028 H 
ATOM     98  H26 non d ame     -31.308  16.714  23.603  0.00  0.00     0.028 H 
ENDBRANCH  93  95
BRANCH  93  99
ATOM     99  C19 non d ame     -29.741  14.101  23.326  0.00  0.00    -0.073 C 
ATOM    100  H27 non d ame     -29.447  13.571  22.420  0.00  0.00     0.028 H 
ATOM    101  H28 non d ame     -29.089  14.964  23.470  0.00  0.00     0.028 H 
ATOM    102  H29 non d ame     -29.652  13.434  24.183  0.00  0.00     0.028 H 
ENDBRANCH  93  99
ENDBRANCH  90  93
ENDBRANCH   1  90
TORSDOF 26
ENDMDL
MODEL 6
REMARK VINA RESULT:      -6.3      2.401      6.354
REMARK  26 active torsions:
REMARK  status: ('A' for Active; 'I' for Inactive)
REMARK    1  A    between atoms: C2_2  and  C3_3 
REMARK    2  A    between atoms: C4_6  and  C5_7 
REMARK       I    between atoms: C5_7  and  N2_9 
REMARK    3  A    between atoms: N2_9  and  C6_10 
REMARK    4  A    between atoms: C6_10  and  C7_11 
REMARK    5  A    between atoms: C6_10  and  C8_13 
REMARK       I    between atoms: C7_11  and  N3_14 
REMARK    6  A    between atoms: N3_14  and  C9_15 
REMARK    7  A    between atoms: C9_15  and  C10_16 
REMARK    8  A    between atoms: C9_15  and  C11_18 
REMARK       I    between atoms: C10_16  and  N4_21 
REMARK    9  A    between atoms: C11_18  and  C12_19 
REMARK   10  A    between atoms: C11_18  and  C13_20 
REMARK   11  A    between atoms: N4_21  and  C14_22 
REMARK   12  A    between atoms: C14_22  and  C15_23 
REMARK   13  A    between atoms: C14_22  and  C16_25 
REMARK       I    between atoms: C15_23  and  N6_40 
REMARK   14  A    between atoms: C16_25  and  C17_26 
REMARK   15  A    between atoms: C17_26  and  C18_27 
REMARK   16  A    between atoms: C17_26  and  C19_28 
REMARK   17  A    between atoms: C20_29  and  C21_30 
REMARK   18  A    between atoms: C20_29  and  C24_33 
REMARK   19  A    between atoms: C20_29  and  N6_40 
REMARK   20  A    between atoms: C21_30  and  C22_31 
REMARK   21  A    between atoms: C22_31  and  C23_32 
REMARK   22  A    between atoms: C23_32  and  O8_43 
REMARK   23  A    between atoms: C24_33  and  C25_34 
REMARK   24  A    between atoms: C28_38  and  O6_39 
REMARK   25  A    between atoms: C29_42  and  O8_43 
REMARK   26  A    between atoms: C29_42  and  C35_49 
ROOT
ATOM      1  C14 non d ame     -33.032  10.801  25.282  0.00  0.00     0.089 C 
ATOM      2  H20 non d ame     -33.832  10.327  24.712  0.00  0.00     0.087 H 
ENDROOT
BRANCH   1   3
ATOM      3  N4  non d ame     -33.438  12.173  25.548  0.00  0.00    -0.346 N 
ATOM      4  C10 non d ame     -34.880  12.497  25.845  0.00  0.00     0.241 C 
ATOM      5  O4  non d ame     -35.698  11.637  25.860  0.00  0.00    -0.271 OA
ATOM      6  H19 non d ame     -32.727  12.891  25.528  0.00  0.00     0.163 HD
BRANCH   4   7
ATOM      7  C9  non d ame     -35.281  13.922  26.123  0.00  0.00     0.092 C 
ATOM      8  H11 non d ame     -35.520  14.027  27.182  0.00  0.00     0.088 H 
BRANCH   7   9
ATOM      9  N3  non d ame     -34.150  14.812  25.845  0.00  0.00    -0.346 N 
ATOM     10  C7  non d ame     -33.494  15.504  26.927  0.00  0.00     0.240 C 
ATOM     11  O3  non d ame     -33.865  15.358  28.027  0.00  0.00    -0.271 OA
ATOM     12  H10 non d ame     -33.820  14.949  24.900  0.00  0.00     0.163 HD
BRANCH  10  13
ATOM     13  C6  non d ame     -32.293  16.453  26.623  0.00  0.00     0.086 C 
ATOM     14  H6  non d ame     -31.412  16.221  27.221  0.00  0.00     0.086 H 
BRANCH  13  15
ATOM     15  N2  non d ame     -31.905  16.292  25.232  0.00  0.00    -0.343 N 
ATOM     16  C5  non d ame     -31.213  15.072  24.812  0.00  0.00     0.273 C 
ATOM     17  O2  non d ame     -30.969  14.227  25.602  0.00  0.00    -0.266 OA
ATOM     18  H5  non d ame     -32.115  17.020  24.564  0.00  0.00     0.163 HD
BRANCH  16  19
ATOM     19  C4  non d ame     -30.798  14.888  23.344  0.00  0.00     0.154 A 
ATOM     20  C1  non d ame     -31.141  15.728  22.237  0.00  0.00    -0.017 A 
ATOM     21  C2  non d ame     -30.518  15.129  21.120  0.00  0.00     0.077 A 
ATOM     22  H1  non d ame     -31.748  16.633  22.244  0.00  0.00     0.091 H 
ATOM     23  O1  non d ame     -29.892  14.071  21.546  0.00  0.00    -0.218 OA
ATOM     24  N1  non d ame     -30.042  13.909  22.840  0.00  0.00    -0.123 NA
BRANCH  21  25
ATOM     25  C3  non d ame     -30.568  15.631  19.683  0.00  0.00    -0.029 C 
ATOM     26  H2  non d ame     -31.290  16.443  19.607  0.00  0.00     0.036 H 
ATOM     27  H3  non d ame     -29.583  15.991  19.389  0.00  0.00     0.036 H 
ATOM     28  H4  non d ame     -30.868  14.816  19.024  0.00  0.00     0.036 H 
ENDBRANCH  21  25
ENDBRANCH  16  19
ENDBRANCH  13  15
BRANCH  13  29
ATOM     29  C8  non d ame     -32.698  17.881  26.885  0.00  0.00    -0.049 C 
ATOM     30  H7  non d ame     -32.577  18.104  27.945  0.00  0.00     0.030 H 
ATOM     31  H8  non d ame     -32.068  18.550  26.299  0.00  0.00     0.030 H 
ATOM     32  H9  non d ame     -33.741  18.021  26.601  0.00  0.00     0.030 H 
ENDBRANCH  13  29
ENDBRANCH  10  13
ENDBRANCH   7   9
BRANCH   7  33
ATOM     33  C11 non d ame     -36.481  14.311  25.211  0.00  0.00    -0.033 C 
ATOM     34  H12 non d ame     -36.533  13.579  24.406  0.00  0.00     0.042 H 
BRANCH  33  35
ATOM     35  C12 non d ame     -37.832  14.248  25.990  0.00  0.00    -0.071 C 
ATOM     36  H13 non d ame     -37.981  13.240  26.377  0.00  0.00     0.028 H 
ATOM     37  H14 non d ame     -37.807  14.956  26.818  0.00  0.00     0.028 H 
ATOM     38  H15 non d ame     -38.651  14.503  25.318  0.00  0.00     0.028 H 
ENDBRANCH  33  35
BRANCH  33  39
ATOM     39  C13 non d ame     -36.262  15.719  24.570  0.00  0.00    -0.071 C 
ATOM     40  H16 non d ame     -37.177  16.037  24.069  0.00  0.00     0.028 H 
ATOM     41  H17 non d ame     -36.006  16.438  25.349  0.00  0.00     0.028 H 
ATOM     42  H18 non d ame     -35.450  15.666  23.845  0.00  0.00     0.028 H 
ENDBRANCH  33  39
ENDBRANCH   7  33
ENDBRANCH   4   7
ENDBRANCH   1   3
BRANCH   1  43
ATOM     43  C15 non d ame     -32.778  10.087  26.641  0.00  0.00     0.240 C 
ATOM     44  O5  non d ame     -31.823   9.391  26.773  0.00  0.00    -0.271 OA
ATOM     45  N6  non d ame     -33.720  10.278  27.780  0.00  0.00    -0.355 N 
ATOM     46  H46 non d ame     -34.531  10.871  27.681  0.00  0.00     0.162 HD
BRANCH  45  47
ATOM     47  C20 non d ame     -33.463   9.594  29.066  0.00  0.00     0.013 C 
ATOM     48  H30 non d ame     -32.657   8.877  28.909  0.00  0.00     0.072 H 
BRANCH  47  49
ATOM     49  C21 non d ame     -34.717   8.873  29.507  0.00  0.00    -0.038 C 
ATOM     50  H31 non d ame     -34.584   7.836  29.200  0.00  0.00     0.036 H 
ATOM     51  H32 non d ame     -34.840   9.118  30.563  0.00  0.00     0.036 H 
BRANCH  49  52
ATOM     52  C22 non d ame     -35.985   9.383  28.790  0.00  0.00     0.018 C 
ATOM     53  H33 non d ame     -36.147  10.395  29.159  0.00  0.00     0.048 H 
ATOM     54  H34 non d ame     -35.812   9.212  27.727  0.00  0.00     0.048 H 
BRANCH  52  55
ATOM     55  C23 non d ame     -37.270   8.586  29.147  0.00  0.00     0.259 C 
ATOM     56  O7  non d ame     -38.002   8.972  30.000  0.00  0.00    -0.265 OA
BRANCH  55  57
ATOM     57  O8  non d ame     -37.558   7.379  28.452  0.00  0.00    -0.317 OA
BRANCH  57  58
ATOM     58  C29 non d ame     -37.796   6.257  29.306  0.00  0.00     0.052 C 
ATOM     59  H47 non d ame     -38.390   6.639  30.136  0.00  0.00     0.082 H 
ATOM     60  H48 non d ame     -38.199   5.476  28.662  0.00  0.00     0.082 H 
BRANCH  58  61
ATOM     61  C35 non d ame     -36.428   5.779  29.861  0.00  0.00    -0.034 A 
ATOM     62  C30 non d ame     -35.452   5.301  28.991  0.00  0.00    -0.075 A 
ATOM     63  C31 non d ame     -34.223   4.871  29.489  0.00  0.00    -0.082 A 
ATOM     64  H49 non d ame     -35.651   5.263  27.920  0.00  0.00     0.084 H 
ATOM     65  C32 non d ame     -33.972   4.918  30.863  0.00  0.00    -0.083 A 
ATOM     66  H50 non d ame     -33.460   4.499  28.805  0.00  0.00     0.083 H 
ATOM     67  C33 non d ame     -34.950   5.392  31.727  0.00  0.00    -0.082 A 
ATOM     68  H51 non d ame     -33.013   4.584  31.261  0.00  0.00     0.083 H 
ATOM     69  C34 non d ame     -36.179   5.825  31.234  0.00  0.00    -0.075 A 
ATOM     70  H52 non d ame     -34.751   5.425  32.799  0.00  0.00     0.083 H 
ATOM     71  H53 non d ame     -36.941   6.197  31.919  0.00  0.00     0.084 H 
ENDBRANCH  58  61
ENDBRANCH  57  58
ENDBRANCH  55  57
ENDBRANCH  52  55
ENDBRANCH  49  52
ENDBRANCH  47  49
BRANCH  47  72
ATOM     72  C24 non d ame     -33.063  10.618  30.126  0.00  0.00    -0.039 C 
ATOM     73  H35 non d ame     -33.935  11.262  30.250  0.00  0.00     0.036 H 
ATOM     74  H36 non d ame     -32.692  10.034  30.968  0.00  0.00     0.036 H 
BRANCH  72  75
ATOM     75  C25 non d ame     -31.857  11.547  29.627  0.00  0.00    -0.001 C 
ATOM     76  C26 non d ame     -30.847  11.876  30.882  0.00  0.00    -0.035 C 
ATOM     77  C27 non d ame     -30.654  13.215  30.947  0.00  0.00     0.085 C 
ATOM     78  H38 non d ame     -31.338  11.643  31.827  0.00  0.00     0.036 H 
ATOM     79  H39 non d ame     -29.852  11.484  30.674  0.00  0.00     0.036 H 
ATOM     80  N5  non d ame     -31.693  13.855  30.059  0.00  0.00    -0.049 N 
ATOM     81  H40 non d ame     -30.854  13.488  31.983  0.00  0.00     0.075 H 
ATOM     82  H41 non d ame     -29.667  13.387  30.519  0.00  0.00     0.075 H 
ATOM     83  C28 non d ame     -32.294  12.664  29.150  0.00  0.00     0.193 C 
ATOM     84  H42 non d ame     -32.423  14.192  30.671  0.00  0.00     0.280 HD
ATOM     85  H43 non d ame     -31.198  14.500  29.460  0.00  0.00     0.280 HD
ATOM     86  H44 non d ame     -31.999  12.563  28.105  0.00  0.00     0.129 H 
ATOM     87  H37 non d ame     -31.402  11.175  28.709  0.00  0.00     0.046 H 
BRANCH  83  88
ATOM     88  O6  non d ame     -33.722  12.725  29.139  0.00  0.00    -0.369 OA
ATOM     89  H45 non d ame     -34.045  12.498  28.264  0.00  0.00     0.212 HD
ENDBRANCH  83  88
ENDBRANCH  72  75
ENDBRANCH  47  72
ENDBRANCH  45  47
ENDBRANCH   1  43
BRANCH   1  90
ATOM     90  C16 non d ame     -31.752  10.812  24.463  0.00  0.00    -0.035 C 
ATOM     91  H21 non d ame     -31.622  11.846  24.144  0.00  0.00     0.037 H 
ATOM     92  H22 non d ame     -31.000  10.338  25.095  0.00  0.00     0.037 H 
BRANCH  90  93
ATOM     93  C17 non d ame     -31.835   9.957  23.158  0.00  0.00    -0.059 C 
ATOM     94  H23 non d ame     -32.233  10.595  22.369  0.00  0.00     0.038 H 
BRANCH  93  95
ATOM     95  C18 non d ame     -30.432   9.448  22.697  0.00  0.00    -0.073 C 
ATOM     96  H24 non d ame     -29.668   9.815  23.383  0.00  0.00     0.028 H 
ATOM     97  H25 non d ame     -30.423   8.358  22.695  0.00  0.00     0.028 H 
ATOM     98  H26 non d ame     -30.225   9.815  21.692  0.00  0.00     0.028 H 
ENDBRANCH  93  95
BRANCH  93  99
ATOM     99  C19 non d ame     -32.808   8.788  23.332  0.00  0.00    -0.073 C 
ATOM    100  H27 non d ame     -33.474   8.738  22.470  0.00  0.00     0.028 H 
ATOM    101  H28 non d ame     -32.248   7.857  23.413  0.00  0.00     0.028 H 
ATOM    102  H29 non d ame     -33.396   8.937  24.238  0.00  0.00     0.028 H 
ENDBRANCH  93  99
ENDBRANCH  90  93
ENDBRANCH   1  90
TORSDOF 26
ENDMDL
MODEL 7
REMARK VINA RESULT:      -6.3      2.602      6.129
REMARK  26 active torsions:
REMARK  status: ('A' for Active; 'I' for Inactive)
REMARK    1  A    between atoms: C2_2  and  C3_3 
REMARK    2  A    between atoms: C4_6  and  C5_7 
REMARK       I    between atoms: C5_7  and  N2_9 
REMARK    3  A    between atoms: N2_9  and  C6_10 
REMARK    4  A    between atoms: C6_10  and  C7_11 
REMARK    5  A    between atoms: C6_10  and  C8_13 
REMARK       I    between atoms: C7_11  and  N3_14 
REMARK    6  A    between atoms: N3_14  and  C9_15 
REMARK    7  A    between atoms: C9_15  and  C10_16 
REMARK    8  A    between atoms: C9_15  and  C11_18 
REMARK       I    between atoms: C10_16  and  N4_21 
REMARK    9  A    between atoms: C11_18  and  C12_19 
REMARK   10  A    between atoms: C11_18  and  C13_20 
REMARK   11  A    between atoms: N4_21  and  C14_22 
REMARK   12  A    between atoms: C14_22  and  C15_23 
REMARK   13  A    between atoms: C14_22  and  C16_25 
REMARK       I    between atoms: C15_23  and  N6_40 
REMARK   14  A    between atoms: C16_25  and  C17_26 
REMARK   15  A    between atoms: C17_26  and  C18_27 
REMARK   16  A    between atoms: C17_26  and  C19_28 
REMARK   17  A    between atoms: C20_29  and  C21_30 
REMARK   18  A    between atoms: C20_29  and  C24_33 
REMARK   19  A    between atoms: C20_29  and  N6_40 
REMARK   20  A    between atoms: C21_30  and  C22_31 
REMARK   21  A    between atoms: C22_31  and  C23_32 
REMARK   22  A    between atoms: C23_32  and  O8_43 
REMARK   23  A    between atoms: C24_33  and  C25_34 
REMARK   24  A    between atoms: C28_38  and  O6_39 
REMARK   25  A    between atoms: C29_42  and  O8_43 
REMARK   26  A    between atoms: C29_42  and  C35_49 
ROOT
ATOM      1  C14 non d ame     -31.080  13.923  24.713  0.00  0.00     0.089 C 
ATOM      2  H20 non d ame     -30.079  13.851  25.139  0.00  0.00     0.087 H 
ENDROOT
BRANCH   1   3
ATOM      3  N4  non d ame     -31.450  12.599  24.235  0.00  0.00    -0.346 N 
ATOM      4  C10 non d ame     -31.289  11.394  25.128  0.00  0.00     0.241 C 
ATOM      5  O4  non d ame     -30.858  11.515  26.227  0.00  0.00    -0.271 OA
ATOM      6  H19 non d ame     -31.813  12.517  23.296  0.00  0.00     0.163 HD
BRANCH   4   7
ATOM      7  C9  non d ame     -31.682  10.032  24.619  0.00  0.00     0.092 C 
ATOM      8  H11 non d ame     -31.181   9.269  25.213  0.00  0.00     0.088 H 
BRANCH   7   9
ATOM      9  N3  non d ame     -33.125   9.841  24.796  0.00  0.00    -0.346 N 
ATOM     10  C7  non d ame     -33.625   9.190  25.981  0.00  0.00     0.240 C 
ATOM     11  O3  non d ame     -32.881   8.813  26.802  0.00  0.00    -0.271 OA
ATOM     12  H10 non d ame     -33.779  10.160  24.095  0.00  0.00     0.163 HD
BRANCH  10  13
ATOM     13  C6  non d ame     -35.162   8.987  26.163  0.00  0.00     0.086 C 
ATOM     14  H6  non d ame     -35.581   9.617  26.947  0.00  0.00     0.086 H 
BRANCH  13  15
ATOM     15  N2  non d ame     -35.835   9.356  24.928  0.00  0.00    -0.343 N 
ATOM     16  C5  non d ame     -36.666  10.561  24.892  0.00  0.00     0.273 C 
ATOM     17  O2  non d ame     -36.789  11.225  25.862  0.00  0.00    -0.266 OA
ATOM     18  H5  non d ame     -35.726   8.781  24.105  0.00  0.00     0.163 HD
BRANCH  16  19
ATOM     19  C4  non d ame     -37.382  10.963  23.594  0.00  0.00     0.154 A 
ATOM     20  C1  non d ame     -38.211  10.136  22.771  0.00  0.00    -0.017 A 
ATOM     21  C2  non d ame     -38.621  10.973  21.709  0.00  0.00     0.077 A 
ATOM     22  H1  non d ame     -38.474   9.089  22.921  0.00  0.00     0.091 H 
ATOM     23  O1  non d ame     -38.086  12.142  21.909  0.00  0.00    -0.218 OA
ATOM     24  N1  non d ame     -37.359  12.161  23.002  0.00  0.00    -0.123 NA
BRANCH  21  25
ATOM     25  C3  non d ame     -39.523  10.580  20.547  0.00  0.00    -0.029 C 
ATOM     26  H2  non d ame     -39.798   9.529  20.640  0.00  0.00     0.036 H 
ATOM     27  H3  non d ame     -40.423  11.194  20.562  0.00  0.00     0.036 H 
ATOM     28  H4  non d ame     -38.993  10.734  19.607  0.00  0.00     0.036 H 
ENDBRANCH  21  25
ENDBRANCH  16  19
ENDBRANCH  13  15
BRANCH  13  29
ATOM     29  C8  non d ame     -35.445   7.544  26.494  0.00  0.00    -0.049 C 
ATOM     30  H7  non d ame     -35.776   7.467  27.530  0.00  0.00     0.030 H 
ATOM     31  H8  non d ame     -36.225   7.166  25.834  0.00  0.00     0.030 H 
ATOM     32  H9  non d ame     -34.537   6.955  26.359  0.00  0.00     0.030 H 
ENDBRANCH  13  29
ENDBRANCH  10  13
ENDBRANCH   7   9
BRANCH   7  33
ATOM     33  C11 non d ame     -31.329   9.923  23.106  0.00  0.00    -0.033 C 
ATOM     34  H12 non d ame     -31.603  10.866  22.635  0.00  0.00     0.042 H 
BRANCH  33  35
ATOM     35  C12 non d ame     -29.796   9.721  22.894  0.00  0.00    -0.071 C 
ATOM     36  H13 non d ame     -29.511   8.723  23.227  0.00  0.00     0.028 H 
ATOM     37  H14 non d ame     -29.558   9.834  21.837  0.00  0.00     0.028 H 
ATOM     38  H15 non d ame     -29.248  10.466  23.472  0.00  0.00     0.028 H 
ENDBRANCH  33  35
BRANCH  33  39
ATOM     39  C13 non d ame     -32.150   8.783  22.421  0.00  0.00    -0.071 C 
ATOM     40  H16 non d ame     -31.629   8.450  21.523  0.00  0.00     0.028 H 
ATOM     41  H17 non d ame     -32.256   7.946  23.112  0.00  0.00     0.028 H 
ATOM     42  H18 non d ame     -33.137   9.159  22.152  0.00  0.00     0.028 H 
ENDBRANCH  33  39
ENDBRANCH   7  33
ENDBRANCH   4   7
ENDBRANCH   1   3
BRANCH   1  43
ATOM     43  C15 non d ame     -32.133  14.382  25.763  0.00  0.00     0.240 C 
ATOM     44  O5  non d ame     -33.275  14.485  25.448  0.00  0.00    -0.271 OA
ATOM     45  N6  non d ame     -31.719  14.684  27.163  0.00  0.00    -0.355 N 
ATOM     46  H46 non d ame     -30.753  14.595  27.443  0.00  0.00     0.162 HD
BRANCH  45  47
ATOM     47  C20 non d ame     -32.732  15.118  28.149  0.00  0.00     0.013 C 
ATOM     48  H30 non d ame     -33.717  14.925  27.725  0.00  0.00     0.072 H 
BRANCH  47  49
ATOM     49  C21 non d ame     -32.566  16.597  28.417  0.00  0.00    -0.038 C 
ATOM     50  H31 non d ame     -33.393  16.872  29.073  0.00  0.00     0.036 H 
ATOM     51  H32 non d ame     -31.538  16.721  28.756  0.00  0.00     0.036 H 
BRANCH  49  52
ATOM     52  C22 non d ame     -32.713  17.458  27.144  0.00  0.00     0.018 C 
ATOM     53  H33 non d ame     -31.813  17.276  26.559  0.00  0.00     0.048 H 
ATOM     54  H34 non d ame     -33.691  17.209  26.731  0.00  0.00     0.048 H 
BRANCH  52  55
ATOM     55  C23 non d ame     -32.742  18.986  27.421  0.00  0.00     0.259 C 
ATOM     56  O7  non d ame     -32.322  19.422  28.444  0.00  0.00    -0.265 OA
BRANCH  55  57
ATOM     57  O8  non d ame     -33.289  19.862  26.442  0.00  0.00    -0.317 OA
BRANCH  57  58
ATOM     58  C29 non d ame     -34.239  19.241  25.572  0.00  0.00     0.052 C 
ATOM     59  H47 non d ame     -33.911  19.478  24.560  0.00  0.00     0.082 H 
ATOM     60  H48 non d ame     -34.302  18.203  25.896  0.00  0.00     0.082 H 
BRANCH  58  61
ATOM     61  C35 non d ame     -35.618  19.913  25.811  0.00  0.00    -0.034 A 
ATOM     62  C30 non d ame     -36.590  19.880  24.817  0.00  0.00    -0.075 A 
ATOM     63  C31 non d ame     -37.829  20.484  25.031  0.00  0.00    -0.082 A 
ATOM     64  H49 non d ame     -36.383  19.381  23.870  0.00  0.00     0.084 H 
ATOM     65  C32 non d ame     -38.092  21.125  26.244  0.00  0.00    -0.083 A 
ATOM     66  H50 non d ame     -38.589  20.455  24.250  0.00  0.00     0.083 H 
ATOM     67  C33 non d ame     -37.117  21.158  27.232  0.00  0.00    -0.082 A 
ATOM     68  H51 non d ame     -39.057  21.599  26.420  0.00  0.00     0.083 H 
ATOM     69  C34 non d ame     -35.879  20.555  27.023  0.00  0.00    -0.075 A 
ATOM     70  H52 non d ame     -37.324  21.662  28.177  0.00  0.00     0.083 H 
ATOM     71  H53 non d ame     -35.118  20.584  27.804  0.00  0.00     0.084 H 
ENDBRANCH  58  61
ENDBRANCH  57  58
ENDBRANCH  55  57
ENDBRANCH  52  55
ENDBRANCH  49  52
ENDBRANCH  47  49
BRANCH  47  72
ATOM     72  C24 non d ame     -32.552  14.340  29.451  0.00  0.00    -0.039 C 
ATOM     73  H35 non d ame     -31.860  14.932  30.049  0.00  0.00     0.036 H 
ATOM     74  H36 non d ame     -33.561  14.148  29.816  0.00  0.00     0.036 H 
BRANCH  72  75
ATOM     75  C25 non d ame     -31.862  12.917  29.199  0.00  0.00    -0.001 C 
ATOM     76  C26 non d ame     -33.012  11.744  29.113  0.00  0.00    -0.035 C 
ATOM     77  C27 non d ame     -32.677  10.741  29.960  0.00  0.00     0.085 C 
ATOM     78  H38 non d ame     -33.954  12.114  29.515  0.00  0.00     0.036 H 
ATOM     79  H39 non d ame     -32.987  11.268  28.132  0.00  0.00     0.036 H 
ATOM     80  N5  non d ame     -31.582  11.267  30.855  0.00  0.00    -0.049 N 
ATOM     81  H40 non d ame     -33.569  10.558  30.559  0.00  0.00     0.075 H 
ATOM     82  H41 non d ame     -32.272   9.951  29.330  0.00  0.00     0.075 H 
ATOM     83  C28 non d ame     -31.045  12.618  30.154  0.00  0.00     0.193 C 
ATOM     84  H42 non d ame     -32.020  11.512  31.731  0.00  0.00     0.280 HD
ATOM     85  H43 non d ame     -30.842  10.579  30.836  0.00  0.00     0.280 HD
ATOM     86  H44 non d ame     -30.098  12.623  29.613  0.00  0.00     0.129 H 
ATOM     87  H37 non d ame     -31.126  12.950  28.395  0.00  0.00     0.046 H 
BRANCH  83  88
ATOM     88  O6  non d ame     -30.938  13.666  31.119  0.00  0.00    -0.369 OA
ATOM     89  H45 non d ame     -30.012  13.872  31.267  0.00  0.00     0.212 HD
ENDBRANCH  83  88
ENDBRANCH  72  75
ENDBRANCH  47  72
ENDBRANCH  45  47
ENDBRANCH   1  43
BRANCH   1  90
ATOM     90  C16 non d ame     -31.073  14.890  23.540  0.00  0.00    -0.035 C 
ATOM     91  H21 non d ame     -32.081  14.853  23.129  0.00  0.00     0.037 H 
ATOM     92  H22 non d ame     -30.681  15.825  23.940  0.00  0.00     0.037 H 
BRANCH  90  93
ATOM     93  C17 non d ame     -30.111  14.466  22.385  0.00  0.00    -0.059 C 
ATOM     94  H23 non d ame     -30.139  13.378  22.314  0.00  0.00     0.038 H 
BRANCH  93  95
ATOM     95  C18 non d ame     -30.557  15.045  21.004  0.00  0.00    -0.073 C 
ATOM     96  H24 non d ame     -29.799  15.737  20.639  0.00  0.00     0.028 H 
ATOM     97  H25 non d ame     -30.678  14.231  20.290  0.00  0.00     0.028 H 
ATOM     98  H26 non d ame     -31.504  15.571  21.120  0.00  0.00     0.028 H 
ENDBRANCH  93  95
BRANCH  93  99
ATOM     99  C19 non d ame     -28.667  14.863  22.702  0.00  0.00    -0.073 C 
ATOM    100  H27 non d ame     -28.616  15.938  22.878  0.00  0.00     0.028 H 
ATOM    101  H28 non d ame     -28.331  14.333  23.594  0.00  0.00     0.028 H 
ATOM    102  H29 non d ame     -28.025  14.602  21.861  0.00  0.00     0.028 H 
ENDBRANCH  93  99
ENDBRANCH  90  93
ENDBRANCH   1  90
TORSDOF 26
ENDMDL
MODEL 8
REMARK VINA RESULT:      -6.3      2.742      7.498
REMARK  26 active torsions:
REMARK  status: ('A' for Active; 'I' for Inactive)
REMARK    1  A    between atoms: C2_2  and  C3_3 
REMARK    2  A    between atoms: C4_6  and  C5_7 
REMARK       I    between atoms: C5_7  and  N2_9 
REMARK    3  A    between atoms: N2_9  and  C6_10 
REMARK    4  A    between atoms: C6_10  and  C7_11 
REMARK    5  A    between atoms: C6_10  and  C8_13 
REMARK       I    between atoms: C7_11  and  N3_14 
REMARK    6  A    between atoms: N3_14  and  C9_15 
REMARK    7  A    between atoms: C9_15  and  C10_16 
REMARK    8  A    between atoms: C9_15  and  C11_18 
REMARK       I    between atoms: C10_16  and  N4_21 
REMARK    9  A    between atoms: C11_18  and  C12_19 
REMARK   10  A    between atoms: C11_18  and  C13_20 
REMARK   11  A    between atoms: N4_21  and  C14_22 
REMARK   12  A    between atoms: C14_22  and  C15_23 
REMARK   13  A    between atoms: C14_22  and  C16_25 
REMARK       I    between atoms: C15_23  and  N6_40 
REMARK   14  A    between atoms: C16_25  and  C17_26 
REMARK   15  A    between atoms: C17_26  and  C18_27 
REMARK   16  A    between atoms: C17_26  and  C19_28 
REMARK   17  A    between atoms: C20_29  and  C21_30 
REMARK   18  A    between atoms: C20_29  and  C24_33 
REMARK   19  A    between atoms: C20_29  and  N6_40 
REMARK   20  A    between atoms: C21_30  and  C22_31 
REMARK   21  A    between atoms: C22_31  and  C23_32 
REMARK   22  A    between atoms: C23_32  and  O8_43 
REMARK   23  A    between atoms: C24_33  and  C25_34 
REMARK   24  A    between atoms: C28_38  and  O6_39 
REMARK   25  A    between atoms: C29_42  and  O8_43 
REMARK   26  A    between atoms: C29_42  and  C35_49 
ROOT
ATOM      1  C14 non d ame     -36.440  15.830  26.250  0.00  0.00     0.089 C 
ATOM      2  H20 non d ame     -37.141  16.277  26.956  0.00  0.00     0.087 H 
ENDROOT
BRANCH   1   3
ATOM      3  N4  non d ame     -35.100  16.017  26.783  0.00  0.00    -0.346 N 
ATOM      4  C10 non d ame     -34.806  17.162  27.720  0.00  0.00     0.241 C 
ATOM      5  O4  non d ame     -35.665  17.921  28.027  0.00  0.00    -0.271 OA
ATOM      6  H19 non d ame     -34.382  15.361  26.508  0.00  0.00     0.163 HD
BRANCH   4   7
ATOM      7  C9  non d ame     -33.414  17.338  28.268  0.00  0.00     0.092 C 
ATOM      8  H11 non d ame     -33.472  17.804  29.251  0.00  0.00     0.088 H 
BRANCH   7   9
ATOM      9  N3  non d ame     -32.790  16.023  28.447  0.00  0.00    -0.346 N 
ATOM     10  C7  non d ame     -31.847  15.814  29.519  0.00  0.00     0.240 C 
ATOM     11  O3  non d ame     -31.578  16.693  30.244  0.00  0.00    -0.271 OA
ATOM     12  H10 non d ame     -33.010  15.257  27.828  0.00  0.00     0.163 HD
BRANCH  10  13
ATOM     13  C6  non d ame     -31.183  14.414  29.703  0.00  0.00     0.086 C 
ATOM     14  H6  non d ame     -30.554  14.360  30.591  0.00  0.00     0.086 H 
BRANCH  13  15
ATOM     15  N2  non d ame     -32.227  13.416  29.870  0.00  0.00    -0.343 N 
ATOM     16  C5  non d ame     -31.930  12.176  30.590  0.00  0.00     0.273 C 
ATOM     17  O2  non d ame     -30.848  11.989  31.028  0.00  0.00    -0.266 OA
ATOM     18  H5  non d ame     -33.148  13.583  29.490  0.00  0.00     0.163 HD
BRANCH  16  19
ATOM     19  C4  non d ame     -33.024  11.113  30.776  0.00  0.00     0.154 A 
ATOM     20  C1  non d ame     -34.072  11.113  31.750  0.00  0.00    -0.017 A 
ATOM     21  C2  non d ame     -34.800   9.928  31.499  0.00  0.00     0.077 A 
ATOM     22  H1  non d ame     -34.275  11.857  32.519  0.00  0.00     0.091 H 
ATOM     23  O1  non d ame     -34.229   9.327  30.497  0.00  0.00    -0.218 OA
ATOM     24  N1  non d ame     -33.190   9.999  30.058  0.00  0.00    -0.123 NA
BRANCH  21  25
ATOM     25  C3  non d ame     -36.027   9.445  32.262  0.00  0.00    -0.029 C 
ATOM     26  H2  non d ame     -36.437   8.564  31.770  0.00  0.00     0.036 H 
ATOM     27  H3  non d ame     -35.743   9.192  33.283  0.00  0.00     0.036 H 
ATOM     28  H4  non d ame     -36.778  10.235  32.279  0.00  0.00     0.036 H 
ENDBRANCH  21  25
ENDBRANCH  16  19
ENDBRANCH  13  15
BRANCH  13  29
ATOM     29  C8  non d ame     -30.346  14.088  28.492  0.00  0.00    -0.049 C 
ATOM     30  H7  non d ame     -30.134  15.004  27.940  0.00  0.00     0.030 H 
ATOM     31  H8  non d ame     -29.409  13.632  28.811  0.00  0.00     0.030 H 
ATOM     32  H9  non d ame     -30.890  13.394  27.851  0.00  0.00     0.030 H 
ENDBRANCH  13  29
ENDBRANCH  10  13
ENDBRANCH   7   9
BRANCH   7  33
ATOM     33  C11 non d ame     -32.566  18.179  27.269  0.00  0.00    -0.033 C 
ATOM     34  H12 non d ame     -31.530  17.857  27.365  0.00  0.00     0.042 H 
BRANCH  33  35
ATOM     35  C12 non d ame     -33.003  17.920  25.793  0.00  0.00    -0.071 C 
ATOM     36  H13 non d ame     -33.617  17.020  25.749  0.00  0.00     0.028 H 
ATOM     37  H14 non d ame     -33.579  18.771  25.430  0.00  0.00     0.028 H 
ATOM     38  H15 non d ame     -32.119  17.787  25.171  0.00  0.00     0.028 H 
ENDBRANCH  33  35
BRANCH  33  39
ATOM     39  C13 non d ame     -32.634  19.700  27.621  0.00  0.00    -0.071 C 
ATOM     40  H16 non d ame     -33.277  19.843  28.490  0.00  0.00     0.028 H 
ATOM     41  H17 non d ame     -31.632  20.066  27.846  0.00  0.00     0.028 H 
ATOM     42  H18 non d ame     -33.040  20.252  26.773  0.00  0.00     0.028 H 
ENDBRANCH  33  39
ENDBRANCH   7  33
ENDBRANCH   4   7
ENDBRANCH   1   3
BRANCH   1  43
ATOM     43  C15 non d ame     -36.690  14.306  26.061  0.00  0.00     0.240 C 
ATOM     44  O5  non d ame     -37.226  13.912  25.076  0.00  0.00    -0.271 OA
ATOM     45  N6  non d ame     -36.252  13.336  27.105  0.00  0.00    -0.355 N 
ATOM     46  H46 non d ame     -35.791  13.658  27.943  0.00  0.00     0.162 HD
BRANCH  45  47
ATOM     47  C20 non d ame     -36.495  11.890  26.910  0.00  0.00     0.013 C 
ATOM     48  H30 non d ame     -36.522  11.696  25.838  0.00  0.00     0.072 H 
BRANCH  47  49
ATOM     49  C21 non d ame     -37.820  11.517  27.536  0.00  0.00    -0.038 C 
ATOM     50  H31 non d ame     -37.608  11.341  28.591  0.00  0.00     0.036 H 
ATOM     51  H32 non d ame     -38.515  12.304  27.244  0.00  0.00     0.036 H 
BRANCH  49  52
ATOM     52  C22 non d ame     -38.395  10.197  26.980  0.00  0.00     0.018 C 
ATOM     53  H33 non d ame     -39.336  10.464  26.500  0.00  0.00     0.048 H 
ATOM     54  H34 non d ame     -37.592   9.748  26.395  0.00  0.00     0.048 H 
BRANCH  52  55
ATOM     55  C23 non d ame     -38.756   9.159  28.079  0.00  0.00     0.259 C 
ATOM     56  O7  non d ame     -39.401   9.480  29.023  0.00  0.00    -0.265 OA
BRANCH  55  57
ATOM     57  O8  non d ame     -38.294   7.819  27.950  0.00  0.00    -0.317 OA
BRANCH  57  58
ATOM     58  C29 non d ame     -38.537   7.007  29.102  0.00  0.00     0.052 C 
ATOM     59  H47 non d ame     -38.976   7.672  29.845  0.00  0.00     0.082 H 
ATOM     60  H48 non d ame     -39.099   6.146  28.742  0.00  0.00     0.082 H 
BRANCH  58  61
ATOM     61  C35 non d ame     -37.167   6.510  29.636  0.00  0.00    -0.034 A 
ATOM     62  C30 non d ame     -37.048   6.074  30.951  0.00  0.00    -0.075 A 
ATOM     63  C31 non d ame     -35.817   5.628  31.431  0.00  0.00    -0.082 A 
ATOM     64  H49 non d ame     -37.919   6.082  31.607  0.00  0.00     0.084 H 
ATOM     65  C32 non d ame     -34.701   5.622  30.589  0.00  0.00    -0.083 A 
ATOM     66  H50 non d ame     -35.728   5.286  32.462  0.00  0.00     0.083 H 
ATOM     67  C33 non d ame     -34.824   6.061  29.278  0.00  0.00    -0.082 A 
ATOM     68  H51 non d ame     -33.736   5.274  30.956  0.00  0.00     0.083 H 
ATOM     69  C34 non d ame     -36.053   6.505  28.794  0.00  0.00    -0.075 A 
ATOM     70  H52 non d ame     -33.951   6.056  28.625  0.00  0.00     0.083 H 
ATOM     71  H53 non d ame     -36.141   6.848  27.763  0.00  0.00     0.084 H 
ENDBRANCH  58  61
ENDBRANCH  57  58
ENDBRANCH  55  57
ENDBRANCH  52  55
ENDBRANCH  49  52
ENDBRANCH  47  49
BRANCH  47  72
ATOM     72  C24 non d ame     -35.376  11.085  27.567  0.00  0.00    -0.039 C 
ATOM     73  H35 non d ame     -34.836  11.796  28.193  0.00  0.00     0.036 H 
ATOM     74  H36 non d ame     -35.865  10.223  28.020  0.00  0.00     0.036 H 
BRANCH  72  75
ATOM     75  C25 non d ame     -34.336  10.524  26.485  0.00  0.00    -0.001 C 
ATOM     76  C26 non d ame     -34.037   8.932  26.769  0.00  0.00    -0.035 C 
ATOM     77  C27 non d ame     -32.696   8.742  26.819  0.00  0.00     0.085 C 
ATOM     78  H38 non d ame     -34.370   8.662  27.771  0.00  0.00     0.036 H 
ATOM     79  H39 non d ame     -34.347   8.334  25.912  0.00  0.00     0.036 H 
ATOM     80  N5  non d ame     -32.061  10.107  26.922  0.00  0.00    -0.049 N 
ATOM     81  H40 non d ame     -32.515   8.195  27.744  0.00  0.00     0.075 H 
ATOM     82  H41 non d ame     -32.429   8.297  25.862  0.00  0.00     0.075 H 
ATOM     83  C28 non d ame     -33.217  11.166  26.535  0.00  0.00     0.193 C 
ATOM     84  H42 non d ame     -31.818  10.238  27.893  0.00  0.00     0.280 HD
ATOM     85  H43 non d ame     -31.342  10.142  26.213  0.00  0.00     0.280 HD
ATOM     86  H44 non d ame     -33.221  11.648  25.557  0.00  0.00     0.129 H 
ATOM     87  H37 non d ame     -34.608  10.803  25.467  0.00  0.00     0.046 H 
BRANCH  83  88
ATOM     88  O6  non d ame     -33.249  12.231  27.486  0.00  0.00    -0.369 OA
ATOM     89  H45 non d ame     -32.354  12.435  27.769  0.00  0.00     0.212 HD
ENDBRANCH  83  88
ENDBRANCH  72  75
ENDBRANCH  47  72
ENDBRANCH  45  47
ENDBRANCH   1  43
BRANCH   1  90
ATOM     90  C16 non d ame     -36.543  16.534  24.906  0.00  0.00    -0.035 C 
ATOM     91  H21 non d ame     -35.540  16.908  24.700  0.00  0.00     0.037 H 
ATOM     92  H22 non d ame     -37.004  15.810  24.235  0.00  0.00     0.037 H 
BRANCH  90  93
ATOM     93  C17 non d ame     -37.483  17.781  24.923  0.00  0.00    -0.059 C 
ATOM     94  H23 non d ame     -38.039  17.789  23.986  0.00  0.00     0.038 H 
BRANCH  93  95
ATOM     95  C18 non d ame     -38.520  17.722  26.091  0.00  0.00    -0.073 C 
ATOM     96  H24 non d ame     -38.758  16.683  26.313  0.00  0.00     0.028 H 
ATOM     97  H25 non d ame     -38.096  18.194  26.977  0.00  0.00     0.028 H 
ATOM     98  H26 non d ame     -39.428  18.248  25.797  0.00  0.00     0.028 H 
ENDBRANCH  93  95
BRANCH  93  99
ATOM     99  C19 non d ame     -36.671  19.078  24.981  0.00  0.00    -0.073 C 
ATOM    100  H27 non d ame     -36.554  19.479  23.974  0.00  0.00     0.028 H 
ATOM    101  H28 non d ame     -37.192  19.806  25.604  0.00  0.00     0.028 H 
ATOM    102  H29 non d ame     -35.689  18.873  25.407  0.00  0.00     0.028 H 
ENDBRANCH  93  99
ENDBRANCH  90  93
ENDBRANCH   1  90
TORSDOF 26
ENDMDL
MODEL 9
REMARK VINA RESULT:      -6.2      2.684      8.896
REMARK  26 active torsions:
REMARK  status: ('A' for Active; 'I' for Inactive)
REMARK    1  A    between atoms: C2_2  and  C3_3 
REMARK    2  A    between atoms: C4_6  and  C5_7 
REMARK       I    between atoms: C5_7  and  N2_9 
REMARK    3  A    between atoms: N2_9  and  C6_10 
REMARK    4  A    between atoms: C6_10  and  C7_11 
REMARK    5  A    between atoms: C6_10  and  C8_13 
REMARK       I    between atoms: C7_11  and  N3_14 
REMARK    6  A    between atoms: N3_14  and  C9_15 
REMARK    7  A    between atoms: C9_15  and  C10_16 
REMARK    8  A    between atoms: C9_15  and  C11_18 
REMARK       I    between atoms: C10_16  and  N4_21 
REMARK    9  A    between atoms: C11_18  and  C12_19 
REMARK   10  A    between atoms: C11_18  and  C13_20 
REMARK   11  A    between atoms: N4_21  and  C14_22 
REMARK   12  A    between atoms: C14_22  and  C15_23 
REMARK   13  A    between atoms: C14_22  and  C16_25 
REMARK       I    between atoms: C15_23  and  N6_40 
REMARK   14  A    between atoms: C16_25  and  C17_26 
REMARK   15  A    between atoms: C17_26  and  C18_27 
REMARK   16  A    between atoms: C17_26  and  C19_28 
REMARK   17  A    between atoms: C20_29  and  C21_30 
REMARK   18  A    between atoms: C20_29  and  C24_33 
REMARK   19  A    between atoms: C20_29  and  N6_40 
REMARK   20  A    between atoms: C21_30  and  C22_31 
REMARK   21  A    between atoms: C22_31  and  C23_32 
REMARK   22  A    between atoms: C23_32  and  O8_43 
REMARK   23  A    between atoms: C24_33  and  C25_34 
REMARK   24  A    between atoms: C28_38  and  O6_39 
REMARK   25  A    between atoms: C29_42  and  O8_43 
REMARK   26  A    between atoms: C29_42  and  C35_49 
ROOT
ATOM      1  C14 non d ame     -33.982   7.293  26.971  0.00  0.00     0.089 C 
ATOM      2  H20 non d ame     -33.561   6.695  27.781  0.00  0.00     0.087 H 
ENDROOT
BRANCH   1   3
ATOM      3  N4  non d ame     -34.400   8.566  27.539  0.00  0.00    -0.346 N 
ATOM      4  C10 non d ame     -34.768   8.666  28.998  0.00  0.00     0.241 C 
ATOM      5  O4  non d ame     -34.722   7.706  29.695  0.00  0.00    -0.271 OA
ATOM      6  H19 non d ame     -34.435   9.370  26.928  0.00  0.00     0.163 HD
BRANCH   4   7
ATOM      7  C9  non d ame     -35.194   9.993  29.570  0.00  0.00     0.092 C 
ATOM      8  H11 non d ame     -35.212   9.925  30.658  0.00  0.00     0.088 H 
BRANCH   7   9
ATOM      9  N3  non d ame     -34.206  11.017  29.217  0.00  0.00    -0.346 N 
ATOM     10  C7  non d ame     -33.262  11.478  30.205  0.00  0.00     0.240 C 
ATOM     11  O3  non d ame     -33.284  11.038  31.289  0.00  0.00    -0.271 OA
ATOM     12  H10 non d ame     -34.176  11.407  28.286  0.00  0.00     0.163 HD
BRANCH  10  13
ATOM     13  C6  non d ame     -32.215  12.571  29.824  0.00  0.00     0.086 C 
ATOM     14  H6  non d ame     -31.654  12.321  28.924  0.00  0.00     0.086 H 
BRANCH  13  15
ATOM     15  N2  non d ame     -32.912  13.816  29.547  0.00  0.00    -0.343 N 
ATOM     16  C5  non d ame     -32.282  14.820  28.687  0.00  0.00     0.273 C 
ATOM     17  O2  non d ame     -31.212  14.618  28.226  0.00  0.00    -0.266 OA
ATOM     18  H5  non d ame     -33.824  13.981  29.948  0.00  0.00     0.163 HD
BRANCH  16  19
ATOM     19  C4  non d ame     -33.008  16.140  28.385  0.00  0.00     0.154 A 
ATOM     20  C1  non d ame     -32.414  17.387  28.012  0.00  0.00    -0.017 A 
ATOM     21  C2  non d ame     -33.503  18.273  27.849  0.00  0.00     0.077 A 
ATOM     22  H1  non d ame     -31.357  17.615  27.878  0.00  0.00     0.091 H 
ATOM     23  O1  non d ame     -34.589  17.603  28.101  0.00  0.00    -0.218 OA
ATOM     24  N1  non d ame     -34.326  16.356  28.417  0.00  0.00    -0.123 NA
BRANCH  21  25
ATOM     25  C3  non d ame     -33.419  19.741  27.452  0.00  0.00    -0.029 C 
ATOM     26  H2  non d ame     -32.786  20.274  28.161  0.00  0.00     0.036 H 
ATOM     27  H3  non d ame     -32.993  19.823  26.452  0.00  0.00     0.036 H 
ATOM     28  H4  non d ame     -34.418  20.177  27.458  0.00  0.00     0.036 H 
ENDBRANCH  21  25
ENDBRANCH  16  19
ENDBRANCH  13  15
BRANCH  13  29
ATOM     29  C8  non d ame     -31.247  12.763  30.964  0.00  0.00    -0.049 C 
ATOM     30  H7  non d ame     -31.331  11.925  31.656  0.00  0.00     0.030 H 
ATOM     31  H8  non d ame     -30.231  12.811  30.573  0.00  0.00     0.030 H 
ATOM     32  H9  non d ame     -31.481  13.690  31.487  0.00  0.00     0.030 H 
ENDBRANCH  13  29
ENDBRANCH  10  13
ENDBRANCH   7   9
BRANCH   7  33
ATOM     33  C11 non d ame     -36.580  10.389  28.984  0.00  0.00    -0.033 C 
ATOM     34  H12 non d ame     -36.987  11.183  29.610  0.00  0.00     0.042 H 
BRANCH  33  35
ATOM     35  C12 non d ame     -36.444  10.958  27.537  0.00  0.00    -0.071 C 
ATOM     36  H13 non d ame     -37.422  11.279  27.179  0.00  0.00     0.028 H 
ATOM     37  H14 non d ame     -35.762  11.807  27.543  0.00  0.00     0.028 H 
ATOM     38  H15 non d ame     -36.054  10.182  26.877  0.00  0.00     0.028 H 
ENDBRANCH  33  35
BRANCH  33  39
ATOM     39  C13 non d ame     -37.572   9.183  29.028  0.00  0.00    -0.071 C 
ATOM     40  H16 non d ame     -38.593   9.555  29.115  0.00  0.00     0.028 H 
ATOM     41  H17 non d ame     -37.475   8.599  28.112  0.00  0.00     0.028 H 
ATOM     42  H18 non d ame     -37.339   8.552  29.885  0.00  0.00     0.028 H 
ENDBRANCH  33  39
ENDBRANCH   7  33
ENDBRANCH   4   7
ENDBRANCH   1   3
BRANCH   1  43
ATOM     43  C15 non d ame     -32.945   7.570  25.845  0.00  0.00     0.240 C 
ATOM     44  O5  non d ame     -31.963   6.904  25.769  0.00  0.00    -0.271 OA
ATOM     45  N6  non d ame     -33.180   8.660  24.856  0.00  0.00    -0.355 N 
ATOM     46  H46 non d ame     -34.012   9.229  24.908  0.00  0.00     0.162 HD
BRANCH  45  47
ATOM     47  C20 non d ame     -32.185   8.909  23.790  0.00  0.00     0.013 C 
ATOM     48  H30 non d ame     -31.333   8.253  23.967  0.00  0.00     0.072 H 
BRANCH  47  49
ATOM     49  C21 non d ame     -31.745  10.355  23.846  0.00  0.00    -0.038 C 
ATOM     50  H31 non d ame     -30.677  10.329  24.062  0.00  0.00     0.036 H 
ATOM     51  H32 non d ame     -32.104  10.807  22.922  0.00  0.00     0.036 H 
BRANCH  49  52
ATOM     52  C22 non d ame     -32.405  11.138  25.001  0.00  0.00     0.018 C 
ATOM     53  H33 non d ame     -33.014  11.907  24.527  0.00  0.00     0.048 H 
ATOM     54  H34 non d ame     -32.874  10.387  25.638  0.00  0.00     0.048 H 
BRANCH  52  55
ATOM     55  C23 non d ame     -31.392  11.893  25.906  0.00  0.00     0.259 C 
ATOM     56  O7  non d ame     -31.055  11.433  26.949  0.00  0.00    -0.265 OA
BRANCH  55  57
ATOM     57  O8  non d ame     -30.878  13.148  25.480  0.00  0.00    -0.317 OA
BRANCH  57  58
ATOM     58  C29 non d ame     -31.813  13.940  24.741  0.00  0.00     0.052 C 
ATOM     59  H47 non d ame     -32.623  13.263  24.470  0.00  0.00     0.082 H 
ATOM     60  H48 non d ame     -32.017  14.812  25.362  0.00  0.00     0.082 H 
BRANCH  58  61
ATOM     61  C35 non d ame     -31.115  14.417  23.440  0.00  0.00    -0.034 A 
ATOM     62  C30 non d ame     -31.439  15.652  22.888  0.00  0.00    -0.075 A 
ATOM     63  C31 non d ame     -30.812  16.081  21.719  0.00  0.00    -0.082 A 
ATOM     64  H49 non d ame     -32.184  16.284  23.371  0.00  0.00     0.084 H 
ATOM     65  C32 non d ame     -29.859  15.268  21.100  0.00  0.00    -0.083 A 
ATOM     66  H50 non d ame     -31.066  17.050  21.290  0.00  0.00     0.083 H 
ATOM     67  C33 non d ame     -29.541  14.034  21.653  0.00  0.00    -0.082 A 
ATOM     68  H51 non d ame     -29.363  15.595  20.186  0.00  0.00     0.083 H 
ATOM     69  C34 non d ame     -30.164  13.603  22.822  0.00  0.00    -0.075 A 
ATOM     70  H52 non d ame     -28.799  13.401  21.166  0.00  0.00     0.083 H 
ATOM     71  H53 non d ame     -29.908  12.633  23.250  0.00  0.00     0.084 H 
ENDBRANCH  58  61
ENDBRANCH  57  58
ENDBRANCH  55  57
ENDBRANCH  52  55
ENDBRANCH  49  52
ENDBRANCH  47  49
BRANCH  47  72
ATOM     72  C24 non d ame     -32.806   8.617  22.426  0.00  0.00    -0.039 C 
ATOM     73  H35 non d ame     -33.747   9.168  22.411  0.00  0.00     0.036 H 
ATOM     74  H36 non d ame     -32.028   8.849  21.698  0.00  0.00     0.036 H 
BRANCH  72  75
ATOM     75  C25 non d ame     -33.164   7.065  22.257  0.00  0.00    -0.001 C 
ATOM     76  C26 non d ame     -31.790   6.164  22.315  0.00  0.00    -0.035 C 
ATOM     77  C27 non d ame     -31.761   5.343  21.238  0.00  0.00     0.085 C 
ATOM     78  H38 non d ame     -30.918   6.802  22.173  0.00  0.00     0.036 H 
ATOM     79  H39 non d ame     -31.830   5.475  23.159  0.00  0.00     0.036 H 
ATOM     80  N5  non d ame     -32.822   5.831  20.282  0.00  0.00    -0.049 N 
ATOM     81  H40 non d ame     -30.780   5.490  20.786  0.00  0.00     0.075 H 
ATOM     82  H41 non d ame     -32.046   4.360  21.613  0.00  0.00     0.075 H 
ATOM     83  C28 non d ame     -33.753   6.841  21.130  0.00  0.00     0.193 C 
ATOM     84  H42 non d ame     -32.343   6.359  19.568  0.00  0.00     0.280 HD
ATOM     85  H43 non d ame     -33.372   5.022  20.029  0.00  0.00     0.280 HD
ATOM     86  H44 non d ame     -34.737   6.526  21.480  0.00  0.00     0.129 H 
ATOM     87  H37 non d ame     -33.986   6.758  22.905  0.00  0.00     0.046 H 
BRANCH  83  88
ATOM     88  O6  non d ame     -33.978   8.043  20.391  0.00  0.00    -0.369 OA
ATOM     89  H45 non d ame     -34.910   8.115  20.173  0.00  0.00     0.212 HD
ENDBRANCH  83  88
ENDBRANCH  72  75
ENDBRANCH  47  72
ENDBRANCH  45  47
ENDBRANCH   1  43
BRANCH   1  90
ATOM     90  C16 non d ame     -35.195   6.588  26.387  0.00  0.00    -0.035 C 
ATOM     91  H21 non d ame     -36.028   7.274  26.537  0.00  0.00     0.037 H 
ATOM     92  H22 non d ame     -34.902   6.298  25.378  0.00  0.00     0.037 H 
BRANCH  90  93
ATOM     93  C17 non d ame     -35.573   5.268  27.133  0.00  0.00    -0.059 C 
ATOM     94  H23 non d ame     -35.938   4.561  26.389  0.00  0.00     0.038 H 
BRANCH  93  95
ATOM     95  C18 non d ame     -34.341   4.620  27.843  0.00  0.00    -0.073 C 
ATOM     96  H24 non d ame     -34.482   4.658  28.923  0.00  0.00     0.028 H 
ATOM     97  H25 non d ame     -34.244   3.582  27.527  0.00  0.00     0.028 H 
ATOM     98  H26 non d ame     -33.438   5.167  27.575  0.00  0.00     0.028 H 
ENDBRANCH  93  95
BRANCH  93  99
ATOM     99  C19 non d ame     -36.710   5.509  28.128  0.00  0.00    -0.073 C 
ATOM    100  H27 non d ame     -37.116   6.511  27.981  0.00  0.00     0.028 H 
ATOM    101  H28 non d ame     -37.497   4.772  27.968  0.00  0.00     0.028 H 
ATOM    102  H29 non d ame     -36.329   5.417  29.145  0.00  0.00     0.028 H 
ENDBRANCH  93  99
ENDBRANCH  90  93
ENDBRANCH   1  90
TORSDOF 26
ENDMDL
MODEL 10
REMARK VINA RESULT:      -6.2      2.925      7.410
REMARK  26 active torsions:
REMARK  status: ('A' for Active; 'I' for Inactive)
REMARK    1  A    between atoms: C2_2  and  C3_3 
REMARK    2  A    between atoms: C4_6  and  C5_7 
REMARK       I    between atoms: C5_7  and  N2_9 
REMARK    3  A    between atoms: N2_9  and  C6_10 
REMARK    4  A    between atoms: C6_10  and  C7_11 
REMARK    5  A    between atoms: C6_10  and  C8_13 
REMARK       I    between atoms: C7_11  and  N3_14 
REMARK    6  A    between atoms: N3_14  and  C9_15 
REMARK    7  A    between atoms: C9_15  and  C10_16 
REMARK    8  A    between atoms: C9_15  and  C11_18 
REMARK       I    between atoms: C10_16  and  N4_21 
REMARK    9  A    between atoms: C11_18  and  C12_19 
REMARK   10  A    between atoms: C11_18  and  C13_20 
REMARK   11  A    between atoms: N4_21  and  C14_22 
REMARK   12  A    between atoms: C14_22  and  C15_23 
REMARK   13  A    between atoms: C14_22  and  C16_25 
REMARK       I    between atoms: C15_23  and  N6_40 
REMARK   14  A    between atoms: C16_25  and  C17_26 
REMARK   15  A    between atoms: C17_26  and  C18_27 
REMARK   16  A    between atoms: C17_26  and  C19_28 
REMARK   17  A    between atoms: C20_29  and  C21_30 
REMARK   18  A    between atoms: C20_29  and  C24_33 
REMARK   19  A    between atoms: C20_29  and  N6_40 
REMARK   20  A    between atoms: C21_30  and  C22_31 
REMARK   21  A    between atoms: C22_31  and  C23_32 
REMARK   22  A    between atoms: C23_32  and  O8_43 
REMARK   23  A    between atoms: C24_33  and  C25_34 
REMARK   24  A    between atoms: C28_38  and  O6_39 
REMARK   25  A    between atoms: C29_42  and  O8_43 
REMARK   26  A    between atoms: C29_42  and  C35_49 
ROOT
ATOM      1  C14 non d ame     -35.678   9.828  29.572  0.00  0.00     0.089 C 
ATOM      2  H20 non d ame     -35.218   8.870  29.819  0.00  0.00     0.087 H 
ENDROOT
BRANCH   1   3
ATOM      3  N4  non d ame     -34.606  10.796  29.397  0.00  0.00    -0.346 N 
ATOM      4  C10 non d ame     -33.276  10.367  28.831  0.00  0.00     0.241 C 
ATOM      5  O4  non d ame     -33.091   9.235  28.526  0.00  0.00    -0.271 OA
ATOM      6  H19 non d ame     -34.783  11.754  29.664  0.00  0.00     0.163 HD
BRANCH   4   7
ATOM      7  C9  non d ame     -32.180  11.384  28.651  0.00  0.00     0.092 C 
ATOM      8  H11 non d ame     -31.237  10.867  28.472  0.00  0.00     0.088 H 
BRANCH   7   9
ATOM      9  N3  non d ame     -32.459  12.200  27.465  0.00  0.00    -0.346 N 
ATOM     10  C7  non d ame     -31.649  12.050  26.281  0.00  0.00     0.240 C 
ATOM     11  O3  non d ame     -30.768  11.280  26.266  0.00  0.00    -0.271 OA
ATOM     12  H10 non d ame     -33.215  12.869  27.464  0.00  0.00     0.163 HD
BRANCH  10  13
ATOM     13  C6  non d ame     -31.949  12.923  25.023  0.00  0.00     0.086 C 
ATOM     14  H6  non d ame     -32.980  12.830  24.681  0.00  0.00     0.086 H 
BRANCH  13  15
ATOM     15  N2  non d ame     -31.749  14.323  25.362  0.00  0.00    -0.343 N 
ATOM     16  C5  non d ame     -32.867  15.101  25.901  0.00  0.00     0.273 C 
ATOM     17  O2  non d ame     -33.923  14.594  26.055  0.00  0.00    -0.266 OA
ATOM     18  H5  non d ame     -30.844  14.749  25.224  0.00  0.00     0.163 HD
BRANCH  16  19
ATOM     19  C4  non d ame     -32.669  16.581  26.264  0.00  0.00     0.154 A 
ATOM     20  C1  non d ame     -32.908  17.199  27.533  0.00  0.00    -0.017 A 
ATOM     21  C2  non d ame     -32.575  18.559  27.343  0.00  0.00     0.077 A 
ATOM     22  H1  non d ame     -33.267  16.732  28.450  0.00  0.00     0.091 H 
ATOM     23  O1  non d ame     -32.190  18.695  26.108  0.00  0.00    -0.218 OA
ATOM     24  N1  non d ame     -32.237  17.555  25.458  0.00  0.00    -0.123 NA
BRANCH  21  25
ATOM     25  C3  non d ame     -32.651  19.660  28.392  0.00  0.00    -0.029 C 
ATOM     26  H2  non d ame     -31.771  19.614  29.033  0.00  0.00     0.036 H 
ATOM     27  H3  non d ame     -32.690  20.631  27.897  0.00  0.00     0.036 H 
ATOM     28  H4  non d ame     -33.548  19.525  28.996  0.00  0.00     0.036 H 
ENDBRANCH  21  25
ENDBRANCH  16  19
ENDBRANCH  13  15
BRANCH  13  29
ATOM     29  C8  non d ame     -31.025  12.527  23.900  0.00  0.00    -0.049 C 
ATOM     30  H7  non d ame     -29.995  12.748  24.182  0.00  0.00     0.030 H 
ATOM     31  H8  non d ame     -31.127  11.459  23.706  0.00  0.00     0.030 H 
ATOM     32  H9  non d ame     -31.284  13.086  23.001  0.00  0.00     0.030 H 
ENDBRANCH  13  29
ENDBRANCH  10  13
ENDBRANCH   7   9
BRANCH   7  33
ATOM     33  C11 non d ame     -32.114  12.303  29.906  0.00  0.00    -0.033 C 
ATOM     34  H12 non d ame     -32.925  12.009  30.571  0.00  0.00     0.042 H 
BRANCH  33  35
ATOM     35  C12 non d ame     -30.775  12.109  30.683  0.00  0.00    -0.071 C 
ATOM     36  H13 non d ame     -30.340  11.144  30.423  0.00  0.00     0.028 H 
ATOM     37  H14 non d ame     -30.081  12.905  30.415  0.00  0.00     0.028 H 
ATOM     38  H15 non d ame     -30.970  12.142  31.755  0.00  0.00     0.028 H 
ENDBRANCH  33  35
BRANCH  33  39
ATOM     39  C13 non d ame     -32.330  13.800  29.514  0.00  0.00    -0.071 C 
ATOM     40  H16 non d ame     -33.273  13.903  28.976  0.00  0.00     0.028 H 
ATOM     41  H17 non d ame     -32.358  14.412  30.417  0.00  0.00     0.028 H 
ATOM     42  H18 non d ame     -31.510  14.131  28.877  0.00  0.00     0.028 H 
ENDBRANCH  33  39
ENDBRANCH   7  33
ENDBRANCH   4   7
ENDBRANCH   1   3
BRANCH   1  43
ATOM     43  C15 non d ame     -36.504   9.760  28.256  0.00  0.00     0.240 C 
ATOM     44  O5  non d ame     -37.577  10.269  28.205  0.00  0.00    -0.271 OA
ATOM     45  N6  non d ame     -35.954   9.068  27.055  0.00  0.00    -0.355 N 
ATOM     46  H46 non d ame     -35.042   8.636  27.085  0.00  0.00     0.162 HD
BRANCH  45  47
ATOM     47  C20 non d ame     -36.752   9.014  25.811  0.00  0.00     0.013 C 
ATOM     48  H30 non d ame     -37.798   9.166  26.077  0.00  0.00     0.072 H 
BRANCH  47  49
ATOM     49  C21 non d ame     -36.575   7.659  25.163  0.00  0.00    -0.038 C 
ATOM     50  H31 non d ame     -37.529   7.145  25.289  0.00  0.00     0.036 H 
ATOM     51  H32 non d ame     -36.192   7.860  24.162  0.00  0.00     0.036 H 
BRANCH  49  52
ATOM     52  C22 non d ame     -35.514   6.790  25.871  0.00  0.00     0.018 C 
ATOM     53  H33 non d ame     -34.878   6.396  25.079  0.00  0.00     0.048 H 
ATOM     54  H34 non d ame     -35.086   7.422  26.650  0.00  0.00     0.048 H 
BRANCH  52  55
ATOM     55  C23 non d ame     -36.104   5.552  26.602  0.00  0.00     0.259 C 
ATOM     56  O7  non d ame     -37.237   5.236  26.435  0.00  0.00    -0.265 OA
BRANCH  55  57
ATOM     57  O8  non d ame     -35.277   4.805  27.486  0.00  0.00    -0.317 OA
BRANCH  57  58
ATOM     58  C29 non d ame     -34.131   5.521  27.956  0.00  0.00     0.052 C 
ATOM     59  H47 non d ame     -33.341   5.322  27.232  0.00  0.00     0.082 H 
ATOM     60  H48 non d ame     -34.471   6.542  28.126  0.00  0.00     0.082 H 
BRANCH  58  61
ATOM     61  C35 non d ame     -33.712   4.910  29.320  0.00  0.00    -0.034 A 
ATOM     62  C30 non d ame     -34.442   5.202  30.468  0.00  0.00    -0.075 A 
ATOM     63  C31 non d ame     -34.065   4.654  31.693  0.00  0.00    -0.082 A 
ATOM     64  H49 non d ame     -35.309   5.860  30.408  0.00  0.00     0.084 H 
ATOM     65  C32 non d ame     -32.952   3.813  31.769  0.00  0.00    -0.083 A 
ATOM     66  H50 non d ame     -34.640   4.883  32.591  0.00  0.00     0.083 H 
ATOM     67  C33 non d ame     -32.224   3.527  30.621  0.00  0.00    -0.082 A 
ATOM     68  H51 non d ame     -32.650   3.379  32.722  0.00  0.00     0.083 H 
ATOM     69  C34 non d ame     -32.598   4.071  29.394  0.00  0.00    -0.075 A 
ATOM     70  H52 non d ame     -31.354   2.873  30.684  0.00  0.00     0.083 H 
ATOM     71  H53 non d ame     -32.023   3.842  28.497  0.00  0.00     0.084 H 
ENDBRANCH  58  61
ENDBRANCH  57  58
ENDBRANCH  55  57
ENDBRANCH  52  55
ENDBRANCH  49  52
ENDBRANCH  47  49
BRANCH  47  72
ATOM     72  C24 non d ame     -36.285  10.104  24.850  0.00  0.00    -0.039 C 
ATOM     73  H35 non d ame     -35.270  10.351  25.163  0.00  0.00     0.036 H 
ATOM     74  H36 non d ame     -36.465   9.707  23.851  0.00  0.00     0.036 H 
BRANCH  72  75
ATOM     75  C25 non d ame     -37.162  11.437  24.994  0.00  0.00    -0.001 C 
ATOM     76  C26 non d ame     -37.697  11.917  23.515  0.00  0.00    -0.035 C 
ATOM     77  C27 non d ame     -37.387  13.224  23.342  0.00  0.00     0.085 C 
ATOM     78  H38 non d ame     -37.131  11.415  22.731  0.00  0.00     0.036 H 
ATOM     79  H39 non d ame     -38.787  11.909  23.491  0.00  0.00     0.036 H 
ATOM     80  N5  non d ame     -36.403  13.592  24.426  0.00  0.00    -0.049 N 
ATOM     81  H40 non d ame     -36.887  13.279  22.375  0.00  0.00     0.075 H 
ATOM     82  H41 non d ame     -38.316  13.768  23.506  0.00  0.00     0.075 H 
ATOM     83  C28 non d ame     -36.471  12.398  25.510  0.00  0.00     0.193 C 
ATOM     84  H42 non d ame     -35.489  13.586  23.998  0.00  0.00     0.280 HD
ATOM     85  H43 non d ame     -36.754  14.436  24.856  0.00  0.00     0.280 HD
ATOM     86  H44 non d ame     -36.998  12.536  26.454  0.00  0.00     0.129 H 
ATOM     87  H37 non d ame     -37.904  11.359  25.788  0.00  0.00     0.046 H 
BRANCH  83  88
ATOM     88  O6  non d ame     -35.152  11.981  25.868  0.00  0.00    -0.369 OA
ATOM     89  H45 non d ame     -34.744  12.650  26.423  0.00  0.00     0.212 HD
ENDBRANCH  83  88
ENDBRANCH  72  75
ENDBRANCH  47  72
ENDBRANCH  45  47
ENDBRANCH   1  43
BRANCH   1  90
ATOM     90  C16 non d ame     -36.572  10.279  30.715  0.00  0.00    -0.035 C 
ATOM     91  H21 non d ame     -36.062  11.132  31.161  0.00  0.00     0.037 H 
ATOM     92  H22 non d ame     -37.562  10.405  30.275  0.00  0.00     0.037 H 
BRANCH  90  93
ATOM     93  C17 non d ame     -36.726   9.215  31.848  0.00  0.00    -0.059 C 
ATOM     94  H23 non d ame     -37.640   9.445  32.396  0.00  0.00     0.038 H 
BRANCH  93  95
ATOM     95  C18 non d ame     -36.860   7.766  31.282  0.00  0.00    -0.073 C 
ATOM     96  H24 non d ame     -37.881   7.413  31.424  0.00  0.00     0.028 H 
ATOM     97  H25 non d ame     -36.622   7.767  30.219  0.00  0.00     0.028 H 
ATOM     98  H26 non d ame     -36.171   7.105  31.807  0.00  0.00     0.028 H 
ENDBRANCH  93  95
BRANCH  93  99
ATOM     99  C19 non d ame     -35.565   9.306  32.843  0.00  0.00    -0.073 C 
ATOM    100  H27 non d ame     -35.474  10.330  33.204  0.00  0.00     0.028 H 
ATOM    101  H28 non d ame     -35.755   8.640  33.685  0.00  0.00     0.028 H 
ATOM    102  H29 non d ame     -34.640   9.010  32.350  0.00  0.00     0.028 H 
ENDBRANCH  93  99
ENDBRANCH  90  93
ENDBRANCH   1  90
TORSDOF 26
ENDMDL
MODEL 11
REMARK VINA RESULT:      -6.2      2.660      6.064
REMARK  26 active torsions:
REMARK  status: ('A' for Active; 'I' for Inactive)
REMARK    1  A    between atoms: C2_2  and  C3_3 
REMARK    2  A    between atoms: C4_6  and  C5_7 
REMARK       I    between atoms: C5_7  and  N2_9 
REMARK    3  A    between atoms: N2_9  and  C6_10 
REMARK    4  A    between atoms: C6_10  and  C7_11 
REMARK    5  A    between atoms: C6_10  and  C8_13 
REMARK       I    between atoms: C7_11  and  N3_14 
REMARK    6  A    between atoms: N3_14  and  C9_15 
REMARK    7  A    between atoms: C9_15  and  C10_16 
REMARK    8  A    between atoms: C9_15  and  C11_18 
REMARK       I    between atoms: C10_16  and  N4_21 
REMARK    9  A    between atoms: C11_18  and  C12_19 
REMARK   10  A    between atoms: C11_18  and  C13_20 
REMARK   11  A    between atoms: N4_21  and  C14_22 
REMARK   12  A    between atoms: C14_22  and  C15_23 
REMARK   13  A    between atoms: C14_22  and  C16_25 
REMARK       I    between atoms: C15_23  and  N6_40 
REMARK   14  A    between atoms: C16_25  and  C17_26 
REMARK   15  A    between atoms: C17_26  and  C18_27 
REMARK   16  A    between atoms: C17_26  and  C19_28 
REMARK   17  A    between atoms: C20_29  and  C21_30 
REMARK   18  A    between atoms: C20_29  and  C24_33 
REMARK   19  A    between atoms: C20_29  and  N6_40 
REMARK   20  A    between atoms: C21_30  and  C22_31 
REMARK   21  A    between atoms: C22_31  and  C23_32 
REMARK   22  A    between atoms: C23_32  and  O8_43 
REMARK   23  A    between atoms: C24_33  and  C25_34 
REMARK   24  A    between atoms: C28_38  and  O6_39 
REMARK   25  A    between atoms: C29_42  and  O8_43 
REMARK   26  A    between atoms: C29_42  and  C35_49 
ROOT
ATOM      1  C14 non d ame     -33.500   9.148  25.060  0.00  0.00     0.089 C 
ATOM      2  H20 non d ame     -34.075   8.315  24.655  0.00  0.00     0.087 H 
ENDROOT
BRANCH   1   3
ATOM      3  N4  non d ame     -34.290  10.356  24.879  0.00  0.00    -0.346 N 
ATOM      4  C10 non d ame     -35.761  10.361  25.209  0.00  0.00     0.241 C 
ATOM      5  O4  non d ame     -36.288   9.378  25.617  0.00  0.00    -0.271 OA
ATOM      6  H19 non d ame     -33.824  11.181  24.528  0.00  0.00     0.163 HD
BRANCH   4   7
ATOM      7  C9  non d ame     -36.563  11.622  25.021  0.00  0.00     0.092 C 
ATOM      8  H11 non d ame     -37.220  11.761  25.880  0.00  0.00     0.088 H 
BRANCH   7   9
ATOM      9  N3  non d ame     -35.659  12.774  24.975  0.00  0.00    -0.346 N 
ATOM     10  C7  non d ame     -35.089  13.291  26.195  0.00  0.00     0.240 C 
ATOM     11  O3  non d ame     -35.348  12.793  27.222  0.00  0.00    -0.271 OA
ATOM     12  H10 non d ame     -35.427  13.216  24.097  0.00  0.00     0.163 HD
BRANCH  10  13
ATOM     13  C6  non d ame     -34.129  14.520  26.141  0.00  0.00     0.086 C 
ATOM     14  H6  non d ame     -33.382  14.507  26.934  0.00  0.00     0.086 H 
BRANCH  13  15
ATOM     15  N2  non d ame     -33.401  14.494  24.883  0.00  0.00    -0.343 N 
ATOM     16  C5  non d ame     -31.999  14.915  24.852  0.00  0.00     0.273 C 
ATOM     17  O2  non d ame     -31.466  15.276  25.844  0.00  0.00    -0.266 OA
ATOM     18  H5  non d ame     -33.865  14.187  24.040  0.00  0.00     0.163 HD
BRANCH  16  19
ATOM     19  C4  non d ame     -31.216  14.892  23.530  0.00  0.00     0.154 A 
ATOM     20  C1  non d ame     -31.614  15.462  22.279  0.00  0.00    -0.017 A 
ATOM     21  C2  non d ame     -30.555  15.168  21.392  0.00  0.00     0.077 A 
ATOM     22  H1  non d ame     -32.531  16.006  22.051  0.00  0.00     0.091 H 
ATOM     23  O1  non d ame     -29.658  14.508  22.065  0.00  0.00    -0.218 OA
ATOM     24  N1  non d ame     -30.022  14.334  23.314  0.00  0.00    -0.123 NA
BRANCH  21  25
ATOM     25  C3  non d ame     -30.478  15.555  19.921  0.00  0.00    -0.029 C 
ATOM     26  H2  non d ame     -29.445  15.483  19.580  0.00  0.00     0.036 H 
ATOM     27  H3  non d ame     -31.101  14.880  19.335  0.00  0.00     0.036 H 
ATOM     28  H4  non d ame     -30.832  16.578  19.795  0.00  0.00     0.036 H 
ENDBRANCH  21  25
ENDBRANCH  16  19
ENDBRANCH  13  15
BRANCH  13  29
ATOM     29  C8  non d ame     -34.930  15.793  26.248  0.00  0.00    -0.049 C 
ATOM     30  H7  non d ame     -34.357  16.619  25.828  0.00  0.00     0.030 H 
ATOM     31  H8  non d ame     -35.863  15.681  25.696  0.00  0.00     0.030 H 
ATOM     32  H9  non d ame     -35.150  15.997  27.296  0.00  0.00     0.030 H 
ENDBRANCH  13  29
ENDBRANCH  10  13
ENDBRANCH   7   9
BRANCH   7  33
ATOM     33  C11 non d ame     -37.358  11.536  23.685  0.00  0.00    -0.033 C 
ATOM     34  H12 non d ame     -36.765  10.944  22.987  0.00  0.00     0.042 H 
BRANCH  33  35
ATOM     35  C12 non d ame     -38.722  10.803  23.880  0.00  0.00    -0.071 C 
ATOM     36  H13 non d ame     -39.127  11.046  24.863  0.00  0.00     0.028 H 
ATOM     37  H14 non d ame     -39.421  11.125  23.110  0.00  0.00     0.028 H 
ATOM     38  H15 non d ame     -38.569   9.727  23.807  0.00  0.00     0.028 H 
ENDBRANCH  33  35
BRANCH  33  39
ATOM     39  C13 non d ame     -37.561  12.955  23.063  0.00  0.00    -0.071 C 
ATOM     40  H16 non d ame     -38.531  12.999  22.567  0.00  0.00     0.028 H 
ATOM     41  H17 non d ame     -37.522  13.707  23.853  0.00  0.00     0.028 H 
ATOM     42  H18 non d ame     -36.772  13.151  22.338  0.00  0.00     0.028 H 
ENDBRANCH  33  39
ENDBRANCH   7  33
ENDBRANCH   4   7
ENDBRANCH   1   3
BRANCH   1  43
ATOM     43  C15 non d ame     -33.202   8.974  26.577  0.00  0.00     0.240 C 
ATOM     44  O5  non d ame     -32.561   8.045  26.950  0.00  0.00    -0.271 OA
ATOM     45  N6  non d ame     -33.709   9.970  27.563  0.00  0.00    -0.355 N 
ATOM     46  H46 non d ame     -34.250  10.765  27.257  0.00  0.00     0.162 HD
BRANCH  45  47
ATOM     47  C20 non d ame     -33.417   9.790  29.002  0.00  0.00     0.013 C 
ATOM     48  H30 non d ame     -33.237   8.730  29.178  0.00  0.00     0.072 H 
BRANCH  47  49
ATOM     49  C21 non d ame     -34.604  10.255  29.815  0.00  0.00    -0.038 C 
ATOM     50  H31 non d ame     -34.398   9.946  30.840  0.00  0.00     0.036 H 
ATOM     51  H32 non d ame     -34.727  11.312  29.578  0.00  0.00     0.036 H 
BRANCH  49  52
ATOM     52  C22 non d ame     -35.920   9.560  29.405  0.00  0.00     0.018 C 
ATOM     53  H33 non d ame     -36.628  10.363  29.203  0.00  0.00     0.048 H 
ATOM     54  H34 non d ame     -35.650   8.860  28.613  0.00  0.00     0.048 H 
BRANCH  52  55
ATOM     55  C23 non d ame     -36.555   8.703  30.535  0.00  0.00     0.259 C 
ATOM     56  O7  non d ame     -36.930   9.214  31.541  0.00  0.00    -0.265 OA
BRANCH  55  57
ATOM     57  O8  non d ame     -36.672   7.297  30.362  0.00  0.00    -0.317 OA
BRANCH  57  58
ATOM     58  C29 non d ame     -35.906   6.779  29.271  0.00  0.00     0.052 C 
ATOM     59  H47 non d ame     -36.613   6.233  28.646  0.00  0.00     0.082 H 
ATOM     60  H48 non d ame     -35.362   7.630  28.861  0.00  0.00     0.082 H 
BRANCH  58  61
ATOM     61  C35 non d ame     -34.876   5.769  29.845  0.00  0.00    -0.034 A 
ATOM     62  C30 non d ame     -34.827   5.527  31.214  0.00  0.00    -0.075 A 
ATOM     63  C31 non d ame     -33.902   4.621  31.730  0.00  0.00    -0.082 A 
ATOM     64  H49 non d ame     -35.512   6.048  31.883  0.00  0.00     0.084 H 
ATOM     65  C32 non d ame     -33.022   3.957  30.871  0.00  0.00    -0.083 A 
ATOM     66  H50 non d ame     -33.867   4.432  32.803  0.00  0.00     0.083 H 
ATOM     67  C33 non d ame     -33.073   4.204  29.506  0.00  0.00    -0.082 A 
ATOM     68  H51 non d ame     -32.296   3.246  31.266  0.00  0.00     0.083 H 
ATOM     69  C34 non d ame     -33.997   5.107  28.986  0.00  0.00    -0.075 A 
ATOM     70  H52 non d ame     -32.383   3.686  28.839  0.00  0.00     0.083 H 
ATOM     71  H53 non d ame     -34.031   5.295  27.912  0.00  0.00     0.084 H 
ENDBRANCH  58  61
ENDBRANCH  57  58
ENDBRANCH  55  57
ENDBRANCH  52  55
ENDBRANCH  49  52
ENDBRANCH  47  49
BRANCH  47  72
ATOM     72  C24 non d ame     -32.185  10.608  29.384  0.00  0.00    -0.039 C 
ATOM     73  H35 non d ame     -31.694  10.041  30.176  0.00  0.00     0.036 H 
ATOM     74  H36 non d ame     -31.662  10.800  28.448  0.00  0.00     0.036 H 
BRANCH  72  75
ATOM     75  C25 non d ame     -32.587  12.031  30.002  0.00  0.00    -0.001 C 
ATOM     76  C26 non d ame     -32.302  13.219  28.902  0.00  0.00    -0.035 C 
ATOM     77  C27 non d ame     -31.561  14.190  29.489  0.00  0.00     0.085 C 
ATOM     78  H38 non d ame     -31.653  12.848  28.110  0.00  0.00     0.036 H 
ATOM     79  H39 non d ame     -33.233  13.727  28.650  0.00  0.00     0.036 H 
ATOM     80  N5  non d ame     -31.039  13.621  30.787  0.00  0.00    -0.049 N 
ATOM     81  H40 non d ame     -30.723  14.365  28.815  0.00  0.00     0.075 H 
ATOM     82  H41 non d ame     -32.260  14.996  29.711  0.00  0.00     0.075 H 
ATOM     83  C28 non d ame     -31.904  12.287  31.067  0.00  0.00     0.193 C 
ATOM     84  H42 non d ame     -30.080  13.353  30.616  0.00  0.00     0.280 HD
ATOM     85  H43 non d ame     -31.254  14.301  31.503  0.00  0.00     0.280 HD
ATOM     86  H44 non d ame     -32.697  12.289  31.815  0.00  0.00     0.129 H 
ATOM     87  H37 non d ame     -33.571  12.014  30.471  0.00  0.00     0.046 H 
BRANCH  83  88
ATOM     88  O6  non d ame     -31.041  11.207  31.428  0.00  0.00    -0.369 OA
ATOM     89  H45 non d ame     -30.235  11.254  30.907  0.00  0.00     0.212 HD
ENDBRANCH  83  88
ENDBRANCH  72  75
ENDBRANCH  47  72
ENDBRANCH  45  47
ENDBRANCH   1  43
BRANCH   1  90
ATOM     90  C16 non d ame     -32.193   9.291  24.296  0.00  0.00    -0.035 C 
ATOM     91  H21 non d ame     -31.444   8.790  24.909  0.00  0.00     0.037 H 
ATOM     92  H22 non d ame     -32.405   8.928  23.290  0.00  0.00     0.037 H 
BRANCH  90  93
ATOM     93  C17 non d ame     -31.717  10.770  24.140  0.00  0.00    -0.059 C 
ATOM     94  H23 non d ame     -32.584  11.370  23.864  0.00  0.00     0.038 H 
BRANCH  93  95
ATOM     95  C18 non d ame     -31.144  11.349  25.474  0.00  0.00    -0.073 C 
ATOM     96  H24 non d ame     -31.554  10.793  26.317  0.00  0.00     0.028 H 
ATOM     97  H25 non d ame     -30.058  11.257  25.473  0.00  0.00     0.028 H 
ATOM     98  H26 non d ame     -31.420  12.399  25.562  0.00  0.00     0.028 H 
ENDBRANCH  93  95
BRANCH  93  99
ATOM     99  C19 non d ame     -30.695  10.900  23.007  0.00  0.00    -0.073 C 
ATOM    100  H27 non d ame     -31.217  11.058  22.063  0.00  0.00     0.028 H 
ATOM    101  H28 non d ame     -30.038  11.747  23.205  0.00  0.00     0.028 H 
ATOM    102  H29 non d ame     -30.103   9.987  22.947  0.00  0.00     0.028 H 
ENDBRANCH  93  99
ENDBRANCH  90  93
ENDBRANCH   1  90
TORSDOF 26
ENDMDL
MODEL 12
REMARK VINA RESULT:      -6.1      3.116      7.397
REMARK  26 active torsions:
REMARK  status: ('A' for Active; 'I' for Inactive)
REMARK    1  A    between atoms: C2_2  and  C3_3 
REMARK    2  A    between atoms: C4_6  and  C5_7 
REMARK       I    between atoms: C5_7  and  N2_9 
REMARK    3  A    between atoms: N2_9  and  C6_10 
REMARK    4  A    between atoms: C6_10  and  C7_11 
REMARK    5  A    between atoms: C6_10  and  C8_13 
REMARK       I    between atoms: C7_11  and  N3_14 
REMARK    6  A    between atoms: N3_14  and  C9_15 
REMARK    7  A    between atoms: C9_15  and  C10_16 
REMARK    8  A    between atoms: C9_15  and  C11_18 
REMARK       I    between atoms: C10_16  and  N4_21 
REMARK    9  A    between atoms: C11_18  and  C12_19 
REMARK   10  A    between atoms: C11_18  and  C13_20 
REMARK   11  A    between atoms: N4_21  and  C14_22 
REMARK   12  A    between atoms: C14_22  and  C15_23 
REMARK   13  A    between atoms: C14_22  and  C16_25 
REMARK       I    between atoms: C15_23  and  N6_40 
REMARK   14  A    between atoms: C16_25  and  C17_26 
REMARK   15  A    between atoms: C17_26  and  C18_27 
REMARK   16  A    between atoms: C17_26  and  C19_28 
REMARK   17  A    between atoms: C20_29  and  C21_30 
REMARK   18  A    between atoms: C20_29  and  C24_33 
REMARK   19  A    between atoms: C20_29  and  N6_40 
REMARK   20  A    between atoms: C21_30  and  C22_31 
REMARK   21  A    between atoms: C22_31  and  C23_32 
REMARK   22  A    between atoms: C23_32  and  O8_43 
REMARK   23  A    between atoms: C24_33  and  C25_34 
REMARK   24  A    between atoms: C28_38  and  O6_39 
REMARK   25  A    between atoms: C29_42  and  O8_43 
REMARK   26  A    between atoms: C29_42  and  C35_49 
ROOT
ATOM      1  C14 non d ame     -32.645  10.475  26.757  0.00  0.00     0.089 C 
ATOM      2  H20 non d ame     -33.672  10.601  26.414  0.00  0.00     0.087 H 
ENDROOT
BRANCH   1   3
ATOM      3  N4  non d ame     -32.067   9.366  26.013  0.00  0.00    -0.346 N 
ATOM      4  C10 non d ame     -32.404   9.168  24.556  0.00  0.00     0.241 C 
ATOM      5  O4  non d ame     -33.145   9.914  24.005  0.00  0.00    -0.271 OA
ATOM      6  H19 non d ame     -31.440   8.741  26.500  0.00  0.00     0.163 HD
BRANCH   4   7
ATOM      7  C9  non d ame     -31.792   8.019  23.799  0.00  0.00     0.092 C 
ATOM      8  H11 non d ame     -30.851   7.738  24.273  0.00  0.00     0.088 H 
BRANCH   7   9
ATOM      9  N3  non d ame     -32.680   6.855  23.877  0.00  0.00    -0.346 N 
ATOM     10  C7  non d ame     -32.582   5.947  24.994  0.00  0.00     0.240 C 
ATOM     11  O3  non d ame     -31.793   6.137  25.838  0.00  0.00    -0.271 OA
ATOM     12  H10 non d ame     -33.364   6.676  23.156  0.00  0.00     0.163 HD
BRANCH  10  13
ATOM     13  C6  non d ame     -33.527   4.708  25.070  0.00  0.00     0.086 C 
ATOM     14  H6  non d ame     -33.046   3.837  25.514  0.00  0.00     0.086 H 
BRANCH  13  15
ATOM     15  N2  non d ame     -34.663   5.033  25.916  0.00  0.00    -0.343 N 
ATOM     16  C5  non d ame     -34.678   4.581  27.309  0.00  0.00     0.273 C 
ATOM     17  O2  non d ame     -33.773   3.953  27.738  0.00  0.00    -0.266 OA
ATOM     18  H5  non d ame     -35.434   5.567  25.540  0.00  0.00     0.163 HD
BRANCH  16  19
ATOM     19  C4  non d ame     -35.872   4.919  28.215  0.00  0.00     0.154 A 
ATOM     20  C1  non d ame     -35.887   5.822  29.325  0.00  0.00    -0.017 A 
ATOM     21  C2  non d ame     -37.211   5.775  29.815  0.00  0.00     0.077 A 
ATOM     22  H1  non d ame     -35.063   6.420  29.715  0.00  0.00     0.091 H 
ATOM     23  O1  non d ame     -37.871   4.941  29.066  0.00  0.00    -0.218 OA
ATOM     24  N1  non d ame     -37.111   4.428  28.126  0.00  0.00    -0.123 NA
BRANCH  21  25
ATOM     25  C3  non d ame     -37.763   6.558  30.999  0.00  0.00    -0.029 C 
ATOM     26  H2  non d ame     -37.706   5.945  31.898  0.00  0.00     0.036 H 
ATOM     27  H3  non d ame     -37.175   7.464  31.140  0.00  0.00     0.036 H 
ATOM     28  H4  non d ame     -38.801   6.825  30.806  0.00  0.00     0.036 H 
ENDBRANCH  21  25
ENDBRANCH  16  19
ENDBRANCH  13  15
BRANCH  13  29
ATOM     29  C8  non d ame     -34.001   4.349  23.684  0.00  0.00    -0.049 C 
ATOM     30  H7  non d ame     -34.300   5.254  23.156  0.00  0.00     0.030 H 
ATOM     31  H8  non d ame     -33.194   3.860  23.140  0.00  0.00     0.030 H 
ATOM     32  H9  non d ame     -34.853   3.672  23.756  0.00  0.00     0.030 H 
ENDBRANCH  13  29
ENDBRANCH  10  13
ENDBRANCH   7   9
BRANCH   7  33
ATOM     33  C11 non d ame     -31.600   8.422  22.308  0.00  0.00    -0.033 C 
ATOM     34  H12 non d ame     -32.305   9.225  22.092  0.00  0.00     0.042 H 
BRANCH  33  35
ATOM     35  C12 non d ame     -30.165   8.977  22.049  0.00  0.00    -0.071 C 
ATOM     36  H13 non d ame     -29.610   9.000  22.987  0.00  0.00     0.028 H 
ATOM     37  H14 non d ame     -29.650   8.332  21.338  0.00  0.00     0.028 H 
ATOM     38  H15 non d ame     -30.233   9.986  21.643  0.00  0.00     0.028 H 
ENDBRANCH  33  35
BRANCH  33  39
ATOM     39  C13 non d ame     -31.925   7.225  21.358  0.00  0.00    -0.071 C 
ATOM     40  H16 non d ame     -33.000   7.041  21.359  0.00  0.00     0.028 H 
ATOM     41  H17 non d ame     -31.598   7.465  20.346  0.00  0.00     0.028 H 
ATOM     42  H18 non d ame     -31.403   6.334  21.706  0.00  0.00     0.028 H 
ENDBRANCH  33  39
ENDBRANCH   7  33
ENDBRANCH   4   7
ENDBRANCH   1   3
BRANCH   1  43
ATOM     43  C15 non d ame     -31.781  11.744  26.505  0.00  0.00     0.240 C 
ATOM     44  O5  non d ame     -30.894  12.012  27.249  0.00  0.00    -0.271 OA
ATOM     45  N6  non d ame     -32.055  12.620  25.331  0.00  0.00    -0.355 N 
ATOM     46  H46 non d ame     -32.803  12.400  24.690  0.00  0.00     0.162 HD
BRANCH  45  47
ATOM     47  C20 non d ame     -31.224  13.823  25.104  0.00  0.00     0.013 C 
ATOM     48  H30 non d ame     -30.403  13.803  25.821  0.00  0.00     0.072 H 
BRANCH  47  49
ATOM     49  C21 non d ame     -32.067  15.060  25.318  0.00  0.00    -0.038 C 
ATOM     50  H31 non d ame     -31.367  15.850  25.590  0.00  0.00     0.036 H 
ATOM     51  H32 non d ame     -32.678  15.158  24.421  0.00  0.00     0.036 H 
BRANCH  49  52
ATOM     52  C22 non d ame     -33.048  14.920  26.502  0.00  0.00     0.018 C 
ATOM     53  H33 non d ame     -33.894  15.563  26.262  0.00  0.00     0.048 H 
ATOM     54  H34 non d ame     -33.199  13.848  26.635  0.00  0.00     0.048 H 
BRANCH  52  55
ATOM     55  C23 non d ame     -32.482  15.443  27.851  0.00  0.00     0.259 C 
ATOM     56  O7  non d ame     -31.588  14.876  28.390  0.00  0.00    -0.265 OA
BRANCH  55  57
ATOM     57  O8  non d ame     -33.052  16.604  28.442  0.00  0.00    -0.317 OA
BRANCH  57  58
ATOM     58  C29 non d ame     -32.899  17.792  27.660  0.00  0.00     0.052 C 
ATOM     59  H47 non d ame     -32.228  18.435  28.229  0.00  0.00     0.082 H 
ATOM     60  H48 non d ame     -32.615  17.454  26.663  0.00  0.00     0.082 H 
BRANCH  58  61
ATOM     61  C35 non d ame     -34.283  18.487  27.567  0.00  0.00    -0.034 A 
ATOM     62  C30 non d ame     -35.433  17.804  27.954  0.00  0.00    -0.075 A 
ATOM     63  C31 non d ame     -36.676  18.428  27.870  0.00  0.00    -0.082 A 
ATOM     64  H49 non d ame     -35.359  16.781  28.322  0.00  0.00     0.084 H 
ATOM     65  C32 non d ame     -36.769  19.739  27.394  0.00  0.00    -0.083 A 
ATOM     66  H50 non d ame     -37.575  17.891  28.176  0.00  0.00     0.083 H 
ATOM     67  C33 non d ame     -35.620  20.414  27.006  0.00  0.00    -0.082 A 
ATOM     68  H51 non d ame     -37.738  20.234  27.326  0.00  0.00     0.083 H 
ATOM     69  C34 non d ame     -34.375  19.796  27.090  0.00  0.00    -0.075 A 
ATOM     70  H52 non d ame     -35.696  21.436  26.633  0.00  0.00     0.083 H 
ATOM     71  H53 non d ame     -33.477  20.333  26.785  0.00  0.00     0.084 H 
ENDBRANCH  58  61
ENDBRANCH  57  58
ENDBRANCH  55  57
ENDBRANCH  52  55
ENDBRANCH  49  52
ENDBRANCH  47  49
BRANCH  47  72
ATOM     72  C24 non d ame     -30.683  13.815  23.676  0.00  0.00    -0.039 C 
ATOM     73  H35 non d ame     -29.689  13.372  23.745  0.00  0.00     0.036 H 
ATOM     74  H36 non d ame     -31.454  13.331  23.076  0.00  0.00     0.036 H 
BRANCH  72  75
ATOM     75  C25 non d ame     -30.501  15.300  23.103  0.00  0.00    -0.001 C 
ATOM     76  C26 non d ame     -31.439  15.504  21.768  0.00  0.00    -0.035 C 
ATOM     77  C27 non d ame     -30.671  15.996  20.767  0.00  0.00     0.085 C 
ATOM     78  H38 non d ame     -31.763  14.535  21.388  0.00  0.00     0.036 H 
ATOM     79  H39 non d ame     -32.169  16.294  21.942  0.00  0.00     0.036 H 
ATOM     80  N5  non d ame     -29.232  15.839  21.195  0.00  0.00    -0.049 N 
ATOM     81  H40 non d ame     -30.860  15.349  19.910  0.00  0.00     0.075 H 
ATOM     82  H41 non d ame     -30.911  17.058  20.711  0.00  0.00     0.075 H 
ATOM     83  C28 non d ame     -29.272  15.528  22.779  0.00  0.00     0.193 C 
ATOM     84  H42 non d ame     -28.878  15.024  20.716  0.00  0.00     0.280 HD
ATOM     85  H43 non d ame     -28.793  16.738  21.054  0.00  0.00     0.280 HD
ATOM     86  H44 non d ame     -29.016  16.303  23.502  0.00  0.00     0.129 H 
ATOM     87  H37 non d ame     -30.578  16.056  23.884  0.00  0.00     0.046 H 
BRANCH  83  88
ATOM     88  O6  non d ame     -28.419  14.423  23.085  0.00  0.00    -0.369 OA
ATOM     89  H45 non d ame     -27.931  14.609  23.891  0.00  0.00     0.212 HD
ENDBRANCH  83  88
ENDBRANCH  72  75
ENDBRANCH  47  72
ENDBRANCH  45  47
ENDBRANCH   1  43
BRANCH   1  90
ATOM     90  C16 non d ame     -32.635  10.136  28.239  0.00  0.00    -0.035 C 
ATOM     91  H21 non d ame     -32.992   9.108  28.302  0.00  0.00     0.037 H 
ATOM     92  H22 non d ame     -31.633  10.387  28.586  0.00  0.00     0.037 H 
BRANCH  90  93
ATOM     93  C17 non d ame     -33.624  10.999  29.085  0.00  0.00    -0.059 C 
ATOM     94  H23 non d ame     -34.081  11.729  28.418  0.00  0.00     0.038 H 
BRANCH  93  95
ATOM     95  C18 non d ame     -34.771  10.140  29.708  0.00  0.00    -0.073 C 
ATOM     96  H24 non d ame     -35.454  10.788  30.257  0.00  0.00     0.028 H 
ATOM     97  H25 non d ame     -35.316   9.630  28.914  0.00  0.00     0.028 H 
ATOM     98  H26 non d ame     -34.345   9.402  30.388  0.00  0.00     0.028 H 
ENDBRANCH  93  95
BRANCH  93  99
ATOM     99  C19 non d ame     -32.878  11.779  30.170  0.00  0.00    -0.073 C 
ATOM    100  H27 non d ame     -31.930  12.141  29.771  0.00  0.00     0.028 H 
ATOM    101  H28 non d ame     -33.484  12.627  30.491  0.00  0.00     0.028 H 
ATOM    102  H29 non d ame     -32.689  11.127  31.022  0.00  0.00     0.028 H 
ENDBRANCH  93  99
ENDBRANCH  90  93
ENDBRANCH   1  90
TORSDOF 26
ENDMDL
MODEL 13
REMARK VINA RESULT:      -6.1      2.016      5.385
REMARK  26 active torsions:
REMARK  status: ('A' for Active; 'I' for Inactive)
REMARK    1  A    between atoms: C2_2  and  C3_3 
REMARK    2  A    between atoms: C4_6  and  C5_7 
REMARK       I    between atoms: C5_7  and  N2_9 
REMARK    3  A    between atoms: N2_9  and  C6_10 
REMARK    4  A    between atoms: C6_10  and  C7_11 
REMARK    5  A    between atoms: C6_10  and  C8_13 
REMARK       I    between atoms: C7_11  and  N3_14 
REMARK    6  A    between atoms: N3_14  and  C9_15 
REMARK    7  A    between atoms: C9_15  and  C10_16 
REMARK    8  A    between atoms: C9_15  and  C11_18 
REMARK       I    between atoms: C10_16  and  N4_21 
REMARK    9  A    between atoms: C11_18  and  C12_19 
REMARK   10  A    between atoms: C11_18  and  C13_20 
REMARK   11  A    between atoms: N4_21  and  C14_22 
REMARK   12  A    between atoms: C14_22  and  C15_23 
REMARK   13  A    between atoms: C14_22  and  C16_25 
REMARK       I    between atoms: C15_23  and  N6_40 
REMARK   14  A    between atoms: C16_25  and  C17_26 
REMARK   15  A    between atoms: C17_26  and  C18_27 
REMARK   16  A    between atoms: C17_26  and  C19_28 
REMARK   17  A    between atoms: C20_29  and  C21_30 
REMARK   18  A    between atoms: C20_29  and  C24_33 
REMARK   19  A    between atoms: C20_29  and  N6_40 
REMARK   20  A    between atoms: C21_30  and  C22_31 
REMARK   21  A    between atoms: C22_31  and  C23_32 
REMARK   22  A    between atoms: C23_32  and  O8_43 
REMARK   23  A    between atoms: C24_33  and  C25_34 
REMARK   24  A    between atoms: C28_38  and  O6_39 
REMARK   25  A    between atoms: C29_42  and  O8_43 
REMARK   26  A    between atoms: C29_42  and  C35_49 
ROOT
ATOM      1  C14 non d ame     -30.834  14.009  24.230  0.00  0.00     0.089 C 
ATOM      2  H20 non d ame     -29.797  13.747  24.443  0.00  0.00     0.087 H 
ENDROOT
BRANCH   1   3
ATOM      3  N4  non d ame     -31.550  12.774  23.950  0.00  0.00    -0.346 N 
ATOM      4  C10 non d ame     -31.397  11.582  24.861  0.00  0.00     0.241 C 
ATOM      5  O4  non d ame     -30.689  11.640  25.812  0.00  0.00    -0.271 OA
ATOM      6  H19 non d ame     -32.146  12.744  23.135  0.00  0.00     0.163 HD
BRANCH   4   7
ATOM      7  C9  non d ame     -32.150  10.313  24.560  0.00  0.00     0.092 C 
ATOM      8  H11 non d ame     -31.906   9.564  25.313  0.00  0.00     0.088 H 
BRANCH   7   9
ATOM      9  N3  non d ame     -33.591  10.566  24.652  0.00  0.00    -0.346 N 
ATOM     10  C7  non d ame     -34.267  10.432  25.919  0.00  0.00     0.240 C 
ATOM     11  O3  non d ame     -33.667  10.120  26.874  0.00  0.00    -0.271 OA
ATOM     12  H10 non d ame     -34.123  10.834  23.836  0.00  0.00     0.163 HD
BRANCH  10  13
ATOM     13  C6  non d ame     -35.802  10.700  26.010  0.00  0.00     0.086 C 
ATOM     14  H6  non d ame     -36.162  10.741  27.038  0.00  0.00     0.086 H 
BRANCH  13  15
ATOM     15  N2  non d ame     -36.090  11.995  25.416  0.00  0.00    -0.343 N 
ATOM     16  C5  non d ame     -36.854  12.984  26.179  0.00  0.00     0.273 C 
ATOM     17  O2  non d ame     -37.233  12.728  27.268  0.00  0.00    -0.266 OA
ATOM     18  H5  non d ame     -35.764  12.204  24.483  0.00  0.00     0.163 HD
BRANCH  16  19
ATOM     19  C4  non d ame     -37.165  14.358  25.563  0.00  0.00     0.154 A 
ATOM     20  C1  non d ame     -37.351  15.595  26.259  0.00  0.00    -0.017 A 
ATOM     21  C2  non d ame     -37.610  16.545  25.246  0.00  0.00     0.077 A 
ATOM     22  H1  non d ame     -37.305  15.775  27.333  0.00  0.00     0.091 H 
ATOM     23  O1  non d ame     -37.573  15.918  24.107  0.00  0.00    -0.218 OA
ATOM     24  N1  non d ame     -37.315  14.640  24.266  0.00  0.00    -0.123 NA
BRANCH  21  25
ATOM     25  C3  non d ame     -37.881  18.030  25.451  0.00  0.00    -0.029 C 
ATOM     26  H2  non d ame     -36.936  18.572  25.476  0.00  0.00     0.036 H 
ATOM     27  H3  non d ame     -38.493  18.404  24.631  0.00  0.00     0.036 H 
ATOM     28  H4  non d ame     -38.408  18.176  26.394  0.00  0.00     0.036 H 
ENDBRANCH  21  25
ENDBRANCH  16  19
ENDBRANCH  13  15
BRANCH  13  29
ATOM     29  C8  non d ame     -36.548   9.616  25.275  0.00  0.00    -0.049 C 
ATOM     30  H7  non d ame     -36.108   9.478  24.287  0.00  0.00     0.030 H 
ATOM     31  H8  non d ame     -36.481   8.684  25.836  0.00  0.00     0.030 H 
ATOM     32  H9  non d ame     -37.594   9.903  25.169  0.00  0.00     0.030 H 
ENDBRANCH  13  29
ENDBRANCH  10  13
ENDBRANCH   7   9
BRANCH   7  33
ATOM     33  C11 non d ame     -31.802   9.832  23.121  0.00  0.00    -0.033 C 
ATOM     34  H12 non d ame     -31.916  10.685  22.453  0.00  0.00     0.042 H 
BRANCH  33  35
ATOM     35  C12 non d ame     -30.319   9.356  23.025  0.00  0.00    -0.071 C 
ATOM     36  H13 non d ame     -29.659  10.224  22.997  0.00  0.00     0.028 H 
ATOM     37  H14 non d ame     -30.077   8.743  23.892  0.00  0.00     0.028 H 
ATOM     38  H15 non d ame     -30.184   8.770  22.116  0.00  0.00     0.028 H 
ENDBRANCH  33  35
BRANCH  33  39
ATOM     39  C13 non d ame     -32.787   8.714  22.651  0.00  0.00    -0.071 C 
ATOM     40  H16 non d ame     -33.701   8.763  23.243  0.00  0.00     0.028 H 
ATOM     41  H17 non d ame     -33.028   8.862  21.597  0.00  0.00     0.028 H 
ATOM     42  H18 non d ame     -32.319   7.739  22.782  0.00  0.00     0.028 H 
ENDBRANCH  33  39
ENDBRANCH   7  33
ENDBRANCH   4   7
ENDBRANCH   1   3
BRANCH   1  43
ATOM     43  C15 non d ame     -31.519  14.718  25.433  0.00  0.00     0.240 C 
ATOM     44  O5  non d ame     -31.168  15.807  25.756  0.00  0.00    -0.271 OA
ATOM     45  N6  non d ame     -32.619  14.042  26.178  0.00  0.00    -0.355 N 
ATOM     46  H46 non d ame     -32.929  13.119  25.910  0.00  0.00     0.162 HD
BRANCH  45  47
ATOM     47  C20 non d ame     -33.262  14.730  27.319  0.00  0.00     0.013 C 
ATOM     48  H30 non d ame     -34.081  14.103  27.670  0.00  0.00     0.072 H 
BRANCH  47  49
ATOM     49  C21 non d ame     -33.795  16.068  26.860  0.00  0.00    -0.038 C 
ATOM     50  H31 non d ame     -33.132  16.389  26.056  0.00  0.00     0.036 H 
ATOM     51  H32 non d ame     -34.855  15.910  26.663  0.00  0.00     0.036 H 
BRANCH  49  52
ATOM     52  C22 non d ame     -33.711  17.154  27.955  0.00  0.00     0.018 C 
ATOM     53  H33 non d ame     -34.740  17.353  28.253  0.00  0.00     0.048 H 
ATOM     54  H34 non d ame     -32.994  16.781  28.687  0.00  0.00     0.048 H 
BRANCH  52  55
ATOM     55  C23 non d ame     -33.143  18.509  27.451  0.00  0.00     0.259 C 
ATOM     56  O7  non d ame     -32.184  18.538  26.749  0.00  0.00    -0.265 OA
BRANCH  55  57
ATOM     57  O8  non d ame     -33.774  19.721  27.847  0.00  0.00    -0.317 OA
BRANCH  57  58
ATOM     58  C29 non d ame     -34.694  20.241  26.883  0.00  0.00     0.052 C 
ATOM     59  H47 non d ame     -34.329  21.238  26.636  0.00  0.00     0.082 H 
ATOM     60  H48 non d ame     -34.769  19.480  26.107  0.00  0.00     0.082 H 
BRANCH  58  61
ATOM     61  C35 non d ame     -36.079  20.381  27.569  0.00  0.00    -0.034 A 
ATOM     62  C30 non d ame     -37.034  21.242  27.041  0.00  0.00    -0.075 A 
ATOM     63  C31 non d ame     -38.278  21.369  27.657  0.00  0.00    -0.082 A 
ATOM     64  H49 non d ame     -36.809  21.819  26.143  0.00  0.00     0.084 H 
ATOM     65  C32 non d ame     -38.564  20.630  28.809  0.00  0.00    -0.083 A 
ATOM     66  H50 non d ame     -39.026  22.044  27.239  0.00  0.00     0.083 H 
ATOM     67  C33 non d ame     -37.606  19.774  29.335  0.00  0.00    -0.082 A 
ATOM     68  H51 non d ame     -39.535  20.723  29.296  0.00  0.00     0.083 H 
ATOM     69  C34 non d ame     -36.363  19.644  28.721  0.00  0.00    -0.075 A 
ATOM     70  H52 non d ame     -37.832  19.202  30.235  0.00  0.00     0.083 H 
ATOM     71  H53 non d ame     -35.616  18.968  29.139  0.00  0.00     0.084 H 
ENDBRANCH  58  61
ENDBRANCH  57  58
ENDBRANCH  55  57
ENDBRANCH  52  55
ENDBRANCH  49  52
ENDBRANCH  47  49
BRANCH  47  72
ATOM     72  C24 non d ame     -32.241  14.943  28.435  0.00  0.00    -0.039 C 
ATOM     73  H35 non d ame     -31.462  15.569  27.999  0.00  0.00     0.036 H 
ATOM     74  H36 non d ame     -32.815  15.303  29.289  0.00  0.00     0.036 H 
BRANCH  72  75
ATOM     75  C25 non d ame     -31.550  13.567  28.877  0.00  0.00    -0.001 C 
ATOM     76  C26 non d ame     -32.703  12.473  29.301  0.00  0.00    -0.035 C 
ATOM     77  C27 non d ame     -32.397  11.967  30.520  0.00  0.00     0.085 C 
ATOM     78  H38 non d ame     -33.654  12.977  29.465  0.00  0.00     0.036 H 
ATOM     79  H39 non d ame     -32.652  11.603  28.645  0.00  0.00     0.036 H 
ATOM     80  N5  non d ame     -31.325  12.852  31.109  0.00  0.00    -0.049 N 
ATOM     81  H40 non d ame     -33.307  12.068  31.113  0.00  0.00     0.075 H 
ATOM     82  H41 non d ame     -31.978  10.980  30.329  0.00  0.00     0.075 H 
ATOM     83  C28 non d ame     -30.762  13.742  29.885  0.00  0.00     0.193 C 
ATOM     84  H42 non d ame     -31.788  13.464  31.765  0.00  0.00     0.280 HD
ATOM     85  H43 non d ame     -30.589  12.237  31.424  0.00  0.00     0.280 HD
ATOM     86  H44 non d ame     -29.801  13.509  29.427  0.00  0.00     0.129 H 
ATOM     87  H37 non d ame     -30.792  13.238  28.166  0.00  0.00     0.046 H 
BRANCH  83  88
ATOM     88  O6  non d ame     -30.679  15.115  30.272  0.00  0.00    -0.369 OA
ATOM     89  H45 non d ame     -31.274  15.277  31.007  0.00  0.00     0.212 HD
ENDBRANCH  83  88
ENDBRANCH  72  75
ENDBRANCH  47  72
ENDBRANCH  45  47
ENDBRANCH   1  43
BRANCH   1  90
ATOM     90  C16 non d ame     -30.897  14.907  23.005  0.00  0.00    -0.035 C 
ATOM     91  H21 non d ame     -31.405  14.319  22.241  0.00  0.00     0.037 H 
ATOM     92  H22 non d ame     -31.336  15.842  23.354  0.00  0.00     0.037 H 
BRANCH  90  93
ATOM     93  C17 non d ame     -29.494  15.270  22.421  0.00  0.00    -0.059 C 
ATOM     94  H23 non d ame     -29.050  16.023  23.071  0.00  0.00     0.038 H 
BRANCH  93  95
ATOM     95  C18 non d ame     -28.532  14.039  22.391  0.00  0.00    -0.073 C 
ATOM     96  H24 non d ame     -27.819  14.155  21.576  0.00  0.00     0.028 H 
ATOM     97  H25 non d ame     -27.995  13.974  23.337  0.00  0.00     0.028 H 
ATOM     98  H26 non d ame     -29.112  13.128  22.239  0.00  0.00     0.028 H 
ENDBRANCH  93  95
BRANCH  93  99
ATOM     99  C19 non d ame     -29.626  15.891  21.028  0.00  0.00    -0.073 C 
ATOM    100  H27 non d ame     -30.282  16.761  21.079  0.00  0.00     0.028 H 
ATOM    101  H28 non d ame     -28.642  16.199  20.672  0.00  0.00     0.028 H 
ATOM    102  H29 non d ame     -30.047  15.158  20.341  0.00  0.00     0.028 H 
ENDBRANCH  93  99
ENDBRANCH  90  93
ENDBRANCH   1  90
TORSDOF 26
ENDMDL
MODEL 14
REMARK VINA RESULT:      -6.0      2.094      7.913
REMARK  26 active torsions:
REMARK  status: ('A' for Active; 'I' for Inactive)
REMARK    1  A    between atoms: C2_2  and  C3_3 
REMARK    2  A    between atoms: C4_6  and  C5_7 
REMARK       I    between atoms: C5_7  and  N2_9 
REMARK    3  A    between atoms: N2_9  and  C6_10 
REMARK    4  A    between atoms: C6_10  and  C7_11 
REMARK    5  A    between atoms: C6_10  and  C8_13 
REMARK       I    between atoms: C7_11  and  N3_14 
REMARK    6  A    between atoms: N3_14  and  C9_15 
REMARK    7  A    between atoms: C9_15  and  C10_16 
REMARK    8  A    between atoms: C9_15  and  C11_18 
REMARK       I    between atoms: C10_16  and  N4_21 
REMARK    9  A    between atoms: C11_18  and  C12_19 
REMARK   10  A    between atoms: C11_18  and  C13_20 
REMARK   11  A    between atoms: N4_21  and  C14_22 
REMARK   12  A    between atoms: C14_22  and  C15_23 
REMARK   13  A    between atoms: C14_22  and  C16_25 
REMARK       I    between atoms: C15_23  and  N6_40 
REMARK   14  A    between atoms: C16_25  and  C17_26 
REMARK   15  A    between atoms: C17_26  and  C18_27 
REMARK   16  A    between atoms: C17_26  and  C19_28 
REMARK   17  A    between atoms: C20_29  and  C21_30 
REMARK   18  A    between atoms: C20_29  and  C24_33 
REMARK   19  A    between atoms: C20_29  and  N6_40 
REMARK   20  A    between atoms: C21_30  and  C22_31 
REMARK   21  A    between atoms: C22_31  and  C23_32 
REMARK   22  A    between atoms: C23_32  and  O8_43 
REMARK   23  A    between atoms: C24_33  and  C25_34 
REMARK   24  A    between atoms: C28_38  and  O6_39 
REMARK   25  A    between atoms: C29_42  and  O8_43 
REMARK   26  A    between atoms: C29_42  and  C35_49 
ROOT
ATOM      1  C14 non d ame     -36.976  11.847  26.372  0.00  0.00     0.089 C 
ATOM      2  H20 non d ame     -37.951  11.430  26.118  0.00  0.00     0.087 H 
ENDROOT
BRANCH   1   3
ATOM      3  N4  non d ame     -37.149  13.279  26.564  0.00  0.00    -0.346 N 
ATOM      4  C10 non d ame     -35.959  14.204  26.515  0.00  0.00     0.241 C 
ATOM      5  O4  non d ame     -34.870  13.771  26.321  0.00  0.00    -0.271 OA
ATOM      6  H19 non d ame     -38.083  13.627  26.730  0.00  0.00     0.163 HD
BRANCH   4   7
ATOM      7  C9  non d ame     -36.156  15.684  26.711  0.00  0.00     0.092 C 
ATOM      8  H11 non d ame     -36.385  15.879  27.758  0.00  0.00     0.088 H 
BRANCH   7   9
ATOM      9  N3  non d ame     -34.910  16.390  26.400  0.00  0.00    -0.346 N 
ATOM     10  C7  non d ame     -34.297  17.241  27.390  0.00  0.00     0.240 C 
ATOM     11  O3  non d ame     -34.795  17.370  28.441  0.00  0.00    -0.271 OA
ATOM     12  H10 non d ame     -34.470  16.289  25.496  0.00  0.00     0.163 HD
BRANCH  10  13
ATOM     13  C6  non d ame     -32.972  17.992  27.052  0.00  0.00     0.086 C 
ATOM     14  H6  non d ame     -32.181  17.799  27.777  0.00  0.00     0.086 H 
BRANCH  13  15
ATOM     15  N2  non d ame     -32.480  17.524  25.766  0.00  0.00    -0.343 N 
ATOM     16  C5  non d ame     -31.816  16.222  25.678  0.00  0.00     0.273 C 
ATOM     17  O2  non d ame     -31.680  15.559  26.648  0.00  0.00    -0.266 OA
ATOM     18  H5  non d ame     -32.598  18.098  24.944  0.00  0.00     0.163 HD
BRANCH  16  19
ATOM     19  C4  non d ame     -31.293  15.714  24.326  0.00  0.00     0.154 A 
ATOM     20  C1  non d ame     -30.512  14.539  24.086  0.00  0.00    -0.017 A 
ATOM     21  C2  non d ame     -30.295  14.525  22.690  0.00  0.00     0.077 A 
ATOM     22  H1  non d ame     -30.157  13.809  24.814  0.00  0.00     0.091 H 
ATOM     23  O1  non d ame     -30.887  15.572  22.196  0.00  0.00    -0.218 OA
ATOM     24  N1  non d ame     -31.476  16.282  23.130  0.00  0.00    -0.123 NA
BRANCH  21  25
ATOM     25  C3  non d ame     -29.514  13.476  21.910  0.00  0.00    -0.029 C 
ATOM     26  H2  non d ame     -29.142  13.914  20.984  0.00  0.00     0.036 H 
ATOM     27  H3  non d ame     -28.673  13.129  22.511  0.00  0.00     0.036 H 
ATOM     28  H4  non d ame     -30.166  12.635  21.678  0.00  0.00     0.036 H 
ENDBRANCH  21  25
ENDBRANCH  16  19
ENDBRANCH  13  15
BRANCH  13  29
ATOM     29  C8  non d ame     -33.232  19.476  26.997  0.00  0.00    -0.049 C 
ATOM     30  H7  non d ame     -34.180  19.660  26.492  0.00  0.00     0.030 H 
ATOM     31  H8  non d ame     -33.276  19.874  28.010  0.00  0.00     0.030 H 
ATOM     32  H9  non d ame     -32.427  19.966  26.448  0.00  0.00     0.030 H 
ENDBRANCH  13  29
ENDBRANCH  10  13
ENDBRANCH   7   9
BRANCH   7  33
ATOM     33  C11 non d ame     -37.284  16.186  25.762  0.00  0.00    -0.033 C 
ATOM     34  H12 non d ame     -38.142  15.527  25.893  0.00  0.00     0.042 H 
BRANCH  33  35
ATOM     35  C12 non d ame     -37.741  17.630  26.138  0.00  0.00    -0.071 C 
ATOM     36  H13 non d ame     -38.321  17.600  27.060  0.00  0.00     0.028 H 
ATOM     37  H14 non d ame     -36.866  18.263  26.279  0.00  0.00     0.028 H 
ATOM     38  H15 non d ame     -38.358  18.036  25.336  0.00  0.00     0.028 H 
ENDBRANCH  33  35
BRANCH  33  39
ATOM     39  C13 non d ame     -36.836  16.105  24.268  0.00  0.00    -0.071 C 
ATOM     40  H16 non d ame     -36.470  17.080  23.944  0.00  0.00     0.028 H 
ATOM     41  H17 non d ame     -36.039  15.367  24.167  0.00  0.00     0.028 H 
ATOM     42  H18 non d ame     -37.683  15.810  23.649  0.00  0.00     0.028 H 
ENDBRANCH  33  39
ENDBRANCH   7  33
ENDBRANCH   4   7
ENDBRANCH   1   3
BRANCH   1  43
ATOM     43  C15 non d ame     -36.398  11.237  27.681  0.00  0.00     0.240 C 
ATOM     44  O5  non d ame     -37.136  10.855  28.531  0.00  0.00    -0.271 OA
ATOM     45  N6  non d ame     -34.924  11.121  27.871  0.00  0.00    -0.355 N 
ATOM     46  H46 non d ame     -34.288  11.438  27.154  0.00  0.00     0.162 HD
BRANCH  45  47
ATOM     47  C20 non d ame     -34.391  10.538  29.121  0.00  0.00     0.013 C 
ATOM     48  H30 non d ame     -35.198  10.517  29.853  0.00  0.00     0.072 H 
BRANCH  47  49
ATOM     49  C21 non d ame     -33.255  11.398  29.629  0.00  0.00    -0.038 C 
ATOM     50  H31 non d ame     -33.673  11.983  30.448  0.00  0.00     0.036 H 
ATOM     51  H32 non d ame     -32.428  10.712  29.815  0.00  0.00     0.036 H 
BRANCH  49  52
ATOM     52  C22 non d ame     -32.755  12.412  28.578  0.00  0.00     0.018 C 
ATOM     53  H33 non d ame     -33.382  12.261  27.700  0.00  0.00     0.048 H 
ATOM     54  H34 non d ame     -32.745  13.379  29.081  0.00  0.00     0.048 H 
BRANCH  52  55
ATOM     55  C23 non d ame     -31.295  12.158  28.109  0.00  0.00     0.259 C 
ATOM     56  O7  non d ame     -30.377  12.528  28.767  0.00  0.00    -0.265 OA
BRANCH  55  57
ATOM     57  O8  non d ame     -31.066  11.489  26.875  0.00  0.00    -0.317 OA
BRANCH  57  58
ATOM     58  C29 non d ame     -32.056  11.752  25.877  0.00  0.00     0.052 C 
ATOM     59  H47 non d ame     -33.011  11.491  26.333  0.00  0.00     0.082 H 
ATOM     60  H48 non d ame     -31.874  12.773  25.542  0.00  0.00     0.082 H 
BRANCH  58  61
ATOM     61  C35 non d ame     -31.802  10.792  24.684  0.00  0.00    -0.034 A 
ATOM     62  C30 non d ame     -32.793   9.903  24.282  0.00  0.00    -0.075 A 
ATOM     63  C31 non d ame     -32.565   9.040  23.211  0.00  0.00    -0.082 A 
ATOM     64  H49 non d ame     -33.749   9.881  24.806  0.00  0.00     0.084 H 
ATOM     65  C32 non d ame     -31.337   9.067  22.543  0.00  0.00    -0.083 A 
ATOM     66  H50 non d ame     -33.344   8.345  22.897  0.00  0.00     0.083 H 
ATOM     67  C33 non d ame     -30.350   9.954  22.950  0.00  0.00    -0.082 A 
ATOM     68  H51 non d ame     -31.151   8.396  21.704  0.00  0.00     0.083 H 
ATOM     69  C34 non d ame     -30.575  10.819  24.019  0.00  0.00    -0.075 A 
ATOM     70  H52 non d ame     -29.393   9.971  22.428  0.00  0.00     0.083 H 
ATOM     71  H53 non d ame     -29.795  11.514  24.332  0.00  0.00     0.084 H 
ENDBRANCH  58  61
ENDBRANCH  57  58
ENDBRANCH  55  57
ENDBRANCH  52  55
ENDBRANCH  49  52
ENDBRANCH  47  49
BRANCH  47  72
ATOM     72  C24 non d ame     -33.880   9.124  28.854  0.00  0.00    -0.039 C 
ATOM     73  H35 non d ame     -33.749   9.062  27.773  0.00  0.00     0.036 H 
ATOM     74  H36 non d ame     -33.022   8.995  29.514  0.00  0.00     0.036 H 
BRANCH  72  75
ATOM     75  C25 non d ame     -34.961   8.015  29.263  0.00  0.00    -0.001 C 
ATOM     76  C26 non d ame     -35.239   8.074  30.882  0.00  0.00    -0.035 C 
ATOM     77  C27 non d ame     -35.104   6.827  31.394  0.00  0.00     0.085 C 
ATOM     78  H38 non d ame     -34.449   8.639  31.376  0.00  0.00     0.036 H 
ATOM     79  H39 non d ame     -36.284   8.316  31.074  0.00  0.00     0.036 H 
ATOM     80  N5  non d ame     -34.441   5.984  30.331  0.00  0.00    -0.049 N 
ATOM     81  H40 non d ame     -34.425   6.931  32.240  0.00  0.00     0.075 H 
ATOM     82  H41 non d ame     -36.119   6.466  31.551  0.00  0.00     0.075 H 
ATOM     83  C28 non d ame     -34.552   6.828  28.960  0.00  0.00     0.193 C 
ATOM     84  H42 non d ame     -33.467   5.914  30.588  0.00  0.00     0.280 HD
ATOM     85  H43 non d ame     -35.000   5.148  30.241  0.00  0.00     0.280 HD
ATOM     86  H44 non d ame     -35.283   6.555  28.199  0.00  0.00     0.129 H 
ATOM     87  H37 non d ame     -35.834   8.029  28.609  0.00  0.00     0.046 H 
BRANCH  83  88
ATOM     88  O6  non d ame     -33.291   6.848  28.290  0.00  0.00    -0.369 OA
ATOM     89  H45 non d ame     -32.911   7.728  28.348  0.00  0.00     0.212 HD
ENDBRANCH  83  88
ENDBRANCH  72  75
ENDBRANCH  47  72
ENDBRANCH  45  47
ENDBRANCH   1  43
BRANCH   1  90
ATOM     90  C16 non d ame     -36.004  11.615  25.226  0.00  0.00    -0.035 C 
ATOM     91  H21 non d ame     -35.949  12.565  24.696  0.00  0.00     0.037 H 
ATOM     92  H22 non d ame     -35.109  11.196  25.688  0.00  0.00     0.037 H 
BRANCH  90  93
ATOM     93  C17 non d ame     -36.500  10.559  24.188  0.00  0.00    -0.059 C 
ATOM     94  H23 non d ame     -35.830  10.600  23.329  0.00  0.00     0.038 H 
BRANCH  93  95
ATOM     95  C18 non d ame     -36.455   9.105  24.758  0.00  0.00    -0.073 C 
ATOM     96  H24 non d ame     -35.458   8.689  24.614  0.00  0.00     0.028 H 
ATOM     97  H25 non d ame     -36.689   9.124  25.822  0.00  0.00     0.028 H 
ATOM     98  H26 non d ame     -37.185   8.487  24.237  0.00  0.00     0.028 H 
ENDBRANCH  93  95
BRANCH  93  99
ATOM     99  C19 non d ame     -37.904  10.903  23.686  0.00  0.00    -0.073 C 
ATOM    100  H27 non d ame     -37.832  11.418  22.727  0.00  0.00     0.028 H 
ATOM    101  H28 non d ame     -38.482   9.987  23.564  0.00  0.00     0.028 H 
ATOM    102  H29 non d ame     -38.400  11.551  24.409  0.00  0.00     0.028 H 
ENDBRANCH  93  99
ENDBRANCH  90  93
ENDBRANCH   1  90
TORSDOF 26
ENDMDL
MODEL 15
REMARK VINA RESULT:      -6.0      2.824      7.044
REMARK  26 active torsions:
REMARK  status: ('A' for Active; 'I' for Inactive)
REMARK    1  A    between atoms: C2_2  and  C3_3 
REMARK    2  A    between atoms: C4_6  and  C5_7 
REMARK       I    between atoms: C5_7  and  N2_9 
REMARK    3  A    between atoms: N2_9  and  C6_10 
REMARK    4  A    between atoms: C6_10  and  C7_11 
REMARK    5  A    between atoms: C6_10  and  C8_13 
REMARK       I    between atoms: C7_11  and  N3_14 
REMARK    6  A    between atoms: N3_14  and  C9_15 
REMARK    7  A    between atoms: C9_15  and  C10_16 
REMARK    8  A    between atoms: C9_15  and  C11_18 
REMARK       I    between atoms: C10_16  and  N4_21 
REMARK    9  A    between atoms: C11_18  and  C12_19 
REMARK   10  A    between atoms: C11_18  and  C13_20 
REMARK   11  A    between atoms: N4_21  and  C14_22 
REMARK   12  A    between atoms: C14_22  and  C15_23 
REMARK   13  A    between atoms: C14_22  and  C16_25 
REMARK       I    between atoms: C15_23  and  N6_40 
REMARK   14  A    between atoms: C16_25  and  C17_26 
REMARK   15  A    between atoms: C17_26  and  C18_27 
REMARK   16  A    between atoms: C17_26  and  C19_28 
REMARK   17  A    between atoms: C20_29  and  C21_30 
REMARK   18  A    between atoms: C20_29  and  C24_33 
REMARK   19  A    between atoms: C20_29  and  N6_40 
REMARK   20  A    between atoms: C21_30  and  C22_31 
REMARK   21  A    between atoms: C22_31  and  C23_32 
REMARK   22  A    between atoms: C23_32  and  O8_43 
REMARK   23  A    between atoms: C24_33  and  C25_34 
REMARK   24  A    between atoms: C28_38  and  O6_39 
REMARK   25  A    between atoms: C29_42  and  O8_43 
REMARK   26  A    between atoms: C29_42  and  C35_49 
ROOT
ATOM      1  C14 non d ame     -32.034   9.060  24.527  0.00  0.00     0.089 C 
ATOM      2  H20 non d ame     -31.157   8.414  24.591  0.00  0.00     0.087 H 
ENDROOT
BRANCH   1   3
ATOM      3  N4  non d ame     -33.189   8.271  24.930  0.00  0.00    -0.346 N 
ATOM      4  C10 non d ame     -33.041   6.800  25.223  0.00  0.00     0.241 C 
ATOM      5  O4  non d ame     -31.983   6.271  25.125  0.00  0.00    -0.271 OA
ATOM      6  H19 non d ame     -34.081   8.740  25.005  0.00  0.00     0.163 HD
BRANCH   4   7
ATOM      7  C9  non d ame     -34.246   6.000  25.645  0.00  0.00     0.092 C 
ATOM      8  H11 non d ame     -33.931   4.994  25.919  0.00  0.00     0.088 H 
BRANCH   7   9
ATOM      9  N3  non d ame     -34.844   6.608  26.838  0.00  0.00    -0.346 N 
ATOM     10  C7  non d ame     -34.874   5.876  28.080  0.00  0.00     0.240 C 
ATOM     11  O3  non d ame     -34.424   4.797  28.138  0.00  0.00    -0.271 OA
ATOM     12  H10 non d ame     -35.237   7.537  26.803  0.00  0.00     0.163 HD
BRANCH  10  13
ATOM     13  C6  non d ame     -35.514   6.527  29.346  0.00  0.00     0.086 C 
ATOM     14  H6  non d ame     -35.263   5.997  30.265  0.00  0.00     0.086 H 
BRANCH  13  15
ATOM     15  N2  non d ame     -34.999   7.878  29.492  0.00  0.00    -0.343 N 
ATOM     16  C5  non d ame     -34.597   8.358  30.816  0.00  0.00     0.273 C 
ATOM     17  O2  non d ame     -34.694   7.650  31.758  0.00  0.00    -0.266 OA
ATOM     18  H5  non d ame     -34.922   8.478  28.683  0.00  0.00     0.163 HD
BRANCH  16  19
ATOM     19  C4  non d ame     -34.050   9.784  30.985  0.00  0.00     0.154 A 
ATOM     20  C1  non d ame     -33.093  10.447  30.154  0.00  0.00    -0.017 A 
ATOM     21  C2  non d ame     -32.933  11.726  30.733  0.00  0.00     0.077 A 
ATOM     22  H1  non d ame     -32.591  10.059  29.267  0.00  0.00     0.091 H 
ATOM     23  O1  non d ame     -33.713  11.781  31.772  0.00  0.00    -0.218 OA
ATOM     24  N1  non d ame     -34.375  10.660  31.941  0.00  0.00    -0.123 NA
BRANCH  21  25
ATOM     25  C3  non d ame     -32.018  12.834  30.230  0.00  0.00    -0.029 C 
ATOM     26  H2  non d ame     -31.247  13.035  30.974  0.00  0.00     0.036 H 
ATOM     27  H3  non d ame     -31.548  12.523  29.297  0.00  0.00     0.036 H 
ATOM     28  H4  non d ame     -32.602  13.738  30.059  0.00  0.00     0.036 H 
ENDBRANCH  21  25
ENDBRANCH  16  19
ENDBRANCH  13  15
BRANCH  13  29
ATOM     29  C8  non d ame     -37.013   6.558  29.195  0.00  0.00    -0.049 C 
ATOM     30  H7  non d ame     -37.479   6.482  30.177  0.00  0.00     0.030 H 
ATOM     31  H8  non d ame     -37.311   7.495  28.724  0.00  0.00     0.030 H 
ATOM     32  H9  non d ame     -37.334   5.721  28.575  0.00  0.00     0.030 H 
ENDBRANCH  13  29
ENDBRANCH  10  13
ENDBRANCH   7   9
BRANCH   7  33
ATOM     33  C11 non d ame     -35.292   5.992  24.492  0.00  0.00    -0.033 C 
ATOM     34  H12 non d ame     -35.554   7.028  24.277  0.00  0.00     0.042 H 
BRANCH  33  35
ATOM     35  C12 non d ame     -34.694   5.380  23.186  0.00  0.00    -0.071 C 
ATOM     36  H13 non d ame     -34.788   4.294  23.218  0.00  0.00     0.028 H 
ATOM     37  H14 non d ame     -35.235   5.766  22.323  0.00  0.00     0.028 H 
ATOM     38  H15 non d ame     -33.641   5.650  23.108  0.00  0.00     0.028 H 
ENDBRANCH  33  35
BRANCH  33  39
ATOM     39  C13 non d ame     -36.594   5.244  24.923  0.00  0.00    -0.071 C 
ATOM     40  H16 non d ame     -36.354   4.509  25.691  0.00  0.00     0.028 H 
ATOM     41  H17 non d ame     -37.312   5.963  25.319  0.00  0.00     0.028 H 
ATOM     42  H18 non d ame     -37.027   4.739  24.059  0.00  0.00     0.028 H 
ENDBRANCH  33  39
ENDBRANCH   7  33
ENDBRANCH   4   7
ENDBRANCH   1   3
BRANCH   1  43
ATOM     43  C15 non d ame     -31.924  10.294  25.467  0.00  0.00     0.240 C 
ATOM     44  O5  non d ame     -31.454  10.171  26.552  0.00  0.00    -0.271 OA
ATOM     45  N6  non d ame     -32.397  11.633  25.011  0.00  0.00    -0.355 N 
ATOM     46  H46 non d ame     -32.793  11.750  24.090  0.00  0.00     0.162 HD
BRANCH  45  47
ATOM     47  C20 non d ame     -32.285  12.797  25.917  0.00  0.00     0.013 C 
ATOM     48  H30 non d ame     -32.179  12.421  26.934  0.00  0.00     0.072 H 
BRANCH  47  49
ATOM     49  C21 non d ame     -33.535  13.640  25.804  0.00  0.00    -0.038 C 
ATOM     50  H31 non d ame     -33.279  14.458  25.131  0.00  0.00     0.036 H 
ATOM     51  H32 non d ame     -34.334  12.947  25.541  0.00  0.00     0.036 H 
BRANCH  49  52
ATOM     52  C22 non d ame     -33.943  14.289  27.145  0.00  0.00     0.018 C 
ATOM     53  H33 non d ame     -35.018  14.135  27.232  0.00  0.00     0.048 H 
ATOM     54  H34 non d ame     -33.270  13.869  27.893  0.00  0.00     0.048 H 
BRANCH  52  55
ATOM     55  C23 non d ame     -33.725  15.827  27.188  0.00  0.00     0.259 C 
ATOM     56  O7  non d ame     -32.660  16.278  27.461  0.00  0.00    -0.265 OA
BRANCH  55  57
ATOM     57  O8  non d ame     -34.818  16.693  26.909  0.00  0.00    -0.317 OA
BRANCH  57  58
ATOM     58  C29 non d ame     -34.625  17.522  25.759  0.00  0.00     0.052 C 
ATOM     59  H47 non d ame     -33.567  17.785  25.759  0.00  0.00     0.082 H 
ATOM     60  H48 non d ame     -35.050  16.969  24.922  0.00  0.00     0.082 H 
BRANCH  58  61
ATOM     61  C35 non d ame     -35.454  18.819  25.960  0.00  0.00    -0.034 A 
ATOM     62  C30 non d ame     -35.253  19.606  27.090  0.00  0.00    -0.075 A 
ATOM     63  C31 non d ame     -35.997  20.771  27.271  0.00  0.00    -0.082 A 
ATOM     64  H49 non d ame     -34.514  19.309  27.835  0.00  0.00     0.084 H 
ATOM     65  C32 non d ame     -36.947  21.147  26.317  0.00  0.00    -0.083 A 
ATOM     66  H50 non d ame     -35.837  21.386  28.157  0.00  0.00     0.083 H 
ATOM     67  C33 non d ame     -37.145  20.358  25.193  0.00  0.00    -0.082 A 
ATOM     68  H51 non d ame     -37.532  22.057  26.451  0.00  0.00     0.083 H 
ATOM     69  C34 non d ame     -36.403  19.194  25.007  0.00  0.00    -0.075 A 
ATOM     70  H52 non d ame     -37.888  20.653  24.452  0.00  0.00     0.083 H 
ATOM     71  H53 non d ame     -36.564  18.580  24.121  0.00  0.00     0.084 H 
ENDBRANCH  58  61
ENDBRANCH  57  58
ENDBRANCH  55  57
ENDBRANCH  52  55
ENDBRANCH  49  52
ENDBRANCH  47  49
BRANCH  47  72
ATOM     72  C24 non d ame     -31.068  13.635  25.531  0.00  0.00    -0.039 C 
ATOM     73  H35 non d ame     -31.120  14.527  26.156  0.00  0.00     0.036 H 
ATOM     74  H36 non d ame     -30.214  12.962  25.613  0.00  0.00     0.036 H 
BRANCH  72  75
ATOM     75  C25 non d ame     -31.142  14.122  24.007  0.00  0.00    -0.001 C 
ATOM     76  C26 non d ame     -30.060  13.281  23.097  0.00  0.00    -0.035 C 
ATOM     77  C27 non d ame     -29.307  14.160  22.393  0.00  0.00     0.085 C 
ATOM     78  H38 non d ame     -29.336  12.785  23.742  0.00  0.00     0.036 H 
ATOM     79  H39 non d ame     -30.580  12.715  22.325  0.00  0.00     0.036 H 
ATOM     80  N5  non d ame     -29.555  15.527  22.983  0.00  0.00    -0.049 N 
ATOM     81  H40 non d ame     -28.272  13.873  22.582  0.00  0.00     0.075 H 
ATOM     82  H41 non d ame     -29.703  14.134  21.378  0.00  0.00     0.075 H 
ATOM     83  C28 non d ame     -30.873  15.380  23.904  0.00  0.00     0.193 C 
ATOM     84  H42 non d ame     -28.766  15.728  23.581  0.00  0.00     0.280 HD
ATOM     85  H43 non d ame     -29.770  16.138  22.208  0.00  0.00     0.280 HD
ATOM     86  H44 non d ame     -31.834  15.761  23.559  0.00  0.00     0.129 H 
ATOM     87  H37 non d ame     -32.167  14.171  23.638  0.00  0.00     0.046 H 
BRANCH  83  88
ATOM     88  O6  non d ame     -30.655  15.991  25.177  0.00  0.00    -0.369 OA
ATOM     89  H45 non d ame     -29.711  16.053  25.345  0.00  0.00     0.212 HD
ENDBRANCH  83  88
ENDBRANCH  72  75
ENDBRANCH  47  72
ENDBRANCH  45  47
ENDBRANCH   1  43
BRANCH   1  90
ATOM     90  C16 non d ame     -32.227   9.525  23.093  0.00  0.00    -0.035 C 
ATOM     91  H21 non d ame     -33.152   9.057  22.759  0.00  0.00     0.037 H 
ATOM     92  H22 non d ame     -32.148  10.612  23.129  0.00  0.00     0.037 H 
BRANCH  90  93
ATOM     93  C17 non d ame     -31.109   9.033  22.119  0.00  0.00    -0.059 C 
ATOM     94  H23 non d ame     -31.318   9.456  21.136  0.00  0.00     0.038 H 
BRANCH  93  95
ATOM     95  C18 non d ame     -29.690   9.521  22.555  0.00  0.00    -0.073 C 
ATOM     96  H24 non d ame     -29.184   8.724  23.099  0.00  0.00     0.028 H 
ATOM     97  H25 non d ame     -29.108   9.783  21.672  0.00  0.00     0.028 H 
ATOM     98  H26 non d ame     -29.789  10.394  23.199  0.00  0.00     0.028 H 
ENDBRANCH  93  95
BRANCH  93  99
ATOM     99  C19 non d ame     -31.141   7.510  21.975  0.00  0.00    -0.073 C 
ATOM    100  H27 non d ame     -30.236   7.084  22.409  0.00  0.00     0.028 H 
ATOM    101  H28 non d ame     -32.014   7.113  22.494  0.00  0.00     0.028 H 
ATOM    102  H29 non d ame     -31.197   7.245  20.919  0.00  0.00     0.028 H 
ENDBRANCH  93  99
ENDBRANCH  90  93
ENDBRANCH   1  90
TORSDOF 26
ENDMDL
MODEL 16
REMARK VINA RESULT:      -6.0      2.607      7.413
REMARK  26 active torsions:
REMARK  status: ('A' for Active; 'I' for Inactive)
REMARK    1  A    between atoms: C2_2  and  C3_3 
REMARK    2  A    between atoms: C4_6  and  C5_7 
REMARK       I    between atoms: C5_7  and  N2_9 
REMARK    3  A    between atoms: N2_9  and  C6_10 
REMARK    4  A    between atoms: C6_10  and  C7_11 
REMARK    5  A    between atoms: C6_10  and  C8_13 
REMARK       I    between atoms: C7_11  and  N3_14 
REMARK    6  A    between atoms: N3_14  and  C9_15 
REMARK    7  A    between atoms: C9_15  and  C10_16 
REMARK    8  A    between atoms: C9_15  and  C11_18 
REMARK       I    between atoms: C10_16  and  N4_21 
REMARK    9  A    between atoms: C11_18  and  C12_19 
REMARK   10  A    between atoms: C11_18  and  C13_20 
REMARK   11  A    between atoms: N4_21  and  C14_22 
REMARK   12  A    between atoms: C14_22  and  C15_23 
REMARK   13  A    between atoms: C14_22  and  C16_25 
REMARK       I    between atoms: C15_23  and  N6_40 
REMARK   14  A    between atoms: C16_25  and  C17_26 
REMARK   15  A    between atoms: C17_26  and  C18_27 
REMARK   16  A    between atoms: C17_26  and  C19_28 
REMARK   17  A    between atoms: C20_29  and  C21_30 
REMARK   18  A    between atoms: C20_29  and  C24_33 
REMARK   19  A    between atoms: C20_29  and  N6_40 
REMARK   20  A    between atoms: C21_30  and  C22_31 
REMARK   21  A    between atoms: C22_31  and  C23_32 
REMARK   22  A    between atoms: C23_32  and  O8_43 
REMARK   23  A    between atoms: C24_33  and  C25_34 
REMARK   24  A    between atoms: C28_38  and  O6_39 
REMARK   25  A    between atoms: C29_42  and  O8_43 
REMARK   26  A    between atoms: C29_42  and  C35_49 
ROOT
ATOM      1  C14 non d ame     -36.424  13.781  26.074  0.00  0.00     0.089 C 
ATOM      2  H20 non d ame     -37.121  13.738  26.911  0.00  0.00     0.087 H 
ENDROOT
BRANCH   1   3
ATOM      3  N4  non d ame     -36.129  15.184  25.821  0.00  0.00    -0.346 N 
ATOM      4  C10 non d ame     -36.919  16.265  26.514  0.00  0.00     0.241 C 
ATOM      5  O4  non d ame     -37.789  15.982  27.270  0.00  0.00    -0.271 OA
ATOM      6  H19 non d ame     -35.386  15.404  25.172  0.00  0.00     0.163 HD
BRANCH   4   7
ATOM      7  C9  non d ame     -36.596  17.712  26.244  0.00  0.00     0.092 C 
ATOM      8  H11 non d ame     -36.928  18.316  27.089  0.00  0.00     0.088 H 
BRANCH   7   9
ATOM      9  N3  non d ame     -35.144  17.877  26.137  0.00  0.00    -0.346 N 
ATOM     10  C7  non d ame     -34.338  17.960  27.331  0.00  0.00     0.240 C 
ATOM     11  O3  non d ame     -34.842  17.897  28.385  0.00  0.00    -0.271 OA
ATOM     12  H10 non d ame     -34.694  17.935  25.235  0.00  0.00     0.163 HD
BRANCH  10  13
ATOM     13  C6  non d ame     -32.793  18.140  27.210  0.00  0.00     0.086 C 
ATOM     14  H6  non d ame     -32.244  17.601  27.983  0.00  0.00     0.086 H 
BRANCH  13  15
ATOM     15  N2  non d ame     -32.353  17.598  25.935  0.00  0.00    -0.343 N 
ATOM     16  C5  non d ame     -31.860  16.221  25.868  0.00  0.00     0.273 C 
ATOM     17  O2  non d ame     -31.819  15.558  26.845  0.00  0.00    -0.266 OA
ATOM     18  H5  non d ame     -32.390  18.173  25.105  0.00  0.00     0.163 HD
BRANCH  16  19
ATOM     19  C4  non d ame     -31.394  15.635  24.526  0.00  0.00     0.154 A 
ATOM     20  C1  non d ame     -31.436  16.269  23.244  0.00  0.00    -0.017 A 
ATOM     21  C2  non d ame     -30.896  15.318  22.349  0.00  0.00     0.077 A 
ATOM     22  H1  non d ame     -31.803  17.267  23.000  0.00  0.00     0.091 H 
ATOM     23  O1  non d ame     -30.583  14.266  23.046  0.00  0.00    -0.218 OA
ATOM     24  N1  non d ame     -30.864  14.426  24.319  0.00  0.00    -0.123 NA
BRANCH  21  25
ATOM     25  C3  non d ame     -30.714  15.495  20.848  0.00  0.00    -0.029 C 
ATOM     26  H2  non d ame     -30.928  14.553  20.343  0.00  0.00     0.036 H 
ATOM     27  H3  non d ame     -31.398  16.263  20.487  0.00  0.00     0.036 H 
ATOM     28  H4  non d ame     -29.688  15.795  20.639  0.00  0.00     0.036 H 
ENDBRANCH  21  25
ENDBRANCH  16  19
ENDBRANCH  13  15
BRANCH  13  29
ATOM     29  C8  non d ame     -32.446  19.604  27.297  0.00  0.00    -0.049 C 
ATOM     30  H7  non d ame     -31.396  19.744  27.039  0.00  0.00     0.030 H 
ATOM     31  H8  non d ame     -33.069  20.167  26.602  0.00  0.00     0.030 H 
ATOM     32  H9  non d ame     -32.621  19.960  28.312  0.00  0.00     0.030 H 
ENDBRANCH  13  29
ENDBRANCH  10  13
ENDBRANCH   7   9
BRANCH   7  33
ATOM     33  C11 non d ame     -37.266  18.152  24.910  0.00  0.00    -0.033 C 
ATOM     34  H12 non d ame     -36.942  17.457  24.135  0.00  0.00     0.042 H 
BRANCH  33  35
ATOM     35  C12 non d ame     -38.821  18.065  24.998  0.00  0.00    -0.071 C 
ATOM     36  H13 non d ame     -39.122  17.992  26.043  0.00  0.00     0.028 H 
ATOM     37  H14 non d ame     -39.261  18.959  24.556  0.00  0.00     0.028 H 
ATOM     38  H15 non d ame     -39.167  17.184  24.458  0.00  0.00     0.028 H 
ENDBRANCH  33  35
BRANCH  33  39
ATOM     39  C13 non d ame     -36.801  19.586  24.497  0.00  0.00    -0.071 C 
ATOM     40  H16 non d ame     -36.150  19.520  23.625  0.00  0.00     0.028 H 
ATOM     41  H17 non d ame     -37.672  20.195  24.256  0.00  0.00     0.028 H 
ATOM     42  H18 non d ame     -36.256  20.043  25.324  0.00  0.00     0.028 H 
ENDBRANCH  33  39
ENDBRANCH   7  33
ENDBRANCH   4   7
ENDBRANCH   1   3
BRANCH   1  43
ATOM     43  C15 non d ame     -35.090  13.042  26.382  0.00  0.00     0.240 C 
ATOM     44  O5  non d ame     -34.097  13.351  25.807  0.00  0.00    -0.271 OA
ATOM     45  N6  non d ame     -35.049  11.955  27.401  0.00  0.00    -0.355 N 
ATOM     46  H46 non d ame     -35.885  11.687  27.899  0.00  0.00     0.162 HD
BRANCH  45  47
ATOM     47  C20 non d ame     -33.773  11.263  27.683  0.00  0.00     0.013 C 
ATOM     48  H30 non d ame     -32.963  11.879  27.291  0.00  0.00     0.072 H 
BRANCH  47  49
ATOM     49  C21 non d ame     -33.774   9.914  27.000  0.00  0.00    -0.038 C 
ATOM     50  H31 non d ame     -33.902   9.181  27.796  0.00  0.00     0.036 H 
ATOM     51  H32 non d ame     -34.514   9.989  26.203  0.00  0.00     0.036 H 
BRANCH  49  52
ATOM     52  C22 non d ame     -32.428   9.587  26.318  0.00  0.00     0.018 C 
ATOM     53  H33 non d ame     -31.875  10.526  26.289  0.00  0.00     0.048 H 
ATOM     54  H34 non d ame     -32.022   8.732  26.859  0.00  0.00     0.048 H 
BRANCH  52  55
ATOM     55  C23 non d ame     -32.570   9.129  24.839  0.00  0.00     0.259 C 
ATOM     56  O7  non d ame     -32.287   9.865  23.950  0.00  0.00    -0.265 OA
BRANCH  55  57
ATOM     57  O8  non d ame     -33.055   7.822  24.559  0.00  0.00    -0.317 OA
BRANCH  57  58
ATOM     58  C29 non d ame     -32.061   6.798  24.656  0.00  0.00     0.052 C 
ATOM     59  H47 non d ame     -32.053   6.302  23.686  0.00  0.00     0.082 H 
ATOM     60  H48 non d ame     -31.162   7.294  25.022  0.00  0.00     0.082 H 
BRANCH  58  61
ATOM     61  C35 non d ame     -32.529   5.777  25.727  0.00  0.00    -0.034 A 
ATOM     62  C30 non d ame     -33.285   4.671  25.352  0.00  0.00    -0.075 A 
ATOM     63  C31 non d ame     -33.706   3.754  26.313  0.00  0.00    -0.082 A 
ATOM     64  H49 non d ame     -33.549   4.524  24.304  0.00  0.00     0.084 H 
ATOM     65  C32 non d ame     -33.369   3.946  27.656  0.00  0.00    -0.083 A 
ATOM     66  H50 non d ame     -34.297   2.888  26.016  0.00  0.00     0.083 H 
ATOM     67  C33 non d ame     -32.616   5.053  28.026  0.00  0.00    -0.082 A 
ATOM     68  H51 non d ame     -33.693   3.233  28.414  0.00  0.00     0.083 H 
ATOM     69  C34 non d ame     -32.192   5.971  27.068  0.00  0.00    -0.075 A 
ATOM     70  H52 non d ame     -32.357   5.201  29.075  0.00  0.00     0.083 H 
ATOM     71  H53 non d ame     -31.601   6.837  27.367  0.00  0.00     0.084 H 
ENDBRANCH  58  61
ENDBRANCH  57  58
ENDBRANCH  55  57
ENDBRANCH  52  55
ENDBRANCH  49  52
ENDBRANCH  47  49
BRANCH  47  72
ATOM     72  C24 non d ame     -33.611  11.072  29.190  0.00  0.00    -0.039 C 
ATOM     73  H35 non d ame     -34.617  11.155  29.602  0.00  0.00     0.036 H 
ATOM     74  H36 non d ame     -33.050  10.145  29.306  0.00  0.00     0.036 H 
BRANCH  72  75
ATOM     75  C25 non d ame     -32.733  12.241  29.845  0.00  0.00    -0.001 C 
ATOM     76  C26 non d ame     -31.435  12.568  28.890  0.00  0.00    -0.035 C 
ATOM     77  C27 non d ame     -30.315  12.537  29.651  0.00  0.00     0.085 C 
ATOM     78  H38 non d ame     -31.282  11.759  28.177  0.00  0.00     0.036 H 
ATOM     79  H39 non d ame     -31.478  13.601  28.542  0.00  0.00     0.036 H 
ATOM     80  N5  non d ame     -30.692  11.898  30.966  0.00  0.00    -0.049 N 
ATOM     81  H40 non d ame     -29.623  11.882  29.123  0.00  0.00     0.075 H 
ATOM     82  H41 non d ame     -30.053  13.580  29.826  0.00  0.00     0.075 H 
ATOM     83  C28 non d ame     -32.306  11.904  31.016  0.00  0.00     0.193 C 
ATOM     84  H42 non d ame     -30.375  10.940  30.920  0.00  0.00     0.280 HD
ATOM     85  H43 non d ame     -30.345  12.511  31.691  0.00  0.00     0.280 HD
ATOM     86  H44 non d ame     -32.838  12.625  31.636  0.00  0.00     0.129 H 
ATOM     87  H37 non d ame     -33.343  13.088  30.161  0.00  0.00     0.046 H 
BRANCH  83  88
ATOM     88  O6  non d ame     -32.791  10.622  31.419  0.00  0.00    -0.369 OA
ATOM     89  H45 non d ame     -32.230  10.271  32.114  0.00  0.00     0.212 HD
ENDBRANCH  83  88
ENDBRANCH  72  75
ENDBRANCH  47  72
ENDBRANCH  45  47
ENDBRANCH   1  43
BRANCH   1  90
ATOM     90  C16 non d ame     -37.068  13.178  24.836  0.00  0.00    -0.035 C 
ATOM     91  H21 non d ame     -36.909  13.909  24.043  0.00  0.00     0.037 H 
ATOM     92  H22 non d ame     -36.645  12.178  24.748  0.00  0.00     0.037 H 
BRANCH  90  93
ATOM     93  C17 non d ame     -38.614  12.994  24.960  0.00  0.00    -0.059 C 
ATOM     94  H23 non d ame     -38.881  12.078  24.433  0.00  0.00     0.038 H 
BRANCH  93  95
ATOM     95  C18 non d ame     -39.071  12.840  26.446  0.00  0.00    -0.073 C 
ATOM     96  H24 non d ame     -40.074  12.415  26.476  0.00  0.00     0.028 H 
ATOM     97  H25 non d ame     -38.382  12.179  26.972  0.00  0.00     0.028 H 
ATOM     98  H26 non d ame     -39.076  13.817  26.928  0.00  0.00     0.028 H 
ENDBRANCH  93  95
BRANCH  93  99
ATOM     99  C19 non d ame     -39.358  14.145  24.278  0.00  0.00    -0.073 C 
ATOM    100  H27 non d ame     -39.228  15.058  24.860  0.00  0.00     0.028 H 
ATOM    101  H28 non d ame     -38.958  14.293  23.275  0.00  0.00     0.028 H 
ATOM    102  H29 non d ame     -40.419  13.904  24.213  0.00  0.00     0.028 H 
ENDBRANCH  93  99
ENDBRANCH  90  93
ENDBRANCH   1  90
TORSDOF 26
ENDMDL
MODEL 17
REMARK VINA RESULT:      -6.0      2.824      7.396
REMARK  26 active torsions:
REMARK  status: ('A' for Active; 'I' for Inactive)
REMARK    1  A    between atoms: C2_2  and  C3_3 
REMARK    2  A    between atoms: C4_6  and  C5_7 
REMARK       I    between atoms: C5_7  and  N2_9 
REMARK    3  A    between atoms: N2_9  and  C6_10 
REMARK    4  A    between atoms: C6_10  and  C7_11 
REMARK    5  A    between atoms: C6_10  and  C8_13 
REMARK       I    between atoms: C7_11  and  N3_14 
REMARK    6  A    between atoms: N3_14  and  C9_15 
REMARK    7  A    between atoms: C9_15  and  C10_16 
REMARK    8  A    between atoms: C9_15  and  C11_18 
REMARK       I    between atoms: C10_16  and  N4_21 
REMARK    9  A    between atoms: C11_18  and  C12_19 
REMARK   10  A    between atoms: C11_18  and  C13_20 
REMARK   11  A    between atoms: N4_21  and  C14_22 
REMARK   12  A    between atoms: C14_22  and  C15_23 
REMARK   13  A    between atoms: C14_22  and  C16_25 
REMARK       I    between atoms: C15_23  and  N6_40 
REMARK   14  A    between atoms: C16_25  and  C17_26 
REMARK   15  A    between atoms: C17_26  and  C18_27 
REMARK   16  A    between atoms: C17_26  and  C19_28 
REMARK   17  A    between atoms: C20_29  and  C21_30 
REMARK   18  A    between atoms: C20_29  and  C24_33 
REMARK   19  A    between atoms: C20_29  and  N6_40 
REMARK   20  A    between atoms: C21_30  and  C22_31 
REMARK   21  A    between atoms: C22_31  and  C23_32 
REMARK   22  A    between atoms: C23_32  and  O8_43 
REMARK   23  A    between atoms: C24_33  and  C25_34 
REMARK   24  A    between atoms: C28_38  and  O6_39 
REMARK   25  A    between atoms: C29_42  and  O8_43 
REMARK   26  A    between atoms: C29_42  and  C35_49 
ROOT
ATOM      1  C14 non d ame     -36.041  10.927  26.055  0.00  0.00     0.089 C 
ATOM      2  H20 non d ame     -37.066  10.945  26.426  0.00  0.00     0.087 H 
ENDROOT
BRANCH   1   3
ATOM      3  N4  non d ame     -35.166  10.701  27.196  0.00  0.00    -0.346 N 
ATOM      4  C10 non d ame     -35.747  10.497  28.573  0.00  0.00     0.241 C 
ATOM      5  O4  non d ame     -36.922  10.523  28.738  0.00  0.00    -0.271 OA
ATOM      6  H19 non d ame     -34.169  10.685  27.035  0.00  0.00     0.163 HD
BRANCH   4   7
ATOM      7  C9  non d ame     -34.827  10.259  29.742  0.00  0.00     0.092 C 
ATOM      8  H11 non d ame     -34.219   9.377  29.545  0.00  0.00     0.088 H 
BRANCH   7   9
ATOM      9  N3  non d ame     -33.911  11.395  29.882  0.00  0.00    -0.346 N 
ATOM     10  C7  non d ame     -32.543  11.276  29.439  0.00  0.00     0.240 C 
ATOM     11  O3  non d ame     -32.164  10.274  28.968  0.00  0.00    -0.271 OA
ATOM     12  H10 non d ame     -34.223  12.265  30.288  0.00  0.00     0.163 HD
BRANCH  10  13
ATOM     13  C6  non d ame     -31.572  12.487  29.593  0.00  0.00     0.086 C 
ATOM     14  H6  non d ame     -30.721  12.434  28.915  0.00  0.00     0.086 H 
BRANCH  13  15
ATOM     15  N2  non d ame     -32.287  13.710  29.269  0.00  0.00    -0.343 N 
ATOM     16  C5  non d ame     -31.676  14.684  28.361  0.00  0.00     0.273 C 
ATOM     17  O2  non d ame     -30.608  14.476  27.901  0.00  0.00    -0.266 OA
ATOM     18  H5  non d ame     -33.199  13.881  29.669  0.00  0.00     0.163 HD
BRANCH  16  19
ATOM     19  C4  non d ame     -32.422  15.980  28.008  0.00  0.00     0.154 A 
ATOM     20  C1  non d ame     -32.308  16.742  26.802  0.00  0.00    -0.017 A 
ATOM     21  C2  non d ame     -33.194  17.829  26.974  0.00  0.00     0.077 A 
ATOM     22  H1  non d ame     -31.680  16.537  25.935  0.00  0.00     0.091 H 
ATOM     23  O1  non d ame     -33.746  17.697  28.144  0.00  0.00    -0.218 OA
ATOM     24  N1  non d ame     -33.312  16.626  28.767  0.00  0.00    -0.123 NA
BRANCH  21  25
ATOM     25  C3  non d ame     -33.453  18.948  25.974  0.00  0.00    -0.029 C 
ATOM     26  H2  non d ame     -32.726  18.887  25.164  0.00  0.00     0.036 H 
ATOM     27  H3  non d ame     -34.459  18.846  25.568  0.00  0.00     0.036 H 
ATOM     28  H4  non d ame     -33.359  19.912  26.474  0.00  0.00     0.036 H 
ENDBRANCH  21  25
ENDBRANCH  16  19
ENDBRANCH  13  15
BRANCH  13  29
ATOM     29  C8  non d ame     -31.062  12.548  31.011  0.00  0.00    -0.049 C 
ATOM     30  H7  non d ame     -31.033  13.586  31.342  0.00  0.00     0.030 H 
ATOM     31  H8  non d ame     -31.726  11.978  31.660  0.00  0.00     0.030 H 
ATOM     32  H9  non d ame     -30.058  12.125  31.055  0.00  0.00     0.030 H 
ENDBRANCH  13  29
ENDBRANCH  10  13
ENDBRANCH   7   9
BRANCH   7  33
ATOM     33  C11 non d ame     -35.669  10.112  31.043  0.00  0.00    -0.033 C 
ATOM     34  H12 non d ame     -36.684  10.438  30.816  0.00  0.00     0.042 H 
BRANCH  33  35
ATOM     35  C12 non d ame     -35.746   8.623  31.504  0.00  0.00    -0.071 C 
ATOM     36  H13 non d ame     -34.981   8.043  30.989  0.00  0.00     0.028 H 
ATOM     37  H14 non d ame     -35.582   8.567  32.580  0.00  0.00     0.028 H 
ATOM     38  H15 non d ame     -36.730   8.219  31.265  0.00  0.00     0.028 H 
ENDBRANCH  33  35
BRANCH  33  39
ATOM     39  C13 non d ame     -35.110  11.028  32.178  0.00  0.00    -0.071 C 
ATOM     40  H16 non d ame     -35.600  10.781  33.119  0.00  0.00     0.028 H 
ATOM     41  H17 non d ame     -34.035  10.872  32.275  0.00  0.00     0.028 H 
ATOM     42  H18 non d ame     -35.302  12.072  31.930  0.00  0.00     0.028 H 
ENDBRANCH  33  39
ENDBRANCH   7  33
ENDBRANCH   4   7
ENDBRANCH   1   3
BRANCH   1  43
ATOM     43  C15 non d ame     -35.810   9.788  25.021  0.00  0.00     0.240 C 
ATOM     44  O5  non d ame     -36.742   9.220  24.550  0.00  0.00    -0.271 OA
ATOM     45  N6  non d ame     -34.428   9.410  24.612  0.00  0.00    -0.355 N 
ATOM     46  H46 non d ame     -33.628   9.888  25.002  0.00  0.00     0.162 HD
BRANCH  45  47
ATOM     47  C20 non d ame     -34.225   8.326  23.627  0.00  0.00     0.013 C 
ATOM     48  H30 non d ame     -35.192   8.095  23.179  0.00  0.00     0.072 H 
BRANCH  47  49
ATOM     49  C21 non d ame     -33.677   7.106  24.332  0.00  0.00    -0.038 C 
ATOM     50  H31 non d ame     -33.702   6.303  23.594  0.00  0.00     0.036 H 
ATOM     51  H32 non d ame     -32.727   7.419  24.766  0.00  0.00     0.036 H 
BRANCH  49  52
ATOM     52  C22 non d ame     -34.564   6.645  25.509  0.00  0.00     0.018 C 
ATOM     53  H33 non d ame     -35.527   7.132  25.361  0.00  0.00     0.048 H 
ATOM     54  H34 non d ame     -34.500   5.556  25.518  0.00  0.00     0.048 H 
BRANCH  52  55
ATOM     55  C23 non d ame     -34.055   7.116  26.899  0.00  0.00     0.259 C 
ATOM     56  O7  non d ame     -33.410   8.109  27.001  0.00  0.00    -0.265 OA
BRANCH  55  57
ATOM     57  O8  non d ame     -34.357   6.339  28.052  0.00  0.00    -0.317 OA
BRANCH  57  58
ATOM     58  C29 non d ame     -33.785   5.028  28.037  0.00  0.00     0.052 C 
ATOM     59  H47 non d ame     -34.554   4.375  27.624  0.00  0.00     0.082 H 
ATOM     60  H48 non d ame     -32.827   5.130  27.528  0.00  0.00     0.082 H 
BRANCH  58  61
ATOM     61  C35 non d ame     -33.518   4.605  29.506  0.00  0.00    -0.034 A 
ATOM     62  C30 non d ame     -32.426   3.799  29.811  0.00  0.00    -0.075 A 
ATOM     63  C31 non d ame     -32.186   3.419  31.131  0.00  0.00    -0.082 A 
ATOM     64  H49 non d ame     -31.758   3.465  29.017  0.00  0.00     0.084 H 
ATOM     65  C32 non d ame     -33.045   3.846  32.147  0.00  0.00    -0.083 A 
ATOM     66  H50 non d ame     -31.328   2.789  31.367  0.00  0.00     0.083 H 
ATOM     67  C33 non d ame     -34.135   4.647  31.837  0.00  0.00    -0.082 A 
ATOM     68  H51 non d ame     -32.864   3.554  33.182  0.00  0.00     0.083 H 
ATOM     69  C34 non d ame     -34.378   5.031  30.520  0.00  0.00    -0.075 A 
ATOM     70  H52 non d ame     -34.805   4.976  32.632  0.00  0.00     0.083 H 
ATOM     71  H53 non d ame     -35.236   5.661  30.284  0.00  0.00     0.084 H 
ENDBRANCH  58  61
ENDBRANCH  57  58
ENDBRANCH  55  57
ENDBRANCH  52  55
ENDBRANCH  49  52
ENDBRANCH  47  49
BRANCH  47  72
ATOM     72  C24 non d ame     -33.239   8.781  22.554  0.00  0.00    -0.039 C 
ATOM     73  H35 non d ame     -33.403   8.114  21.707  0.00  0.00     0.036 H 
ATOM     74  H36 non d ame     -33.405   9.853  22.443  0.00  0.00     0.036 H 
BRANCH  72  75
ATOM     75  C25 non d ame     -31.720   8.584  23.023  0.00  0.00    -0.001 C 
ATOM     76  C26 non d ame     -31.039  10.046  23.345  0.00  0.00    -0.035 C 
ATOM     77  C27 non d ame     -29.867  10.140  22.672  0.00  0.00     0.085 C 
ATOM     78  H38 non d ame     -31.645  10.843  22.915  0.00  0.00     0.036 H 
ATOM     79  H39 non d ame     -30.737  10.095  24.392  0.00  0.00     0.036 H 
ATOM     80  N5  non d ame     -29.845   9.015  21.666  0.00  0.00    -0.049 N 
ATOM     81  H40 non d ame     -29.912  11.091  22.142  0.00  0.00     0.075 H 
ATOM     82  H41 non d ame     -29.090   9.967  23.416  0.00  0.00     0.075 H 
ATOM     83  C28 non d ame     -31.020   8.000  22.109  0.00  0.00     0.193 C 
ATOM     84  H42 non d ame     -30.091   9.422  20.775  0.00  0.00     0.280 HD
ATOM     85  H43 non d ame     -28.956   8.548  21.780  0.00  0.00     0.280 HD
ATOM     86  H44 non d ame     -30.781   7.062  22.611  0.00  0.00     0.129 H 
ATOM     87  H37 non d ame     -31.620   7.812  23.786  0.00  0.00     0.046 H 
BRANCH  83  88
ATOM     88  O6  non d ame     -31.810   7.636  20.975  0.00  0.00    -0.369 OA
ATOM     89  H45 non d ame     -31.770   8.336  20.319  0.00  0.00     0.212 HD
ENDBRANCH  83  88
ENDBRANCH  72  75
ENDBRANCH  47  72
ENDBRANCH  45  47
ENDBRANCH   1  43
BRANCH   1  90
ATOM     90  C16 non d ame     -35.698  12.267  25.425  0.00  0.00    -0.035 C 
ATOM     91  H21 non d ame     -35.124  12.026  24.530  0.00  0.00     0.037 H 
ATOM     92  H22 non d ame     -36.647  12.797  25.338  0.00  0.00     0.037 H 
BRANCH  90  93
ATOM     93  C17 non d ame     -34.774  13.159  26.313  0.00  0.00    -0.059 C 
ATOM     94  H23 non d ame     -34.648  12.655  27.271  0.00  0.00     0.038 H 
BRANCH  93  95
ATOM     95  C18 non d ame     -33.356  13.348  25.685  0.00  0.00    -0.073 C 
ATOM     96  H24 non d ame     -33.406  14.092  24.891  0.00  0.00     0.028 H 
ATOM     97  H25 non d ame     -32.660  13.684  26.453  0.00  0.00     0.028 H 
ATOM     98  H26 non d ame     -33.012  12.400  25.273  0.00  0.00     0.028 H 
ENDBRANCH  93  95
BRANCH  93  99
ATOM     99  C19 non d ame     -35.429  14.514  26.596  0.00  0.00    -0.073 C 
ATOM    100  H27 non d ame     -34.978  15.275  25.959  0.00  0.00     0.028 H 
ATOM    101  H28 non d ame     -36.497  14.452  26.387  0.00  0.00     0.028 H 
ATOM    102  H29 non d ame     -35.279  14.779  27.642  0.00  0.00     0.028 H 
ENDBRANCH  93  99
ENDBRANCH  90  93
ENDBRANCH   1  90
TORSDOF 26
ENDMDL
MODEL 18
REMARK VINA RESULT:      -6.0      1.911      7.123
REMARK  26 active torsions:
REMARK  status: ('A' for Active; 'I' for Inactive)
REMARK    1  A    between atoms: C2_2  and  C3_3 
REMARK    2  A    between atoms: C4_6  and  C5_7 
REMARK       I    between atoms: C5_7  and  N2_9 
REMARK    3  A    between atoms: N2_9  and  C6_10 
REMARK    4  A    between atoms: C6_10  and  C7_11 
REMARK    5  A    between atoms: C6_10  and  C8_13 
REMARK       I    between atoms: C7_11  and  N3_14 
REMARK    6  A    between atoms: N3_14  and  C9_15 
REMARK    7  A    between atoms: C9_15  and  C10_16 
REMARK    8  A    between atoms: C9_15  and  C11_18 
REMARK       I    between atoms: C10_16  and  N4_21 
REMARK    9  A    between atoms: C11_18  and  C12_19 
REMARK   10  A    between atoms: C11_18  and  C13_20 
REMARK   11  A    between atoms: N4_21  and  C14_22 
REMARK   12  A    between atoms: C14_22  and  C15_23 
REMARK   13  A    between atoms: C14_22  and  C16_25 
REMARK       I    between atoms: C15_23  and  N6_40 
REMARK   14  A    between atoms: C16_25  and  C17_26 
REMARK   15  A    between atoms: C17_26  and  C18_27 
REMARK   16  A    between atoms: C17_26  and  C19_28 
REMARK   17  A    between atoms: C20_29  and  C21_30 
REMARK   18  A    between atoms: C20_29  and  C24_33 
REMARK   19  A    between atoms: C20_29  and  N6_40 
REMARK   20  A    between atoms: C21_30  and  C22_31 
REMARK   21  A    between atoms: C22_31  and  C23_32 
REMARK   22  A    between atoms: C23_32  and  O8_43 
REMARK   23  A    between atoms: C24_33  and  C25_34 
REMARK   24  A    between atoms: C28_38  and  O6_39 
REMARK   25  A    between atoms: C29_42  and  O8_43 
REMARK   26  A    between atoms: C29_42  and  C35_49 
ROOT
ATOM      1  C14 non d ame     -35.923  13.728  26.333  0.00  0.00     0.089 C 
ATOM      2  H20 non d ame     -36.921  13.440  26.666  0.00  0.00     0.087 H 
ENDROOT
BRANCH   1   3
ATOM      3  N4  non d ame     -35.624  15.027  26.918  0.00  0.00    -0.346 N 
ATOM      4  C10 non d ame     -36.716  16.052  27.095  0.00  0.00     0.241 C 
ATOM      5  O4  non d ame     -37.827  15.810  26.756  0.00  0.00    -0.271 OA
ATOM      6  H19 non d ame     -34.672  15.214  27.198  0.00  0.00     0.163 HD
BRANCH   4   7
ATOM      7  C9  non d ame     -36.389  17.389  27.707  0.00  0.00     0.092 C 
ATOM      8  H11 non d ame     -36.229  17.263  28.778  0.00  0.00     0.088 H 
BRANCH   7   9
ATOM      9  N3  non d ame     -35.137  17.895  27.137  0.00  0.00    -0.346 N 
ATOM     10  C7  non d ame     -33.879  17.579  27.768  0.00  0.00     0.240 C 
ATOM     11  O3  non d ame     -33.856  16.920  28.735  0.00  0.00    -0.271 OA
ATOM     12  H10 non d ame     -35.141  18.467  26.305  0.00  0.00     0.163 HD
BRANCH  10  13
ATOM     13  C6  non d ame     -32.550  18.124  27.159  0.00  0.00     0.086 C 
ATOM     14  H6  non d ame     -31.682  17.914  27.784  0.00  0.00     0.086 H 
BRANCH  13  15
ATOM     15  N2  non d ame     -32.312  17.468  25.884  0.00  0.00    -0.343 N 
ATOM     16  C5  non d ame     -31.716  16.130  25.861  0.00  0.00     0.273 C 
ATOM     17  O2  non d ame     -31.429  15.592  26.874  0.00  0.00    -0.266 OA
ATOM     18  H5  non d ame     -32.558  17.936  25.023  0.00  0.00     0.163 HD
BRANCH  16  19
ATOM     19  C4  non d ame     -31.461  15.424  24.521  0.00  0.00     0.154 A 
ATOM     20  C1  non d ame     -30.392  14.525  24.207  0.00  0.00    -0.017 A 
ATOM     21  C2  non d ame     -30.609  14.159  22.860  0.00  0.00     0.077 A 
ATOM     22  H1  non d ame     -29.584  14.190  24.857  0.00  0.00     0.091 H 
ATOM     23  O1  non d ame     -31.680  14.779  22.457  0.00  0.00    -0.218 OA
ATOM     24  N1  non d ame     -32.194  15.523  23.409  0.00  0.00    -0.123 NA
BRANCH  21  25
ATOM     25  C3  non d ame     -29.749  13.213  22.033  0.00  0.00    -0.029 C 
ATOM     26  H2  non d ame     -29.000  13.786  21.487  0.00  0.00     0.036 H 
ATOM     27  H3  non d ame     -29.252  12.503  22.694  0.00  0.00     0.036 H 
ATOM     28  H4  non d ame     -30.379  12.672  21.327  0.00  0.00     0.036 H 
ENDBRANCH  21  25
ENDBRANCH  16  19
ENDBRANCH  13  15
BRANCH  13  29
ATOM     29  C8  non d ame     -32.658  19.614  26.960  0.00  0.00    -0.049 C 
ATOM     30  H7  non d ame     -33.583  19.844  26.431  0.00  0.00     0.030 H 
ATOM     31  H8  non d ame     -32.662  20.110  27.931  0.00  0.00     0.030 H 
ATOM     32  H9  non d ame     -31.808  19.966  26.376  0.00  0.00     0.030 H 
ENDBRANCH  13  29
ENDBRANCH  10  13
ENDBRANCH   7   9
BRANCH   7  33
ATOM     33  C11 non d ame     -37.539  18.394  27.401  0.00  0.00    -0.033 C 
ATOM     34  H12 non d ame     -38.327  17.845  26.886  0.00  0.00     0.042 H 
BRANCH  33  35
ATOM     35  C12 non d ame     -38.152  18.973  28.715  0.00  0.00    -0.071 C 
ATOM     36  H13 non d ame     -39.152  19.355  28.511  0.00  0.00     0.028 H 
ATOM     37  H14 non d ame     -38.209  18.186  29.466  0.00  0.00     0.028 H 
ATOM     38  H15 non d ame     -37.522  19.783  29.083  0.00  0.00     0.028 H 
ENDBRANCH  33  35
BRANCH  33  39
ATOM     39  C13 non d ame     -37.047  19.535  26.454  0.00  0.00    -0.071 C 
ATOM     40  H16 non d ame     -37.846  19.803  25.763  0.00  0.00     0.028 H 
ATOM     41  H17 non d ame     -36.772  20.407  27.049  0.00  0.00     0.028 H 
ATOM     42  H18 non d ame     -36.179  19.192  25.892  0.00  0.00     0.028 H 
ENDBRANCH  33  39
ENDBRANCH   7  33
ENDBRANCH   4   7
ENDBRANCH   1   3
BRANCH   1  43
ATOM     43  C15 non d ame     -34.835  12.716  26.793  0.00  0.00     0.240 C 
ATOM     44  O5  non d ame     -35.148  11.758  27.423  0.00  0.00    -0.271 OA
ATOM     45  N6  non d ame     -33.404  12.936  26.439  0.00  0.00    -0.355 N 
ATOM     46  H46 non d ame     -33.127  13.743  25.899  0.00  0.00     0.162 HD
BRANCH  45  47
ATOM     47  C20 non d ame     -32.382  11.963  26.882  0.00  0.00     0.013 C 
ATOM     48  H30 non d ame     -32.899  11.098  27.297  0.00  0.00     0.072 H 
BRANCH  47  49
ATOM     49  C21 non d ame     -31.511  12.601  27.941  0.00  0.00    -0.038 C 
ATOM     50  H31 non d ame     -30.744  11.862  28.176  0.00  0.00     0.036 H 
ATOM     51  H32 non d ame     -31.226  13.574  27.540  0.00  0.00     0.036 H 
BRANCH  49  52
ATOM     52  C22 non d ame     -32.271  12.875  29.256  0.00  0.00     0.018 C 
ATOM     53  H33 non d ame     -32.174  13.945  29.436  0.00  0.00     0.048 H 
ATOM     54  H34 non d ame     -33.258  12.432  29.125  0.00  0.00     0.048 H 
BRANCH  52  55
ATOM     55  C23 non d ame     -31.649  12.175  30.497  0.00  0.00     0.259 C 
ATOM     56  O7  non d ame     -30.692  12.634  31.032  0.00  0.00    -0.265 OA
BRANCH  55  57
ATOM     57  O8  non d ame     -32.228  10.970  30.980  0.00  0.00    -0.317 OA
BRANCH  57  58
ATOM     58  C29 non d ame     -33.658  10.987  31.022  0.00  0.00     0.052 C 
ATOM     59  H47 non d ame     -33.920  11.117  32.072  0.00  0.00     0.082 H 
ATOM     60  H48 non d ame     -33.966  11.730  30.287  0.00  0.00     0.082 H 
BRANCH  58  61
ATOM     61  C35 non d ame     -34.168   9.596  30.558  0.00  0.00    -0.034 A 
ATOM     62  C30 non d ame     -34.817   8.756  31.457  0.00  0.00    -0.075 A 
ATOM     63  C31 non d ame     -35.274   7.507  31.040  0.00  0.00    -0.082 A 
ATOM     64  H49 non d ame     -34.966   9.076  32.488  0.00  0.00     0.084 H 
ATOM     65  C32 non d ame     -35.078   7.098  29.718  0.00  0.00    -0.083 A 
ATOM     66  H50 non d ame     -35.784   6.852  31.746  0.00  0.00     0.083 H 
ATOM     67  C33 non d ame     -34.427   7.939  28.825  0.00  0.00    -0.082 A 
ATOM     68  H51 non d ame     -35.434   6.123  29.383  0.00  0.00     0.083 H 
ATOM     69  C34 non d ame     -33.970   9.189  29.237  0.00  0.00    -0.075 A 
ATOM     70  H52 non d ame     -34.274   7.615  27.795  0.00  0.00     0.083 H 
ATOM     71  H53 non d ame     -33.461   9.843  28.530  0.00  0.00     0.084 H 
ENDBRANCH  58  61
ENDBRANCH  57  58
ENDBRANCH  55  57
ENDBRANCH  52  55
ENDBRANCH  49  52
ENDBRANCH  47  49
BRANCH  47  72
ATOM     72  C24 non d ame     -31.517  11.545  25.694  0.00  0.00    -0.039 C 
ATOM     73  H35 non d ame     -31.313  12.465  25.146  0.00  0.00     0.036 H 
ATOM     74  H36 non d ame     -30.694  10.972  26.122  0.00  0.00     0.036 H 
BRANCH  72  75
ATOM     75  C25 non d ame     -32.308  10.569  24.700  0.00  0.00    -0.001 C 
ATOM     76  C26 non d ame     -33.208   9.499  25.566  0.00  0.00    -0.035 C 
ATOM     77  C27 non d ame     -32.938   8.246  25.127  0.00  0.00     0.085 C 
ATOM     78  H38 non d ame     -32.875   9.483  26.603  0.00  0.00     0.036 H 
ATOM     79  H39 non d ame     -34.266   9.627  25.334  0.00  0.00     0.036 H 
ATOM     80  N5  non d ame     -31.698   8.336  24.270  0.00  0.00    -0.049 N 
ATOM     81  H40 non d ame     -32.710   7.667  26.022  0.00  0.00     0.075 H 
ATOM     82  H41 non d ame     -33.784   7.968  24.499  0.00  0.00     0.075 H 
ATOM     83  C28 non d ame     -31.492   9.905  23.950  0.00  0.00     0.193 C 
ATOM     84  H42 non d ame     -30.929   8.021  24.845  0.00  0.00     0.280 HD
ATOM     85  H43 non d ame     -31.912   7.857  23.407  0.00  0.00     0.280 HD
ATOM     86  H44 non d ame     -31.750  10.309  22.971  0.00  0.00     0.129 H 
ATOM     87  H37 non d ame     -32.814  11.113  23.903  0.00  0.00     0.046 H 
BRANCH  83  88
ATOM     88  O6  non d ame     -30.131  10.279  24.171  0.00  0.00    -0.369 OA
ATOM     89  H45 non d ame     -30.056  11.236  24.160  0.00  0.00     0.212 HD
ENDBRANCH  83  88
ENDBRANCH  72  75
ENDBRANCH  47  72
ENDBRANCH  45  47
ENDBRANCH   1  43
BRANCH   1  90
ATOM     90  C16 non d ame     -35.901  13.850  24.818  0.00  0.00    -0.035 C 
ATOM     91  H21 non d ame     -35.610  14.880  24.615  0.00  0.00     0.037 H 
ATOM     92  H22 non d ame     -35.274  13.028  24.472  0.00  0.00     0.037 H 
BRANCH  90  93
ATOM     93  C17 non d ame     -37.300  13.648  24.153  0.00  0.00    -0.059 C 
ATOM     94  H23 non d ame     -38.056  13.772  24.928  0.00  0.00     0.038 H 
BRANCH  93  95
ATOM     95  C18 non d ame     -37.581  14.708  23.040  0.00  0.00    -0.073 C 
ATOM     96  H24 non d ame     -38.041  15.590  23.485  0.00  0.00     0.028 H 
ATOM     97  H25 non d ame     -36.644  14.990  22.561  0.00  0.00     0.028 H 
ATOM     98  H26 non d ame     -38.255  14.283  22.296  0.00  0.00     0.028 H 
ENDBRANCH  93  95
BRANCH  93  99
ATOM     99  C19 non d ame     -37.443  12.228  23.601  0.00  0.00    -0.073 C 
ATOM    100  H27 non d ame     -38.106  12.239  22.735  0.00  0.00     0.028 H 
ATOM    101  H28 non d ame     -36.464  11.852  23.303  0.00  0.00     0.028 H 
ATOM    102  H29 non d ame     -37.861  11.579  24.370  0.00  0.00     0.028 H 
ENDBRANCH  93  99
ENDBRANCH  90  93
ENDBRANCH   1  90
TORSDOF 26
ENDMDL
MODEL 19
REMARK VINA RESULT:      -5.9      2.930      6.933
REMARK  26 active torsions:
REMARK  status: ('A' for Active; 'I' for Inactive)
REMARK    1  A    between atoms: C2_2  and  C3_3 
REMARK    2  A    between atoms: C4_6  and  C5_7 
REMARK       I    between atoms: C5_7  and  N2_9 
REMARK    3  A    between atoms: N2_9  and  C6_10 
REMARK    4  A    between atoms: C6_10  and  C7_11 
REMARK    5  A    between atoms: C6_10  and  C8_13 
REMARK       I    between atoms: C7_11  and  N3_14 
REMARK    6  A    between atoms: N3_14  and  C9_15 
REMARK    7  A    between atoms: C9_15  and  C10_16 
REMARK    8  A    between atoms: C9_15  and  C11_18 
REMARK       I    between atoms: C10_16  and  N4_21 
REMARK    9  A    between atoms: C11_18  and  C12_19 
REMARK   10  A    between atoms: C11_18  and  C13_20 
REMARK   11  A    between atoms: N4_21  and  C14_22 
REMARK   12  A    between atoms: C14_22  and  C15_23 
REMARK   13  A    between atoms: C14_22  and  C16_25 
REMARK       I    between atoms: C15_23  and  N6_40 
REMARK   14  A    between atoms: C16_25  and  C17_26 
REMARK   15  A    between atoms: C17_26  and  C18_27 
REMARK   16  A    between atoms: C17_26  and  C19_28 
REMARK   17  A    between atoms: C20_29  and  C21_30 
REMARK   18  A    between atoms: C20_29  and  C24_33 
REMARK   19  A    between atoms: C20_29  and  N6_40 
REMARK   20  A    between atoms: C21_30  and  C22_31 
REMARK   21  A    between atoms: C22_31  and  C23_32 
REMARK   22  A    between atoms: C23_32  and  O8_43 
REMARK   23  A    between atoms: C24_33  and  C25_34 
REMARK   24  A    between atoms: C28_38  and  O6_39 
REMARK   25  A    between atoms: C29_42  and  O8_43 
REMARK   26  A    between atoms: C29_42  and  C35_49 
ROOT
ATOM      1  C14 non d ame     -32.428  10.807  29.399  0.00  0.00     0.089 C 
ATOM      2  H20 non d ame     -31.554  10.157  29.353  0.00  0.00     0.087 H 
ENDROOT
BRANCH   1   3
ATOM      3  N4  non d ame     -32.897  11.007  28.036  0.00  0.00    -0.346 N 
ATOM      4  C10 non d ame     -32.719   9.924  27.002  0.00  0.00     0.241 C 
ATOM      5  O4  non d ame     -32.193   8.900  27.290  0.00  0.00    -0.271 OA
ATOM      6  H19 non d ame     -33.340  11.887  27.810  0.00  0.00     0.163 HD
BRANCH   4   7
ATOM      7  C9  non d ame     -33.216  10.147  25.597  0.00  0.00     0.092 C 
ATOM      8  H11 non d ame     -33.943   9.374  25.347  0.00  0.00     0.088 H 
BRANCH   7   9
ATOM      9  N3  non d ame     -33.911  11.435  25.523  0.00  0.00    -0.346 N 
ATOM     10  C7  non d ame     -35.352  11.479  25.555  0.00  0.00     0.240 C 
ATOM     11  O3  non d ame     -35.968  10.487  25.638  0.00  0.00    -0.271 OA
ATOM     12  H10 non d ame     -33.393  12.299  25.448  0.00  0.00     0.163 HD
BRANCH  10  13
ATOM     13  C6  non d ame     -36.087  12.854  25.472  0.00  0.00     0.086 C 
ATOM     14  H6  non d ame     -36.690  13.063  26.355  0.00  0.00     0.086 H 
BRANCH  13  15
ATOM     15  N2  non d ame     -35.095  13.913  25.384  0.00  0.00    -0.343 N 
ATOM     16  C5  non d ame     -35.112  14.999  26.366  0.00  0.00     0.273 C 
ATOM     17  O2  non d ame     -35.928  15.013  27.221  0.00  0.00    -0.266 OA
ATOM     18  H5  non d ame     -34.403  13.895  24.648  0.00  0.00     0.163 HD
BRANCH  16  19
ATOM     19  C4  non d ame     -34.069  16.125  26.286  0.00  0.00     0.154 A 
ATOM     20  C1  non d ame     -34.157  17.428  26.870  0.00  0.00    -0.017 A 
ATOM     21  C2  non d ame     -32.953  18.072  26.507  0.00  0.00     0.077 A 
ATOM     22  H1  non d ame     -34.970  17.844  27.466  0.00  0.00     0.091 H 
ATOM     23  O1  non d ame     -32.261  17.227  25.799  0.00  0.00    -0.218 OA
ATOM     24  N1  non d ame     -32.891  16.085  25.656  0.00  0.00    -0.123 NA
BRANCH  21  25
ATOM     25  C3  non d ame     -32.541  19.490  26.878  0.00  0.00    -0.029 C 
ATOM     26  H2  non d ame     -31.484  19.504  27.144  0.00  0.00     0.036 H 
ATOM     27  H3  non d ame     -32.710  20.151  26.028  0.00  0.00     0.036 H 
ATOM     28  H4  non d ame     -33.134  19.831  27.726  0.00  0.00     0.036 H 
ENDBRANCH  21  25
ENDBRANCH  16  19
ENDBRANCH  13  15
BRANCH  13  29
ATOM     29  C8  non d ame     -36.978  12.878  24.256  0.00  0.00    -0.049 C 
ATOM     30  H7  non d ame     -37.158  13.911  23.958  0.00  0.00     0.030 H 
ATOM     31  H8  non d ame     -36.492  12.344  23.439  0.00  0.00     0.030 H 
ATOM     32  H9  non d ame     -37.927  12.396  24.491  0.00  0.00     0.030 H 
ENDBRANCH  13  29
ENDBRANCH  10  13
ENDBRANCH   7   9
BRANCH   7  33
ATOM     33  C11 non d ame     -32.008  10.154  24.615  0.00  0.00    -0.033 C 
ATOM     34  H12 non d ame     -31.226   9.534  25.052  0.00  0.00     0.042 H 
BRANCH  33  35
ATOM     35  C12 non d ame     -32.391   9.527  23.238  0.00  0.00    -0.071 C 
ATOM     36  H13 non d ame     -32.195   8.455  23.260  0.00  0.00     0.028 H 
ATOM     37  H14 non d ame     -33.449   9.700  23.042  0.00  0.00     0.028 H 
ATOM     38  H15 non d ame     -31.795   9.988  22.451  0.00  0.00     0.028 H 
ENDBRANCH  33  35
BRANCH  33  39
ATOM     39  C13 non d ame     -31.438  11.599  24.441  0.00  0.00    -0.071 C 
ATOM     40  H16 non d ame     -31.683  11.968  23.445  0.00  0.00     0.028 H 
ATOM     41  H17 non d ame     -31.878  12.256  25.191  0.00  0.00     0.028 H 
ATOM     42  H18 non d ame     -30.356  11.580  24.566  0.00  0.00     0.028 H 
ENDBRANCH  33  39
ENDBRANCH   7  33
ENDBRANCH   4   7
ENDBRANCH   1   3
BRANCH   1  43
ATOM     43  C15 non d ame     -33.582  10.181  30.233  0.00  0.00     0.240 C 
ATOM     44  O5  non d ame     -34.092  10.810  31.102  0.00  0.00    -0.271 OA
ATOM     45  N6  non d ame     -34.057   8.798  29.942  0.00  0.00    -0.355 N 
ATOM     46  H46 non d ame     -33.635   8.255  29.203  0.00  0.00     0.162 HD
BRANCH  45  47
ATOM     47  C20 non d ame     -35.157   8.217  30.743  0.00  0.00     0.013 C 
ATOM     48  H30 non d ame     -35.034   8.551  31.773  0.00  0.00     0.072 H 
BRANCH  47  49
ATOM     49  C21 non d ame     -35.081   6.709  30.676  0.00  0.00    -0.038 C 
ATOM     50  H31 non d ame     -34.061   6.478  30.365  0.00  0.00     0.036 H 
ATOM     51  H32 non d ame     -35.451   6.353  31.638  0.00  0.00     0.036 H 
BRANCH  49  52
ATOM     52  C22 non d ame     -36.012   6.108  29.601  0.00  0.00     0.018 C 
ATOM     53  H33 non d ame     -36.211   5.086  29.920  0.00  0.00     0.048 H 
ATOM     54  H34 non d ame     -36.834   6.816  29.494  0.00  0.00     0.048 H 
BRANCH  52  55
ATOM     55  C23 non d ame     -35.356   5.999  28.196  0.00  0.00     0.259 C 
ATOM     56  O7  non d ame     -35.112   6.976  27.566  0.00  0.00    -0.265 OA
BRANCH  55  57
ATOM     57  O8  non d ame     -35.062   4.713  27.663  0.00  0.00    -0.317 OA
BRANCH  57  58
ATOM     58  C29 non d ame     -33.663   4.430  27.564  0.00  0.00     0.052 C 
ATOM     59  H47 non d ame     -33.177   5.095  28.278  0.00  0.00     0.082 H 
ATOM     60  H48 non d ame     -33.572   3.350  27.676  0.00  0.00     0.082 H 
BRANCH  58  61
ATOM     61  C35 non d ame     -33.196   4.817  26.136  0.00  0.00    -0.034 A 
ATOM     62  C30 non d ame     -32.234   5.807  25.961  0.00  0.00    -0.075 A 
ATOM     63  C31 non d ame     -31.815   6.155  24.678  0.00  0.00    -0.082 A 
ATOM     64  H49 non d ame     -31.809   6.310  26.830  0.00  0.00     0.084 H 
ATOM     65  C32 non d ame     -32.363   5.510  23.566  0.00  0.00    -0.083 A 
ATOM     66  H50 non d ame     -31.060   6.930  24.545  0.00  0.00     0.083 H 
ATOM     67  C33 non d ame     -33.326   4.526  23.745  0.00  0.00    -0.082 A 
ATOM     68  H51 non d ame     -32.041   5.776  22.559  0.00  0.00     0.083 H 
ATOM     69  C34 non d ame     -33.746   4.173  25.025  0.00  0.00    -0.075 A 
ATOM     70  H52 non d ame     -33.753   4.026  22.875  0.00  0.00     0.083 H 
ATOM     71  H53 non d ame     -34.501   3.398  25.158  0.00  0.00     0.084 H 
ENDBRANCH  58  61
ENDBRANCH  57  58
ENDBRANCH  55  57
ENDBRANCH  52  55
ENDBRANCH  49  52
ENDBRANCH  47  49
BRANCH  47  72
ATOM     72  C24 non d ame     -36.501   8.685  30.190  0.00  0.00    -0.039 C 
ATOM     73  H35 non d ame     -36.260   9.440  29.442  0.00  0.00     0.036 H 
ATOM     74  H36 non d ame     -37.026   7.776  29.897  0.00  0.00     0.036 H 
BRANCH  72  75
ATOM     75  C25 non d ame     -37.388   9.401  31.316  0.00  0.00    -0.001 C 
ATOM     76  C26 non d ame     -38.828   8.623  31.473  0.00  0.00    -0.035 C 
ATOM     77  C27 non d ame     -39.828   9.533  31.391  0.00  0.00     0.085 C 
ATOM     78  H38 non d ame     -39.000   7.977  30.613  0.00  0.00     0.036 H 
ATOM     79  H39 non d ame     -38.929   8.224  32.483  0.00  0.00     0.036 H 
ATOM     80  N5  non d ame     -39.219  10.811  30.866  0.00  0.00    -0.049 N 
ATOM     81  H40 non d ame     -40.521   9.138  30.648  0.00  0.00     0.075 H 
ATOM     82  H41 non d ame     -40.160   9.694  32.416  0.00  0.00     0.075 H 
ATOM     83  C28 non d ame     -37.621  10.635  31.014  0.00  0.00     0.193 C 
ATOM     84  H42 non d ame     -39.448  10.854  29.883  0.00  0.00     0.280 HD
ATOM     85  H43 non d ame     -39.520  11.547  31.488  0.00  0.00     0.280 HD
ATOM     86  H44 non d ame     -37.079  11.140  31.813  0.00  0.00     0.129 H 
ATOM     87  H37 non d ame     -36.823   9.588  32.229  0.00  0.00     0.046 H 
BRANCH  83  88
ATOM     88  O6  non d ame     -36.968  11.025  29.804  0.00  0.00    -0.369 OA
ATOM     89  H45 non d ame     -37.599  11.461  29.226  0.00  0.00     0.212 HD
ENDBRANCH  83  88
ENDBRANCH  72  75
ENDBRANCH  47  72
ENDBRANCH  45  47
ENDBRANCH   1  43
BRANCH   1  90
ATOM     90  C16 non d ame     -32.039  12.151  29.992  0.00  0.00    -0.035 C 
ATOM     91  H21 non d ame     -32.901  12.468  30.579  0.00  0.00     0.037 H 
ATOM     92  H22 non d ame     -31.079  11.984  30.481  0.00  0.00     0.037 H 
BRANCH  90  93
ATOM     93  C17 non d ame     -31.803  13.264  28.922  0.00  0.00    -0.059 C 
ATOM     94  H23 non d ame     -32.156  12.882  27.964  0.00  0.00     0.038 H 
BRANCH  93  95
ATOM     95  C18 non d ame     -32.603  14.567  29.240  0.00  0.00    -0.073 C 
ATOM     96  H24 non d ame     -33.256  14.394  30.095  0.00  0.00     0.028 H 
ATOM     97  H25 non d ame     -31.908  15.374  29.473  0.00  0.00     0.028 H 
ATOM     98  H26 non d ame     -33.205  14.845  28.375  0.00  0.00     0.028 H 
ENDBRANCH  93  95
BRANCH  93  99
ATOM     99  C19 non d ame     -30.310  13.566  28.768  0.00  0.00    -0.073 C 
ATOM    100  H27 non d ame     -30.060  14.463  29.336  0.00  0.00     0.028 H 
ATOM    101  H28 non d ame     -29.728  12.725  29.145  0.00  0.00     0.028 H 
ATOM    102  H29 non d ame     -30.078  13.725  27.716  0.00  0.00     0.028 H 
ENDBRANCH  93  99
ENDBRANCH  90  93
ENDBRANCH   1  90
TORSDOF 26
ENDMDL
MODEL 20
REMARK VINA RESULT:      -5.9      2.002      7.598
REMARK  26 active torsions:
REMARK  status: ('A' for Active; 'I' for Inactive)
REMARK    1  A    between atoms: C2_2  and  C3_3 
REMARK    2  A    between atoms: C4_6  and  C5_7 
REMARK       I    between atoms: C5_7  and  N2_9 
REMARK    3  A    between atoms: N2_9  and  C6_10 
REMARK    4  A    between atoms: C6_10  and  C7_11 
REMARK    5  A    between atoms: C6_10  and  C8_13 
REMARK       I    between atoms: C7_11  and  N3_14 
REMARK    6  A    between atoms: N3_14  and  C9_15 
REMARK    7  A    between atoms: C9_15  and  C10_16 
REMARK    8  A    between atoms: C9_15  and  C11_18 
REMARK       I    between atoms: C10_16  and  N4_21 
REMARK    9  A    between atoms: C11_18  and  C12_19 
REMARK   10  A    between atoms: C11_18  and  C13_20 
REMARK   11  A    between atoms: N4_21  and  C14_22 
REMARK   12  A    between atoms: C14_22  and  C15_23 
REMARK   13  A    between atoms: C14_22  and  C16_25 
REMARK       I    between atoms: C15_23  and  N6_40 
REMARK   14  A    between atoms: C16_25  and  C17_26 
REMARK   15  A    between atoms: C17_26  and  C18_27 
REMARK   16  A    between atoms: C17_26  and  C19_28 
REMARK   17  A    between atoms: C20_29  and  C21_30 
REMARK   18  A    between atoms: C20_29  and  C24_33 
REMARK   19  A    between atoms: C20_29  and  N6_40 
REMARK   20  A    between atoms: C21_30  and  C22_31 
REMARK   21  A    between atoms: C22_31  and  C23_32 
REMARK   22  A    between atoms: C23_32  and  O8_43 
REMARK   23  A    between atoms: C24_33  and  C25_34 
REMARK   24  A    between atoms: C28_38  and  O6_39 
REMARK   25  A    between atoms: C29_42  and  O8_43 
REMARK   26  A    between atoms: C29_42  and  C35_49 
ROOT
ATOM      1  C14 non d ame     -35.468  10.086  29.624  0.00  0.00     0.089 C 
ATOM      2  H20 non d ame     -35.045   9.083  29.568  0.00  0.00     0.087 H 
ENDROOT
BRANCH   1   3
ATOM      3  N4  non d ame     -34.364  11.031  29.552  0.00  0.00    -0.346 N 
ATOM      4  C10 non d ame     -33.108  10.679  28.795  0.00  0.00     0.241 C 
ATOM      5  O4  non d ame     -33.008   9.627  28.255  0.00  0.00    -0.271 OA
ATOM      6  H19 non d ame     -34.468  11.921  30.020  0.00  0.00     0.163 HD
BRANCH   4   7
ATOM      7  C9  non d ame     -31.977  11.672  28.726  0.00  0.00     0.092 C 
ATOM      8  H11 non d ame     -31.054  11.147  28.478  0.00  0.00     0.088 H 
BRANCH   7   9
ATOM      9  N3  non d ame     -32.234  12.630  27.647  0.00  0.00    -0.346 N 
ATOM     10  C7  non d ame     -31.657  12.418  26.342  0.00  0.00     0.240 C 
ATOM     11  O3  non d ame     -30.983  11.482  26.143  0.00  0.00    -0.271 OA
ATOM     12  H10 non d ame     -32.812  13.443  27.803  0.00  0.00     0.163 HD
BRANCH  10  13
ATOM     13  C6  non d ame     -31.931  13.443  25.198  0.00  0.00     0.086 C 
ATOM     14  H6  non d ame     -32.846  13.226  24.648  0.00  0.00     0.086 H 
BRANCH  13  15
ATOM     15  N2  non d ame     -32.100  14.764  25.780  0.00  0.00    -0.343 N 
ATOM     16  C5  non d ame     -33.264  15.572  25.411  0.00  0.00     0.273 C 
ATOM     17  O2  non d ame     -34.058  15.151  24.643  0.00  0.00    -0.266 OA
ATOM     18  H5  non d ame     -31.415  15.117  26.434  0.00  0.00     0.163 HD
BRANCH  16  19
ATOM     19  C4  non d ame     -33.456  16.970  26.019  0.00  0.00     0.154 A 
ATOM     20  C1  non d ame     -32.545  17.676  26.869  0.00  0.00    -0.017 A 
ATOM     21  C2  non d ame     -33.186  18.903  27.148  0.00  0.00     0.077 A 
ATOM     22  H1  non d ame     -31.570  17.347  27.227  0.00  0.00     0.091 H 
ATOM     23  O1  non d ame     -34.329  18.894  26.527  0.00  0.00    -0.218 OA
ATOM     24  N1  non d ame     -34.509  17.776  25.861  0.00  0.00    -0.123 NA
BRANCH  21  25
ATOM     25  C3  non d ame     -32.639  20.029  28.016  0.00  0.00    -0.029 C 
ATOM     26  H2  non d ame     -33.225  20.932  27.851  0.00  0.00     0.036 H 
ATOM     27  H3  non d ame     -32.702  19.741  29.065  0.00  0.00     0.036 H 
ATOM     28  H4  non d ame     -31.599  20.218  27.753  0.00  0.00     0.036 H 
ENDBRANCH  21  25
ENDBRANCH  16  19
ENDBRANCH  13  15
BRANCH  13  29
ATOM     29  C8  non d ame     -30.772  13.447  24.234  0.00  0.00    -0.049 C 
ATOM     30  H7  non d ame     -29.919  12.945  24.690  0.00  0.00     0.030 H 
ATOM     31  H8  non d ame     -31.056  12.924  23.322  0.00  0.00     0.030 H 
ATOM     32  H9  non d ame     -30.502  14.476  23.995  0.00  0.00     0.030 H 
ENDBRANCH  13  29
ENDBRANCH  10  13
ENDBRANCH   7   9
BRANCH   7  33
ATOM     33  C11 non d ame     -31.872  12.434  30.079  0.00  0.00    -0.033 C 
ATOM     34  H12 non d ame     -32.840  12.357  30.575  0.00  0.00     0.042 H 
BRANCH  33  35
ATOM     35  C12 non d ame     -30.810  11.781  31.018  0.00  0.00    -0.071 C 
ATOM     36  H13 non d ame     -30.444  12.526  31.725  0.00  0.00     0.028 H 
ATOM     37  H14 non d ame     -31.267  10.956  31.563  0.00  0.00     0.028 H 
ATOM     38  H15 non d ame     -29.978  11.408  30.421  0.00  0.00     0.028 H 
ENDBRANCH  33  35
BRANCH  33  39
ATOM     39  C13 non d ame     -31.568  13.949  29.846  0.00  0.00    -0.071 C 
ATOM     40  H16 non d ame     -30.803  14.051  29.075  0.00  0.00     0.028 H 
ATOM     41  H17 non d ame     -32.477  14.457  29.525  0.00  0.00     0.028 H 
ATOM     42  H18 non d ame     -31.211  14.395  30.774  0.00  0.00     0.028 H 
ENDBRANCH  33  39
ENDBRANCH   7  33
ENDBRANCH   4   7
ENDBRANCH   1   3
BRANCH   1  43
ATOM     43  C15 non d ame     -36.447  10.377  28.451  0.00  0.00     0.240 C 
ATOM     44  O5  non d ame     -37.547  10.763  28.682  0.00  0.00    -0.271 OA
ATOM     45  N6  non d ame     -36.010  10.183  27.039  0.00  0.00    -0.355 N 
ATOM     46  H46 non d ame     -35.076   9.860  26.831  0.00  0.00     0.162 HD
BRANCH  45  47
ATOM     47  C20 non d ame     -36.952  10.465  25.935  0.00  0.00     0.013 C 
ATOM     48  H30 non d ame     -37.957  10.515  26.356  0.00  0.00     0.072 H 
BRANCH  47  49
ATOM     49  C21 non d ame     -36.875   9.351  24.915  0.00  0.00    -0.038 C 
ATOM     50  H31 non d ame     -37.584   8.594  25.251  0.00  0.00     0.036 H 
ATOM     51  H32 non d ame     -37.008   9.831  23.945  0.00  0.00     0.036 H 
BRANCH  49  52
ATOM     52  C22 non d ame     -35.491   8.668  24.878  0.00  0.00     0.018 C 
ATOM     53  H33 non d ame     -34.767   9.456  25.081  0.00  0.00     0.048 H 
ATOM     54  H34 non d ame     -35.566   7.811  25.547  0.00  0.00     0.048 H 
BRANCH  52  55
ATOM     55  C23 non d ame     -35.115   8.091  23.485  0.00  0.00     0.259 C 
ATOM     56  O7  non d ame     -35.818   7.295  22.952  0.00  0.00    -0.265 OA
BRANCH  55  57
ATOM     57  O8  non d ame     -33.911   8.515  22.857  0.00  0.00    -0.317 OA
BRANCH  57  58
ATOM     58  C29 non d ame     -33.001   9.185  23.734  0.00  0.00     0.052 C 
ATOM     59  H47 non d ame     -33.198  10.249  23.606  0.00  0.00     0.082 H 
ATOM     60  H48 non d ame     -33.136   8.719  24.710  0.00  0.00     0.082 H 
BRANCH  58  61
ATOM     61  C35 non d ame     -31.559   8.889  23.244  0.00  0.00    -0.034 A 
ATOM     62  C30 non d ame     -30.735   9.933  22.832  0.00  0.00    -0.075 A 
ATOM     63  C31 non d ame     -29.440   9.667  22.392  0.00  0.00    -0.082 A 
ATOM     64  H49 non d ame     -31.105  10.958  22.854  0.00  0.00     0.084 H 
ATOM     65  C32 non d ame     -28.968   8.352  22.362  0.00  0.00    -0.083 A 
ATOM     66  H50 non d ame     -28.796  10.487  22.072  0.00  0.00     0.083 H 
ATOM     67  C33 non d ame     -29.794   7.314  22.771  0.00  0.00    -0.082 A 
ATOM     68  H51 non d ame     -27.956   8.136  22.020  0.00  0.00     0.083 H 
ATOM     69  C34 non d ame     -31.089   7.575  23.213  0.00  0.00    -0.075 A 
ATOM     70  H52 non d ame     -29.424   6.289  22.744  0.00  0.00     0.083 H 
ATOM     71  H53 non d ame     -31.732   6.754  23.534  0.00  0.00     0.084 H 
ENDBRANCH  58  61
ENDBRANCH  57  58
ENDBRANCH  55  57
ENDBRANCH  52  55
ENDBRANCH  49  52
ENDBRANCH  47  49
BRANCH  47  72
ATOM     72  C24 non d ame     -36.588  11.791  25.271  0.00  0.00    -0.039 C 
ATOM     73  H35 non d ame     -35.539  11.961  25.518  0.00  0.00     0.036 H 
ATOM     74  H36 non d ame     -36.892  11.687  24.229  0.00  0.00     0.036 H 
BRANCH  72  75
ATOM     75  C25 non d ame     -37.422  13.012  25.888  0.00  0.00    -0.001 C 
ATOM     76  C26 non d ame     -38.055  13.926  24.676  0.00  0.00    -0.035 C 
ATOM     77  C27 non d ame     -37.730  15.223  24.893  0.00  0.00     0.085 C 
ATOM     78  H38 non d ame     -37.560  13.693  23.734  0.00  0.00     0.036 H 
ATOM     79  H39 non d ame     -39.144  13.923  24.735  0.00  0.00     0.036 H 
ATOM     80  N5  non d ame     -36.660  15.238  25.958  0.00  0.00    -0.049 N 
ATOM     81  H40 non d ame     -37.302  15.576  23.954  0.00  0.00     0.075 H 
ATOM     82  H41 non d ame     -38.632  15.687  25.289  0.00  0.00     0.075 H 
ATOM     83  C28 non d ame     -36.673  13.766  26.621  0.00  0.00     0.193 C 
ATOM     84  H42 non d ame     -35.781  15.367  25.479  0.00  0.00     0.280 HD
ATOM     85  H43 non d ame     -36.960  15.907  26.653  0.00  0.00     0.280 HD
ATOM     86  H44 non d ame     -37.126  13.604  27.599  0.00  0.00     0.129 H 
ATOM     87  H37 non d ame     -38.104  12.690  26.675  0.00  0.00     0.046 H 
BRANCH  83  88
ATOM     88  O6  non d ame     -35.341  13.262  26.729  0.00  0.00    -0.369 OA
ATOM     89  H45 non d ame     -34.734  13.866  26.294  0.00  0.00     0.212 HD
ENDBRANCH  83  88
ENDBRANCH  72  75
ENDBRANCH  47  72
ENDBRANCH  45  47
ENDBRANCH   1  43
BRANCH   1  90
ATOM     90  C16 non d ame     -36.190  10.268  30.950  0.00  0.00    -0.035 C 
ATOM     91  H21 non d ame     -35.860  11.235  31.328  0.00  0.00     0.037 H 
ATOM     92  H22 non d ame     -37.244  10.099  30.730  0.00  0.00     0.037 H 
BRANCH  90  93
ATOM     93  C17 non d ame     -35.791   9.213  32.030  0.00  0.00    -0.059 C 
ATOM     94  H23 non d ame     -36.701   8.707  32.351  0.00  0.00     0.038 H 
BRANCH  93  95
ATOM     95  C18 non d ame     -34.818   8.129  31.465  0.00  0.00    -0.073 C 
ATOM     96  H24 non d ame     -34.441   7.516  32.283  0.00  0.00     0.028 H 
ATOM     97  H25 non d ame     -35.350   7.497  30.755  0.00  0.00     0.028 H 
ATOM     98  H26 non d ame     -33.983   8.617  30.962  0.00  0.00     0.028 H 
ENDBRANCH  93  95
BRANCH  93  99
ATOM     99  C19 non d ame     -35.190   9.894  33.263  0.00  0.00    -0.073 C 
ATOM    100  H27 non d ame     -34.965  10.935  33.030  0.00  0.00     0.028 H 
ATOM    101  H28 non d ame     -35.904   9.852  34.086  0.00  0.00     0.028 H 
ATOM    102  H29 non d ame     -34.274   9.379  33.552  0.00  0.00     0.028 H 
ENDBRANCH  93  99
ENDBRANCH  90  93
ENDBRANCH   1  90
TORSDOF 26
ENDMDL
