MODEL 1
REMARK VINA RESULT:      -6.8      0.000      0.000
REMARK  26 active torsions:
REMARK  status: ('A' for Active; 'I' for Inactive)
REMARK    1  A    between atoms: C2_2  and  C3_3 
REMARK    2  A    between atoms: C4_6  and  C5_7 
REMARK       I    between atoms: C5_7  and  N2_9 
REMARK    3  A    between atoms: N2_9  and  C6_10 
REMARK    4  A    between atoms: C6_10  and  C7_11 
REMARK    5  A    between atoms: C6_10  and  C8_13 
REMARK       I    between atoms: C7_11  and  N3_14 
REMARK    6  A    between atoms: N3_14  and  C9_15 
REMARK    7  A    between atoms: C9_15  and  C10_16 
REMARK    8  A    between atoms: C9_15  and  C11_18 
REMARK       I    between atoms: C10_16  and  N4_21 
REMARK    9  A    between atoms: C11_18  and  C12_19 
REMARK   10  A    between atoms: C11_18  and  C13_20 
REMARK   11  A    between atoms: N4_21  and  C14_22 
REMARK   12  A    between atoms: C14_22  and  C15_23 
REMARK   13  A    between atoms: C14_22  and  C16_25 
REMARK       I    between atoms: C15_23  and  N6_40 
REMARK   14  A    between atoms: C16_25  and  C17_26 
REMARK   15  A    between atoms: C17_26  and  C18_27 
REMARK   16  A    between atoms: C17_26  and  C19_28 
REMARK   17  A    between atoms: C20_29  and  C21_30 
REMARK   18  A    between atoms: C20_29  and  C24_33 
REMARK   19  A    between atoms: C20_29  and  N6_40 
REMARK   20  A    between atoms: C21_30  and  C22_31 
REMARK   21  A    between atoms: C22_31  and  C23_32 
REMARK   22  A    between atoms: C23_32  and  O8_43 
REMARK   23  A    between atoms: C24_33  and  C25_34 
REMARK   24  A    between atoms: C28_38  and  O6_39 
REMARK   25  A    between atoms: C29_42  and  O8_43 
REMARK   26  A    between atoms: C29_42  and  C35_49 
ROOT
ATOM      1  C14 non d ame     -32.368   8.825  24.736  0.00  0.00     0.089 C 
ATOM      2  H20 non d ame     -31.323   8.537  24.849  0.00  0.00     0.087 H 
ENDROOT
BRANCH   1   3
ATOM      3  N4  non d ame     -33.166   7.609  24.789  0.00  0.00    -0.346 N 
ATOM      4  C10 non d ame     -32.497   6.258  24.782  0.00  0.00     0.241 C 
ATOM      5  O4  non d ame     -31.314   6.174  24.731  0.00  0.00    -0.271 OA
ATOM      6  H19 non d ame     -34.171   7.702  24.830  0.00  0.00     0.163 HD
BRANCH   4   7
ATOM      7  C9  non d ame     -33.338   5.010  24.843  0.00  0.00     0.092 C 
ATOM      8  H11 non d ame     -32.708   4.167  25.126  0.00  0.00     0.088 H 
BRANCH   7   9
ATOM      9  N3  non d ame     -34.358   5.158  25.885  0.00  0.00    -0.346 N 
ATOM     10  C7  non d ame     -34.199   4.483  27.150  0.00  0.00     0.240 C 
ATOM     11  O3  non d ame     -33.258   3.815  27.345  0.00  0.00    -0.271 OA
ATOM     12  H10 non d ame     -35.176   5.729  25.731  0.00  0.00     0.163 HD
BRANCH  10  13
ATOM     13  C6  non d ame     -35.290   4.642  28.254  0.00  0.00     0.086 C 
ATOM     14  H6  non d ame     -35.064   4.071  29.155  0.00  0.00     0.086 H 
BRANCH  13  15
ATOM     15  N2  non d ame     -35.357   6.038  28.653  0.00  0.00    -0.343 N 
ATOM     16  C5  non d ame     -35.173   6.395  30.061  0.00  0.00     0.273 C 
ATOM     17  O2  non d ame     -34.974   5.552  30.866  0.00  0.00    -0.266 OA
ATOM     18  H5  non d ame     -35.530   6.751  27.959  0.00  0.00     0.163 HD
BRANCH  16  19
ATOM     19  C4  non d ame     -35.240   7.867  30.497  0.00  0.00     0.154 A 
ATOM     20  C1  non d ame     -35.150   8.379  31.830  0.00  0.00    -0.017 A 
ATOM     21  C2  non d ame     -35.266   9.780  31.690  0.00  0.00     0.077 A 
ATOM     22  H1  non d ame     -35.020   7.820  32.757  0.00  0.00     0.091 H 
ATOM     23  O1  non d ame     -35.404  10.033  30.421  0.00  0.00    -0.218 OA
ATOM     24  N1  non d ame     -35.392   8.932  29.705  0.00  0.00    -0.123 NA
BRANCH  21  25
ATOM     25  C3  non d ame     -35.234  10.805  32.816  0.00  0.00    -0.029 C 
ATOM     26  H2  non d ame     -34.242  11.253  32.871  0.00  0.00     0.036 H 
ATOM     27  H3  non d ame     -35.973  11.582  32.621  0.00  0.00     0.036 H 
ATOM     28  H4  non d ame     -35.464  10.314  33.761  0.00  0.00     0.036 H 
ENDBRANCH  21  25
ENDBRANCH  16  19
ENDBRANCH  13  15
BRANCH  13  29
ATOM     29  C8  non d ame     -36.624   4.194  27.714  0.00  0.00    -0.049 C 
ATOM     30  H7  non d ame     -37.360   4.985  27.862  0.00  0.00     0.030 H 
ATOM     31  H8  non d ame     -36.532   3.978  26.650  0.00  0.00     0.030 H 
ATOM     32  H9  non d ame     -36.947   3.295  28.241  0.00  0.00     0.030 H 
ENDBRANCH  13  29
ENDBRANCH  10  13
ENDBRANCH   7   9
BRANCH   7  33
ATOM     33  C11 non d ame     -34.033   4.786  23.468  0.00  0.00    -0.033 C 
ATOM     34  H12 non d ame     -34.386   5.756  23.116  0.00  0.00     0.042 H 
BRANCH  33  35
ATOM     35  C12 non d ame     -33.030   4.239  22.406  0.00  0.00    -0.071 C 
ATOM     36  H13 non d ame     -32.013   4.325  22.788  0.00  0.00     0.028 H 
ATOM     37  H14 non d ame     -33.253   3.192  22.201  0.00  0.00     0.028 H 
ATOM     38  H15 non d ame     -33.122   4.817  21.487  0.00  0.00     0.028 H 
ENDBRANCH  33  35
BRANCH  33  39
ATOM     39  C13 non d ame     -35.272   3.845  23.615  0.00  0.00    -0.071 C 
ATOM     40  H16 non d ame     -34.935   2.834  23.844  0.00  0.00     0.028 H 
ATOM     41  H17 non d ame     -35.910   4.208  24.421  0.00  0.00     0.028 H 
ATOM     42  H18 non d ame     -35.836   3.839  22.682  0.00  0.00     0.028 H 
ENDBRANCH  33  39
ENDBRANCH   7  33
ENDBRANCH   4   7
ENDBRANCH   1   3
BRANCH   1  43
ATOM     43  C15 non d ame     -32.841   9.777  25.872  0.00  0.00     0.240 C 
ATOM     44  O5  non d ame     -33.439   9.338  26.801  0.00  0.00    -0.271 OA
ATOM     45  N6  non d ame     -32.540  11.236  25.806  0.00  0.00    -0.355 N 
ATOM     46  H46 non d ame     -32.029  11.620  25.025  0.00  0.00     0.162 HD
BRANCH  45  47
ATOM     47  C20 non d ame     -32.995  12.128  26.895  0.00  0.00     0.013 C 
ATOM     48  H30 non d ame     -33.476  11.511  27.655  0.00  0.00     0.072 H 
BRANCH  47  49
ATOM     49  C21 non d ame     -33.982  13.129  26.341  0.00  0.00    -0.038 C 
ATOM     50  H31 non d ame     -34.066  12.903  25.278  0.00  0.00     0.036 H 
ATOM     51  H32 non d ame     -34.861  13.062  26.983  0.00  0.00     0.036 H 
BRANCH  49  52
ATOM     52  C22 non d ame     -33.479  14.585  26.440  0.00  0.00     0.018 C 
ATOM     53  H33 non d ame     -34.071  15.050  27.227  0.00  0.00     0.048 H 
ATOM     54  H34 non d ame     -32.395  14.517  26.541  0.00  0.00     0.048 H 
BRANCH  52  55
ATOM     55  C23 non d ame     -33.737  15.426  25.158  0.00  0.00     0.259 C 
ATOM     56  O7  non d ame     -34.830  15.508  24.701  0.00  0.00    -0.265 OA
BRANCH  55  57
ATOM     57  O8  non d ame     -32.647  16.088  24.528  0.00  0.00    -0.317 OA
BRANCH  57  58
ATOM     58  C29 non d ame     -31.363  15.693  25.020  0.00  0.00     0.052 C 
ATOM     59  H47 non d ame     -30.805  16.619  25.162  0.00  0.00     0.082 H 
ATOM     60  H48 non d ame     -31.560  15.040  25.869  0.00  0.00     0.082 H 
BRANCH  58  61
ATOM     61  C35 non d ame     -30.661  14.861  23.913  0.00  0.00    -0.034 A 
ATOM     62  C30 non d ame     -29.852  15.492  22.975  0.00  0.00    -0.075 A 
ATOM     63  C31 non d ame     -29.222  14.745  21.981  0.00  0.00    -0.082 A 
ATOM     64  H49 non d ame     -29.711  16.573  23.017  0.00  0.00     0.084 H 
ATOM     65  C32 non d ame     -29.406  13.361  21.926  0.00  0.00    -0.083 A 
ATOM     66  H50 non d ame     -28.586  15.243  21.247  0.00  0.00     0.083 H 
ATOM     67  C33 non d ame     -30.217  12.736  22.863  0.00  0.00    -0.082 A 
ATOM     68  H51 non d ame     -28.916  12.769  21.153  0.00  0.00     0.083 H 
ATOM     69  C34 non d ame     -30.847  13.478  23.859  0.00  0.00    -0.075 A 
ATOM     70  H52 non d ame     -30.361  11.656  22.816  0.00  0.00     0.083 H 
ATOM     71  H53 non d ame     -31.482  12.980  24.592  0.00  0.00     0.084 H 
ENDBRANCH  58  61
ENDBRANCH  57  58
ENDBRANCH  55  57
ENDBRANCH  52  55
ENDBRANCH  49  52
ENDBRANCH  47  49
BRANCH  47  72
ATOM     72  C24 non d ame     -31.798  12.867  27.491  0.00  0.00    -0.039 C 
ATOM     73  H35 non d ame     -31.039  12.867  26.709  0.00  0.00     0.036 H 
ATOM     74  H36 non d ame     -32.197  13.811  27.863  0.00  0.00     0.036 H 
BRANCH  72  75
ATOM     75  C25 non d ame     -31.184  12.085  28.746  0.00  0.00    -0.001 C 
ATOM     76  C26 non d ame     -32.391  11.379  29.612  0.00  0.00    -0.035 C 
ATOM     77  C27 non d ame     -32.255  11.728  30.914  0.00  0.00     0.085 C 
ATOM     78  H38 non d ame     -33.352  11.809  29.332  0.00  0.00     0.036 H 
ATOM     79  H39 non d ame     -32.259  10.297  29.623  0.00  0.00     0.036 H 
ATOM     80  N5  non d ame     -31.264  12.866  30.965  0.00  0.00    -0.049 N 
ATOM     81  H40 non d ame     -33.235  12.095  31.221  0.00  0.00     0.075 H 
ATOM     82  H41 non d ame     -31.821  10.857  31.405  0.00  0.00     0.075 H 
ATOM     83  C28 non d ame     -30.536  12.886  29.525  0.00  0.00     0.193 C 
ATOM     84  H42 non d ame     -31.806  13.713  31.064  0.00  0.00     0.280 HD
ATOM     85  H43 non d ame     -30.582  12.619  31.668  0.00  0.00     0.280 HD
ATOM     86  H44 non d ame     -29.524  12.498  29.411  0.00  0.00     0.129 H 
ATOM     87  H37 non d ame     -30.340  11.454  28.467  0.00  0.00     0.046 H 
BRANCH  83  88
ATOM     88  O6  non d ame     -30.494  14.219  29.012  0.00  0.00    -0.369 OA
ATOM     89  H45 non d ame     -30.985  14.260  28.188  0.00  0.00     0.212 HD
ENDBRANCH  83  88
ENDBRANCH  72  75
ENDBRANCH  47  72
ENDBRANCH  45  47
ENDBRANCH   1  43
BRANCH   1  90
ATOM     90  C16 non d ame     -32.575   9.496  23.388  0.00  0.00    -0.035 C 
ATOM     91  H21 non d ame     -33.508   9.087  23.002  0.00  0.00     0.037 H 
ATOM     92  H22 non d ame     -32.488  10.566  23.581  0.00  0.00     0.037 H 
BRANCH  90  93
ATOM     93  C17 non d ame     -31.473   9.146  22.338  0.00  0.00    -0.059 C 
ATOM     94  H23 non d ame     -31.428   9.964  21.620  0.00  0.00     0.038 H 
BRANCH  93  95
ATOM     95  C18 non d ame     -30.060   9.007  22.990  0.00  0.00    -0.073 C 
ATOM     96  H24 non d ame     -30.165   8.935  24.073  0.00  0.00     0.028 H 
ATOM     97  H25 non d ame     -29.572   8.109  22.613  0.00  0.00     0.028 H 
ATOM     98  H26 non d ame     -29.458   9.880  22.741  0.00  0.00     0.028 H 
ENDBRANCH  93  95
BRANCH  93  99
ATOM     99  C19 non d ame     -31.841   7.879  21.561  0.00  0.00    -0.073 C 
ATOM    100  H27 non d ame     -32.905   7.674  21.682  0.00  0.00     0.028 H 
ATOM    101  H28 non d ame     -31.617   8.022  20.504  0.00  0.00     0.028 H 
ATOM    102  H29 non d ame     -31.263   7.038  21.943  0.00  0.00     0.028 H 
ENDBRANCH  93  99
ENDBRANCH  90  93
ENDBRANCH   1  90
TORSDOF 26
ENDMDL
MODEL 2
REMARK VINA RESULT:      -6.6      2.290      9.199
REMARK  26 active torsions:
REMARK  status: ('A' for Active; 'I' for Inactive)
REMARK    1  A    between atoms: C2_2  and  C3_3 
REMARK    2  A    between atoms: C4_6  and  C5_7 
REMARK       I    between atoms: C5_7  and  N2_9 
REMARK    3  A    between atoms: N2_9  and  C6_10 
REMARK    4  A    between atoms: C6_10  and  C7_11 
REMARK    5  A    between atoms: C6_10  and  C8_13 
REMARK       I    between atoms: C7_11  and  N3_14 
REMARK    6  A    between atoms: N3_14  and  C9_15 
REMARK    7  A    between atoms: C9_15  and  C10_16 
REMARK    8  A    between atoms: C9_15  and  C11_18 
REMARK       I    between atoms: C10_16  and  N4_21 
REMARK    9  A    between atoms: C11_18  and  C12_19 
REMARK   10  A    between atoms: C11_18  and  C13_20 
REMARK   11  A    between atoms: N4_21  and  C14_22 
REMARK   12  A    between atoms: C14_22  and  C15_23 
REMARK   13  A    between atoms: C14_22  and  C16_25 
REMARK       I    between atoms: C15_23  and  N6_40 
REMARK   14  A    between atoms: C16_25  and  C17_26 
REMARK   15  A    between atoms: C17_26  and  C18_27 
REMARK   16  A    between atoms: C17_26  and  C19_28 
REMARK   17  A    between atoms: C20_29  and  C21_30 
REMARK   18  A    between atoms: C20_29  and  C24_33 
REMARK   19  A    between atoms: C20_29  and  N6_40 
REMARK   20  A    between atoms: C21_30  and  C22_31 
REMARK   21  A    between atoms: C22_31  and  C23_32 
REMARK   22  A    between atoms: C23_32  and  O8_43 
REMARK   23  A    between atoms: C24_33  and  C25_34 
REMARK   24  A    between atoms: C28_38  and  O6_39 
REMARK   25  A    between atoms: C29_42  and  O8_43 
REMARK   26  A    between atoms: C29_42  and  C35_49 
ROOT
ATOM      1  C14 non d ame     -32.844  10.813  29.904  0.00  0.00     0.089 C 
ATOM      2  H20 non d ame     -31.819  10.477  29.745  0.00  0.00     0.087 H 
ENDROOT
BRANCH   1   3
ATOM      3  N4  non d ame     -33.463  10.966  28.596  0.00  0.00    -0.346 N 
ATOM      4  C10 non d ame     -32.610  11.076  27.357  0.00  0.00     0.241 C 
ATOM      5  O4  non d ame     -31.426  11.042  27.439  0.00  0.00    -0.271 OA
ATOM      6  H19 non d ame     -34.472  10.995  28.548  0.00  0.00     0.163 HD
BRANCH   4   7
ATOM      7  C9  non d ame     -33.267  11.228  26.011  0.00  0.00     0.092 C 
ATOM      8  H11 non d ame     -34.339  11.056  26.114  0.00  0.00     0.088 H 
BRANCH   7   9
ATOM      9  N3  non d ame     -33.092  12.602  25.533  0.00  0.00    -0.346 N 
ATOM     10  C7  non d ame     -33.737  13.692  26.223  0.00  0.00     0.240 C 
ATOM     11  O3  non d ame     -34.401  13.481  27.164  0.00  0.00    -0.271 OA
ATOM     12  H10 non d ame     -32.524  12.800  24.722  0.00  0.00     0.163 HD
BRANCH  10  13
ATOM     13  C6  non d ame     -33.550  15.153  25.709  0.00  0.00     0.086 C 
ATOM     14  H6  non d ame     -32.930  15.757  26.371  0.00  0.00     0.086 H 
BRANCH  13  15
ATOM     15  N2  non d ame     -32.872  15.117  24.423  0.00  0.00    -0.343 N 
ATOM     16  C5  non d ame     -31.558  15.748  24.282  0.00  0.00     0.273 C 
ATOM     17  O2  non d ame     -31.056  16.284  25.208  0.00  0.00    -0.266 OA
ATOM     18  H5  non d ame     -33.310  14.658  23.637  0.00  0.00     0.163 HD
BRANCH  16  19
ATOM     19  C4  non d ame     -30.829  15.715  22.930  0.00  0.00     0.154 A 
ATOM     20  C1  non d ame     -31.413  15.850  21.630  0.00  0.00    -0.017 A 
ATOM     21  C2  non d ame     -30.326  15.751  20.732  0.00  0.00     0.077 A 
ATOM     22  H1  non d ame     -32.463  15.997  21.377  0.00  0.00     0.091 H 
ATOM     23  O1  non d ame     -29.250  15.581  21.443  0.00  0.00    -0.218 OA
ATOM     24  N1  non d ame     -29.518  15.557  22.728  0.00  0.00    -0.123 NA
BRANCH  21  25
ATOM     25  C3  non d ame     -30.402  15.830  19.213  0.00  0.00    -0.029 C 
ATOM     26  H2  non d ame     -29.425  16.100  18.814  0.00  0.00     0.036 H 
ATOM     27  H3  non d ame     -30.702  14.861  18.814  0.00  0.00     0.036 H 
ATOM     28  H4  non d ame     -31.134  16.584  18.924  0.00  0.00     0.036 H 
ENDBRANCH  21  25
ENDBRANCH  16  19
ENDBRANCH  13  15
BRANCH  13  29
ATOM     29  C8  non d ame     -34.897  15.815  25.564  0.00  0.00    -0.049 C 
ATOM     30  H7  non d ame     -34.770  16.806  25.129  0.00  0.00     0.030 H 
ATOM     31  H8  non d ame     -35.529  15.211  24.913  0.00  0.00     0.030 H 
ATOM     32  H9  non d ame     -35.364  15.906  26.544  0.00  0.00     0.030 H 
ENDBRANCH  13  29
ENDBRANCH  10  13
ENDBRANCH   7   9
BRANCH   7  33
ATOM     33  C11 non d ame     -32.612  10.242  24.999  0.00  0.00    -0.033 C 
ATOM     34  H12 non d ame     -32.156   9.436  25.574  0.00  0.00     0.042 H 
BRANCH  33  35
ATOM     35  C12 non d ame     -33.678   9.602  24.057  0.00  0.00    -0.071 C 
ATOM     36  H13 non d ame     -33.198   8.866  23.412  0.00  0.00     0.028 H 
ATOM     37  H14 non d ame     -34.446   9.114  24.656  0.00  0.00     0.028 H 
ATOM     38  H15 non d ame     -34.134  10.379  23.443  0.00  0.00     0.028 H 
ENDBRANCH  33  35
BRANCH  33  39
ATOM     39  C13 non d ame     -31.484  10.950  24.181  0.00  0.00    -0.071 C 
ATOM     40  H16 non d ame     -30.511  10.676  24.591  0.00  0.00     0.028 H 
ATOM     41  H17 non d ame     -31.540  10.636  23.138  0.00  0.00     0.028 H 
ATOM     42  H18 non d ame     -31.614  12.030  24.242  0.00  0.00     0.028 H 
ENDBRANCH  33  39
ENDBRANCH   7  33
ENDBRANCH   4   7
ENDBRANCH   1   3
BRANCH   1  43
ATOM     43  C15 non d ame     -33.676   9.790  30.729  0.00  0.00     0.240 C 
ATOM     44  O5  non d ame     -33.962  10.034  31.857  0.00  0.00    -0.271 OA
ATOM     45  N6  non d ame     -34.123   8.509  30.111  0.00  0.00    -0.355 N 
ATOM     46  H46 non d ame     -33.890   8.293  29.153  0.00  0.00     0.162 HD
BRANCH  45  47
ATOM     47  C20 non d ame     -34.914   7.548  30.909  0.00  0.00     0.013 C 
ATOM     48  H30 non d ame     -34.349   7.314  31.811  0.00  0.00     0.072 H 
BRANCH  47  49
ATOM     49  C21 non d ame     -35.137   6.291  30.099  0.00  0.00    -0.038 C 
ATOM     50  H31 non d ame     -34.594   5.503  30.621  0.00  0.00     0.036 H 
ATOM     51  H32 non d ame     -36.217   6.214  29.966  0.00  0.00     0.036 H 
BRANCH  49  52
ATOM     52  C22 non d ame     -34.528   6.375  28.682  0.00  0.00     0.018 C 
ATOM     53  H33 non d ame     -35.355   6.199  27.995  0.00  0.00     0.048 H 
ATOM     54  H34 non d ame     -33.984   7.319  28.650  0.00  0.00     0.048 H 
BRANCH  52  55
ATOM     55  C23 non d ame     -33.481   5.266  28.384  0.00  0.00     0.259 C 
ATOM     56  O7  non d ame     -33.670   4.147  28.736  0.00  0.00    -0.265 OA
BRANCH  55  57
ATOM     57  O8  non d ame     -32.284   5.606  27.695  0.00  0.00    -0.317 OA
BRANCH  57  58
ATOM     58  C29 non d ame     -32.374   6.810  26.929  0.00  0.00     0.052 C 
ATOM     59  H47 non d ame     -33.257   7.331  27.301  0.00  0.00     0.082 H 
ATOM     60  H48 non d ame     -31.394   7.281  27.001  0.00  0.00     0.082 H 
BRANCH  58  61
ATOM     61  C35 non d ame     -32.623   6.419  25.448  0.00  0.00    -0.034 A 
ATOM     62  C30 non d ame     -31.560   6.376  24.551  0.00  0.00    -0.075 A 
ATOM     63  C31 non d ame     -31.783   6.025  23.221  0.00  0.00    -0.082 A 
ATOM     64  H49 non d ame     -30.553   6.619  24.890  0.00  0.00     0.084 H 
ATOM     65  C32 non d ame     -33.076   5.717  22.787  0.00  0.00    -0.083 A 
ATOM     66  H50 non d ame     -30.948   5.991  22.520  0.00  0.00     0.083 H 
ATOM     67  C33 non d ame     -34.133   5.763  23.685  0.00  0.00    -0.082 A 
ATOM     68  H51 non d ame     -33.259   5.440  21.749  0.00  0.00     0.083 H 
ATOM     69  C34 non d ame     -33.915   6.112  25.016  0.00  0.00    -0.075 A 
ATOM     70  H52 non d ame     -35.141   5.525  23.344  0.00  0.00     0.083 H 
ATOM     71  H53 non d ame     -34.750   6.146  25.716  0.00  0.00     0.084 H 
ENDBRANCH  58  61
ENDBRANCH  57  58
ENDBRANCH  55  57
ENDBRANCH  52  55
ENDBRANCH  49  52
ENDBRANCH  47  49
BRANCH  47  72
ATOM     72  C24 non d ame     -36.263   8.166  31.273  0.00  0.00    -0.039 C 
ATOM     73  H35 non d ame     -36.728   7.460  31.962  0.00  0.00     0.036 H 
ATOM     74  H36 non d ame     -36.038   9.180  31.603  0.00  0.00     0.036 H 
BRANCH  72  75
ATOM     75  C25 non d ame     -37.224   8.285  29.997  0.00  0.00    -0.001 C 
ATOM     76  C26 non d ame     -37.343   9.858  29.531  0.00  0.00    -0.035 C 
ATOM     77  C27 non d ame     -38.653  10.181  29.416  0.00  0.00     0.085 C 
ATOM     78  H38 non d ame     -36.988  10.512  30.327  0.00  0.00     0.036 H 
ATOM     79  H39 non d ame     -36.961   9.977  28.517  0.00  0.00     0.036 H 
ATOM     80  N5  non d ame     -39.440   9.075  30.075  0.00  0.00    -0.049 N 
ATOM     81  H40 non d ame     -38.778  11.098  29.991  0.00  0.00     0.075 H 
ATOM     82  H41 non d ame     -38.861  10.176  28.346  0.00  0.00     0.075 H 
ATOM     83  C28 non d ame     -38.409   7.847  30.262  0.00  0.00     0.193 C 
ATOM     84  H42 non d ame     -39.704   9.416  30.989  0.00  0.00     0.280 HD
ATOM     85  H43 non d ame     -40.153   8.799  29.414  0.00  0.00     0.280 HD
ATOM     86  H44 non d ame     -38.453   6.981  29.601  0.00  0.00     0.129 H 
ATOM     87  H37 non d ame     -36.978   7.556  29.225  0.00  0.00     0.046 H 
BRANCH  83  88
ATOM     88  O6  non d ame     -38.505   7.320  31.587  0.00  0.00    -0.369 OA
ATOM     89  H45 non d ame     -39.323   6.823  31.675  0.00  0.00     0.212 HD
ENDBRANCH  83  88
ENDBRANCH  72  75
ENDBRANCH  47  72
ENDBRANCH  45  47
ENDBRANCH   1  43
BRANCH   1  90
ATOM     90  C16 non d ame     -32.841  12.159  30.611  0.00  0.00    -0.035 C 
ATOM     91  H21 non d ame     -33.431  12.820  29.977  0.00  0.00     0.037 H 
ATOM     92  H22 non d ame     -33.164  11.950  31.631  0.00  0.00     0.037 H 
BRANCH  90  93
ATOM     93  C17 non d ame     -31.423  12.805  30.722  0.00  0.00    -0.059 C 
ATOM     94  H23 non d ame     -31.387  13.366  31.656  0.00  0.00     0.038 H 
BRANCH  93  95
ATOM     95  C18 non d ame     -30.288  11.733  30.766  0.00  0.00    -0.073 C 
ATOM     96  H24 non d ame     -30.061  11.402  29.753  0.00  0.00     0.028 H 
ATOM     97  H25 non d ame     -29.395  12.167  31.215  0.00  0.00     0.028 H 
ATOM     98  H26 non d ame     -30.616  10.881  31.361  0.00  0.00     0.028 H 
ENDBRANCH  93  95
BRANCH  93  99
ATOM     99  C19 non d ame     -31.187  13.802  29.584  0.00  0.00    -0.073 C 
ATOM    100  H27 non d ame     -31.732  14.723  29.788  0.00  0.00     0.028 H 
ATOM    101  H28 non d ame     -30.121  14.020  29.507  0.00  0.00     0.028 H 
ATOM    102  H29 non d ame     -31.537  13.372  28.646  0.00  0.00     0.028 H 
ENDBRANCH  93  99
ENDBRANCH  90  93
ENDBRANCH   1  90
TORSDOF 26
ENDMDL
MODEL 3
REMARK VINA RESULT:      -6.3      2.465      8.709
REMARK  26 active torsions:
REMARK  status: ('A' for Active; 'I' for Inactive)
REMARK    1  A    between atoms: C2_2  and  C3_3 
REMARK    2  A    between atoms: C4_6  and  C5_7 
REMARK       I    between atoms: C5_7  and  N2_9 
REMARK    3  A    between atoms: N2_9  and  C6_10 
REMARK    4  A    between atoms: C6_10  and  C7_11 
REMARK    5  A    between atoms: C6_10  and  C8_13 
REMARK       I    between atoms: C7_11  and  N3_14 
REMARK    6  A    between atoms: N3_14  and  C9_15 
REMARK    7  A    between atoms: C9_15  and  C10_16 
REMARK    8  A    between atoms: C9_15  and  C11_18 
REMARK       I    between atoms: C10_16  and  N4_21 
REMARK    9  A    between atoms: C11_18  and  C12_19 
REMARK   10  A    between atoms: C11_18  and  C13_20 
REMARK   11  A    between atoms: N4_21  and  C14_22 
REMARK   12  A    between atoms: C14_22  and  C15_23 
REMARK   13  A    between atoms: C14_22  and  C16_25 
REMARK       I    between atoms: C15_23  and  N6_40 
REMARK   14  A    between atoms: C16_25  and  C17_26 
REMARK   15  A    between atoms: C17_26  and  C18_27 
REMARK   16  A    between atoms: C17_26  and  C19_28 
REMARK   17  A    between atoms: C20_29  and  C21_30 
REMARK   18  A    between atoms: C20_29  and  C24_33 
REMARK   19  A    between atoms: C20_29  and  N6_40 
REMARK   20  A    between atoms: C21_30  and  C22_31 
REMARK   21  A    between atoms: C22_31  and  C23_32 
REMARK   22  A    between atoms: C23_32  and  O8_43 
REMARK   23  A    between atoms: C24_33  and  C25_34 
REMARK   24  A    between atoms: C28_38  and  O6_39 
REMARK   25  A    between atoms: C29_42  and  O8_43 
REMARK   26  A    between atoms: C29_42  and  C35_49 
ROOT
ATOM      1  C14 non d ame     -34.846   7.626  29.158  0.00  0.00     0.089 C 
ATOM      2  H20 non d ame     -34.482   6.600  29.222  0.00  0.00     0.087 H 
ENDROOT
BRANCH   1   3
ATOM      3  N4  non d ame     -33.685   8.502  29.144  0.00  0.00    -0.346 N 
ATOM      4  C10 non d ame     -33.847   9.977  28.873  0.00  0.00     0.241 C 
ATOM      5  O4  non d ame     -34.922  10.435  28.666  0.00  0.00    -0.271 OA
ATOM      6  H19 non d ame     -32.778   8.093  29.320  0.00  0.00     0.163 HD
BRANCH   4   7
ATOM      7  C9  non d ame     -32.634  10.871  28.868  0.00  0.00     0.092 C 
ATOM      8  H11 non d ame     -31.856  10.414  28.257  0.00  0.00     0.088 H 
BRANCH   7   9
ATOM      9  N3  non d ame     -32.976  12.154  28.247  0.00  0.00    -0.346 N 
ATOM     10  C7  non d ame     -32.072  12.760  27.300  0.00  0.00     0.240 C 
ATOM     11  O3  non d ame     -31.065  12.228  27.027  0.00  0.00    -0.271 OA
ATOM     12  H10 non d ame     -33.840  12.625  28.474  0.00  0.00     0.163 HD
BRANCH  10  13
ATOM     13  C6  non d ame     -32.439  14.127  26.645  0.00  0.00     0.086 C 
ATOM     14  H6  non d ame     -32.008  14.977  27.174  0.00  0.00     0.086 H 
BRANCH  13  15
ATOM     15  N2  non d ame     -31.903  14.163  25.295  0.00  0.00    -0.343 N 
ATOM     16  C5  non d ame     -31.180  15.352  24.837  0.00  0.00     0.273 C 
ATOM     17  O2  non d ame     -31.039  16.275  25.561  0.00  0.00    -0.266 OA
ATOM     18  H5  non d ame     -32.031  13.370  24.682  0.00  0.00     0.163 HD
BRANCH  16  19
ATOM     19  C4  non d ame     -30.606  15.402  23.412  0.00  0.00     0.154 A 
ATOM     20  C1  non d ame     -31.339  15.521  22.189  0.00  0.00    -0.017 A 
ATOM     21  C2  non d ame     -30.355  15.522  21.175  0.00  0.00     0.077 A 
ATOM     22  H1  non d ame     -32.418  15.594  22.057  0.00  0.00     0.091 H 
ATOM     23  O1  non d ame     -29.197  15.418  21.759  0.00  0.00    -0.218 OA
ATOM     24  N1  non d ame     -29.318  15.346  23.064  0.00  0.00    -0.123 NA
BRANCH  21  25
ATOM     25  C3  non d ame     -30.605  15.627  19.676  0.00  0.00    -0.029 C 
ATOM     26  H2  non d ame     -31.623  15.310  19.454  0.00  0.00     0.036 H 
ATOM     27  H3  non d ame     -30.470  16.661  19.357  0.00  0.00     0.036 H 
ATOM     28  H4  non d ame     -29.900  14.988  19.144  0.00  0.00     0.036 H 
ENDBRANCH  21  25
ENDBRANCH  16  19
ENDBRANCH  13  15
BRANCH  13  29
ATOM     29  C8  non d ame     -33.938  14.284  26.610  0.00  0.00    -0.049 C 
ATOM     30  H7  non d ame     -34.399  13.323  26.381  0.00  0.00     0.030 H 
ATOM     31  H8  non d ame     -34.290  14.633  27.580  0.00  0.00     0.030 H 
ATOM     32  H9  non d ame     -34.210  15.009  25.842  0.00  0.00     0.030 H 
ENDBRANCH  13  29
ENDBRANCH  10  13
ENDBRANCH   7   9
BRANCH   7  33
ATOM     33  C11 non d ame     -32.163  11.114  30.331  0.00  0.00    -0.033 C 
ATOM     34  H12 non d ame     -31.776  10.170  30.713  0.00  0.00     0.042 H 
BRANCH  33  35
ATOM     35  C12 non d ame     -31.002  12.155  30.389  0.00  0.00    -0.071 C 
ATOM     36  H13 non d ame     -31.030  12.781  29.497  0.00  0.00     0.028 H 
ATOM     37  H14 non d ame     -31.117  12.779  31.275  0.00  0.00     0.028 H 
ATOM     38  H15 non d ame     -30.047  11.631  30.434  0.00  0.00     0.028 H 
ENDBRANCH  33  35
BRANCH  33  39
ATOM     39  C13 non d ame     -33.359  11.549  31.239  0.00  0.00    -0.071 C 
ATOM     40  H16 non d ame     -33.154  11.262  32.271  0.00  0.00     0.028 H 
ATOM     41  H17 non d ame     -33.485  12.630  31.180  0.00  0.00     0.028 H 
ATOM     42  H18 non d ame     -34.270  11.058  30.898  0.00  0.00     0.028 H 
ENDBRANCH  33  39
ENDBRANCH   7  33
ENDBRANCH   4   7
ENDBRANCH   1   3
BRANCH   1  43
ATOM     43  C15 non d ame     -35.672   7.877  27.864  0.00  0.00     0.240 C 
ATOM     44  O5  non d ame     -36.787   8.283  27.944  0.00  0.00    -0.271 OA
ATOM     45  N6  non d ame     -35.071   7.619  26.525  0.00  0.00    -0.355 N 
ATOM     46  H46 non d ame     -34.124   7.279  26.444  0.00  0.00     0.162 HD
BRANCH  45  47
ATOM     47  C20 non d ame     -35.869   7.864  25.304  0.00  0.00     0.013 C 
ATOM     48  H30 non d ame     -36.923   7.840  25.581  0.00  0.00     0.072 H 
BRANCH  47  49
ATOM     49  C21 non d ame     -35.577   6.781  24.290  0.00  0.00    -0.038 C 
ATOM     50  H31 non d ame     -36.443   6.118  24.310  0.00  0.00     0.036 H 
ATOM     51  H32 non d ame     -35.310   7.303  23.371  0.00  0.00     0.036 H 
BRANCH  49  52
ATOM     52  C22 non d ame     -34.356   5.916  24.672  0.00  0.00     0.018 C 
ATOM     53  H33 non d ame     -34.054   6.253  25.663  0.00  0.00     0.048 H 
ATOM     54  H34 non d ame     -34.667   4.882  24.519  0.00  0.00     0.048 H 
BRANCH  52  55
ATOM     55  C23 non d ame     -33.123   6.134  23.752  0.00  0.00     0.259 C 
ATOM     56  O7  non d ame     -32.121   5.520  23.931  0.00  0.00    -0.265 OA
BRANCH  55  57
ATOM     57  O8  non d ame     -33.199   7.085  22.697  0.00  0.00    -0.317 OA
BRANCH  57  58
ATOM     58  C29 non d ame     -31.950   7.336  22.047  0.00  0.00     0.052 C 
ATOM     59  H47 non d ame     -31.271   6.562  22.406  0.00  0.00     0.082 H 
ATOM     60  H48 non d ame     -32.180   7.410  20.985  0.00  0.00     0.082 H 
BRANCH  58  61
ATOM     61  C35 non d ame     -31.425   8.713  22.533  0.00  0.00    -0.034 A 
ATOM     62  C30 non d ame     -30.231   9.221  22.030  0.00  0.00    -0.075 A 
ATOM     63  C31 non d ame     -29.760  10.458  22.466  0.00  0.00    -0.082 A 
ATOM     64  H49 non d ame     -29.665   8.649  21.294  0.00  0.00     0.084 H 
ATOM     65  C32 non d ame     -30.485  11.187  23.412  0.00  0.00    -0.083 A 
ATOM     66  H50 non d ame     -28.825  10.854  22.069  0.00  0.00     0.083 H 
ATOM     67  C33 non d ame     -31.674  10.675  23.914  0.00  0.00    -0.082 A 
ATOM     68  H51 non d ame     -30.124  12.155  23.758  0.00  0.00     0.083 H 
ATOM     69  C34 non d ame     -32.150   9.440  23.479  0.00  0.00    -0.075 A 
ATOM     70  H52 non d ame     -32.237  11.245  24.654  0.00  0.00     0.083 H 
ATOM     71  H53 non d ame     -33.085   9.045  23.877  0.00  0.00     0.084 H 
ENDBRANCH  58  61
ENDBRANCH  57  58
ENDBRANCH  55  57
ENDBRANCH  52  55
ENDBRANCH  49  52
ENDBRANCH  47  49
BRANCH  47  72
ATOM     72  C24 non d ame     -35.506   9.226  24.714  0.00  0.00    -0.039 C 
ATOM     73  H35 non d ame     -34.594   9.530  25.228  0.00  0.00     0.036 H 
ATOM     74  H36 non d ame     -35.500   9.081  23.634  0.00  0.00     0.036 H 
BRANCH  72  75
ATOM     75  C25 non d ame     -36.622  10.328  25.038  0.00  0.00    -0.001 C 
ATOM     76  C26 non d ame     -37.420  10.739  23.660  0.00  0.00    -0.035 C 
ATOM     77  C27 non d ame     -37.417  12.088  23.540  0.00  0.00     0.085 C 
ATOM     78  H38 non d ame     -36.858  10.404  22.789  0.00  0.00     0.036 H 
ATOM     79  H39 non d ame     -38.478  10.494  23.753  0.00  0.00     0.036 H 
ATOM     80  N5  non d ame     -36.412  12.618  24.534  0.00  0.00    -0.049 N 
ATOM     81  H40 non d ame     -37.059  12.290  22.530  0.00  0.00     0.075 H 
ATOM     82  H41 non d ame     -38.414  12.409  23.838  0.00  0.00     0.075 H 
ATOM     83  C28 non d ame     -36.094  11.395  25.539  0.00  0.00     0.193 C 
ATOM     84  H42 non d ame     -35.574  12.828  24.009  0.00  0.00     0.280 HD
ATOM     85  H43 non d ame     -36.880  13.347  25.052  0.00  0.00     0.280 HD
ATOM     86  H44 non d ame     -36.523  11.376  26.541  0.00  0.00     0.129 H 
ATOM     87  H37 non d ame     -37.231  10.059  25.902  0.00  0.00     0.046 H 
BRANCH  83  88
ATOM     88  O6  non d ame     -34.684  11.262  25.724  0.00  0.00    -0.369 OA
ATOM     89  H45 non d ame     -34.274  12.130  25.691  0.00  0.00     0.212 HD
ENDBRANCH  83  88
ENDBRANCH  72  75
ENDBRANCH  47  72
ENDBRANCH  45  47
ENDBRANCH   1  43
BRANCH   1  90
ATOM     90  C16 non d ame     -35.696   7.947  30.377  0.00  0.00    -0.035 C 
ATOM     91  H21 non d ame     -35.065   8.569  31.013  0.00  0.00     0.037 H 
ATOM     92  H22 non d ame     -36.630   8.345  29.981  0.00  0.00     0.037 H 
BRANCH  90  93
ATOM     93  C17 non d ame     -36.074   6.692  31.226  0.00  0.00    -0.059 C 
ATOM     94  H23 non d ame     -36.222   7.020  32.255  0.00  0.00     0.038 H 
BRANCH  93  95
ATOM     95  C18 non d ame     -37.405   6.032  30.741  0.00  0.00    -0.073 C 
ATOM     96  H24 non d ame     -38.213   6.762  30.793  0.00  0.00     0.028 H 
ATOM     97  H25 non d ame     -37.289   5.693  29.712  0.00  0.00     0.028 H 
ATOM     98  H26 non d ame     -37.642   5.181  31.379  0.00  0.00     0.028 H 
ENDBRANCH  93  95
BRANCH  93  99
ATOM     99  C19 non d ame     -34.932   5.672  31.233  0.00  0.00    -0.073 C 
ATOM    100  H27 non d ame     -34.000   6.168  30.962  0.00  0.00     0.028 H 
ATOM    101  H28 non d ame     -34.837   5.240  32.230  0.00  0.00     0.028 H 
ATOM    102  H29 non d ame     -35.146   4.882  30.515  0.00  0.00     0.028 H 
ENDBRANCH  93  99
ENDBRANCH  90  93
ENDBRANCH   1  90
TORSDOF 26
ENDMDL
MODEL 4
REMARK VINA RESULT:      -6.2      3.127      6.085
REMARK  26 active torsions:
REMARK  status: ('A' for Active; 'I' for Inactive)
REMARK    1  A    between atoms: C2_2  and  C3_3 
REMARK    2  A    between atoms: C4_6  and  C5_7 
REMARK       I    between atoms: C5_7  and  N2_9 
REMARK    3  A    between atoms: N2_9  and  C6_10 
REMARK    4  A    between atoms: C6_10  and  C7_11 
REMARK    5  A    between atoms: C6_10  and  C8_13 
REMARK       I    between atoms: C7_11  and  N3_14 
REMARK    6  A    between atoms: N3_14  and  C9_15 
REMARK    7  A    between atoms: C9_15  and  C10_16 
REMARK    8  A    between atoms: C9_15  and  C11_18 
REMARK       I    between atoms: C10_16  and  N4_21 
REMARK    9  A    between atoms: C11_18  and  C12_19 
REMARK   10  A    between atoms: C11_18  and  C13_20 
REMARK   11  A    between atoms: N4_21  and  C14_22 
REMARK   12  A    between atoms: C14_22  and  C15_23 
REMARK   13  A    between atoms: C14_22  and  C16_25 
REMARK       I    between atoms: C15_23  and  N6_40 
REMARK   14  A    between atoms: C16_25  and  C17_26 
REMARK   15  A    between atoms: C17_26  and  C18_27 
REMARK   16  A    between atoms: C17_26  and  C19_28 
REMARK   17  A    between atoms: C20_29  and  C21_30 
REMARK   18  A    between atoms: C20_29  and  C24_33 
REMARK   19  A    between atoms: C20_29  and  N6_40 
REMARK   20  A    between atoms: C21_30  and  C22_31 
REMARK   21  A    between atoms: C22_31  and  C23_32 
REMARK   22  A    between atoms: C23_32  and  O8_43 
REMARK   23  A    between atoms: C24_33  and  C25_34 
REMARK   24  A    between atoms: C28_38  and  O6_39 
REMARK   25  A    between atoms: C29_42  and  O8_43 
REMARK   26  A    between atoms: C29_42  and  C35_49 
ROOT
ATOM      1  C14 non d ame     -31.898  12.308  27.541  0.00  0.00     0.089 C 
ATOM      2  H20 non d ame     -32.907  12.314  27.954  0.00  0.00     0.087 H 
ENDROOT
BRANCH   1   3
ATOM      3  N4  non d ame     -31.791  11.154  26.662  0.00  0.00    -0.346 N 
ATOM      4  C10 non d ame     -32.899  10.132  26.608  0.00  0.00     0.241 C 
ATOM      5  O4  non d ame     -33.867  10.260  27.283  0.00  0.00    -0.271 OA
ATOM      6  H19 non d ame     -30.959  11.062  26.097  0.00  0.00     0.163 HD
BRANCH   4   7
ATOM      7  C9  non d ame     -32.774   8.946  25.688  0.00  0.00     0.092 C 
ATOM      8  H11 non d ame     -31.738   8.609  25.676  0.00  0.00     0.088 H 
BRANCH   7   9
ATOM      9  N3  non d ame     -33.585   7.839  26.205  0.00  0.00    -0.346 N 
ATOM     10  C7  non d ame     -32.981   6.837  27.048  0.00  0.00     0.240 C 
ATOM     11  O3  non d ame     -31.844   6.905  27.320  0.00  0.00    -0.271 OA
ATOM     12  H10 non d ame     -34.566   7.766  25.978  0.00  0.00     0.163 HD
BRANCH  10  13
ATOM     13  C6  non d ame     -33.848   5.659  27.593  0.00  0.00     0.086 C 
ATOM     14  H6  non d ame     -33.320   5.052  28.328  0.00  0.00     0.086 H 
BRANCH  13  15
ATOM     15  N2  non d ame     -35.015   6.205  28.265  0.00  0.00    -0.343 N 
ATOM     16  C5  non d ame     -35.283   5.837  29.657  0.00  0.00     0.273 C 
ATOM     17  O2  non d ame     -34.556   5.099  30.226  0.00  0.00    -0.266 OA
ATOM     18  H5  non d ame     -35.633   6.833  27.770  0.00  0.00     0.163 HD
BRANCH  16  19
ATOM     19  C4  non d ame     -36.513   6.408  30.381  0.00  0.00     0.154 A 
ATOM     20  C1  non d ame     -36.954   7.769  30.395  0.00  0.00    -0.017 A 
ATOM     21  C2  non d ame     -38.118   7.766  31.195  0.00  0.00     0.077 A 
ATOM     22  H1  non d ame     -36.498   8.627  29.901  0.00  0.00     0.091 H 
ATOM     23  O1  non d ame     -38.315   6.541  31.587  0.00  0.00    -0.218 OA
ATOM     24  N1  non d ame     -37.392   5.731  31.125  0.00  0.00    -0.123 NA
BRANCH  21  25
ATOM     25  C3  non d ame     -38.983   8.973  31.533  0.00  0.00    -0.029 C 
ATOM     26  H2  non d ame     -39.641   9.196  30.694  0.00  0.00     0.036 H 
ATOM     27  H3  non d ame     -39.582   8.754  32.416  0.00  0.00     0.036 H 
ATOM     28  H4  non d ame     -38.344   9.834  31.732  0.00  0.00     0.036 H 
ENDBRANCH  21  25
ENDBRANCH  16  19
ENDBRANCH  13  15
BRANCH  13  29
ATOM     29  C8  non d ame     -34.276   4.776  26.448  0.00  0.00    -0.049 C 
ATOM     30  H7  non d ame     -33.886   3.770  26.601  0.00  0.00     0.030 H 
ATOM     31  H8  non d ame     -35.364   4.741  26.405  0.00  0.00     0.030 H 
ATOM     32  H9  non d ame     -33.887   5.179  25.513  0.00  0.00     0.030 H 
ENDBRANCH  13  29
ENDBRANCH  10  13
ENDBRANCH   7   9
BRANCH   7  33
ATOM     33  C11 non d ame     -33.279   9.336  24.268  0.00  0.00    -0.033 C 
ATOM     34  H12 non d ame     -33.841  10.265  24.362  0.00  0.00     0.042 H 
BRANCH  33  35
ATOM     35  C12 non d ame     -32.089   9.605  23.295  0.00  0.00    -0.071 C 
ATOM     36  H13 non d ame     -31.227   9.011  23.602  0.00  0.00     0.028 H 
ATOM     37  H14 non d ame     -32.378   9.329  22.282  0.00  0.00     0.028 H 
ATOM     38  H15 non d ame     -31.828  10.663  23.324  0.00  0.00     0.028 H 
ENDBRANCH  33  35
BRANCH  33  39
ATOM     39  C13 non d ame     -34.241   8.245  23.697  0.00  0.00    -0.071 C 
ATOM     40  H16 non d ame     -35.241   8.664  23.587  0.00  0.00     0.028 H 
ATOM     41  H17 non d ame     -33.877   7.912  22.724  0.00  0.00     0.028 H 
ATOM     42  H18 non d ame     -34.275   7.397  24.381  0.00  0.00     0.028 H 
ENDBRANCH  33  39
ENDBRANCH   7  33
ENDBRANCH   4   7
ENDBRANCH   1   3
BRANCH   1  43
ATOM     43  C15 non d ame     -31.595  13.591  26.714  0.00  0.00     0.240 C 
ATOM     44  O5  non d ame     -30.473  13.963  26.591  0.00  0.00    -0.271 OA
ATOM     45  N6  non d ame     -32.703  14.349  26.067  0.00  0.00    -0.355 N 
ATOM     46  H46 non d ame     -33.660  14.040  26.160  0.00  0.00     0.162 HD
BRANCH  45  47
ATOM     47  C20 non d ame     -32.399  15.565  25.282  0.00  0.00     0.013 C 
ATOM     48  H30 non d ame     -31.436  15.949  25.619  0.00  0.00     0.072 H 
BRANCH  47  49
ATOM     49  C21 non d ame     -33.478  16.597  25.520  0.00  0.00    -0.038 C 
ATOM     50  H31 non d ame     -33.574  17.145  24.583  0.00  0.00     0.036 H 
ATOM     51  H32 non d ame     -34.329  16.045  25.920  0.00  0.00     0.036 H 
BRANCH  49  52
ATOM     52  C22 non d ame     -33.088  17.635  26.595  0.00  0.00     0.018 C 
ATOM     53  H33 non d ame     -32.129  17.305  26.990  0.00  0.00     0.048 H 
ATOM     54  H34 non d ame     -33.172  18.608  26.109  0.00  0.00     0.048 H 
BRANCH  52  55
ATOM     55  C23 non d ame     -34.059  17.677  27.807  0.00  0.00     0.259 C 
ATOM     56  O7  non d ame     -34.436  16.670  28.313  0.00  0.00    -0.265 OA
BRANCH  55  57
ATOM     57  O8  non d ame     -34.505  18.935  28.300  0.00  0.00    -0.317 OA
BRANCH  57  58
ATOM     58  C29 non d ame     -34.335  20.015  27.378  0.00  0.00     0.052 C 
ATOM     59  H47 non d ame     -34.089  20.885  27.986  0.00  0.00     0.082 H 
ATOM     60  H48 non d ame     -33.628  19.656  26.630  0.00  0.00     0.082 H 
BRANCH  58  61
ATOM     61  C35 non d ame     -35.698  20.271  26.683  0.00  0.00    -0.034 A 
ATOM     62  C30 non d ame     -36.700  20.969  27.349  0.00  0.00    -0.075 A 
ATOM     63  C31 non d ame     -37.925  21.199  26.725  0.00  0.00    -0.082 A 
ATOM     64  H49 non d ame     -36.525  21.336  28.361  0.00  0.00     0.084 H 
ATOM     65  C32 non d ame     -38.148  20.725  25.429  0.00  0.00    -0.083 A 
ATOM     66  H50 non d ame     -38.707  21.748  27.249  0.00  0.00     0.083 H 
ATOM     67  C33 non d ame     -37.146  20.025  24.770  0.00  0.00    -0.082 A 
ATOM     68  H51 non d ame     -39.102  20.901  24.934  0.00  0.00     0.083 H 
ATOM     69  C34 non d ame     -35.920  19.795  25.389  0.00  0.00    -0.075 A 
ATOM     70  H52 non d ame     -37.324  19.655  23.760  0.00  0.00     0.083 H 
ATOM     71  H53 non d ame     -35.138  19.246  24.864  0.00  0.00     0.084 H 
ENDBRANCH  58  61
ENDBRANCH  57  58
ENDBRANCH  55  57
ENDBRANCH  52  55
ENDBRANCH  49  52
ENDBRANCH  47  49
BRANCH  47  72
ATOM     72  C24 non d ame     -32.342  15.220  23.796  0.00  0.00    -0.039 C 
ATOM     73  H35 non d ame     -32.551  14.152  23.738  0.00  0.00     0.036 H 
ATOM     74  H36 non d ame     -33.007  15.933  23.307  0.00  0.00     0.036 H 
BRANCH  72  75
ATOM     75  C25 non d ame     -30.877  15.448  23.190  0.00  0.00    -0.001 C 
ATOM     76  C26 non d ame     -30.985  16.194  21.728  0.00  0.00    -0.035 C 
ATOM     77  C27 non d ame     -30.263  15.489  20.824  0.00  0.00     0.085 C 
ATOM     78  H38 non d ame     -32.004  16.126  21.349  0.00  0.00     0.036 H 
ATOM     79  H39 non d ame     -30.479  17.159  21.762  0.00  0.00     0.036 H 
ATOM     80  N5  non d ame     -29.941  14.158  21.458  0.00  0.00    -0.049 N 
ATOM     81  H40 non d ame     -30.932  15.329  19.979  0.00  0.00     0.075 H 
ATOM     82  H41 non d ame     -29.339  16.051  20.689  0.00  0.00     0.075 H 
ATOM     83  C28 non d ame     -30.256  14.327  23.032  0.00  0.00     0.193 C 
ATOM     84  H42 non d ame     -30.593  13.491  21.069  0.00  0.00     0.280 HD
ATOM     85  H43 non d ame     -28.947  14.019  21.342  0.00  0.00     0.280 HD
ATOM     86  H44 non d ame     -29.444  14.447  23.749  0.00  0.00     0.129 H 
ATOM     87  H37 non d ame     -30.192  15.882  23.918  0.00  0.00     0.046 H 
BRANCH  83  88
ATOM     88  O6  non d ame     -31.022  13.216  23.504  0.00  0.00    -0.369 OA
ATOM     89  H45 non d ame     -30.630  12.878  24.312  0.00  0.00     0.212 HD
ENDBRANCH  83  88
ENDBRANCH  72  75
ENDBRANCH  47  72
ENDBRANCH  45  47
ENDBRANCH   1  43
BRANCH   1  90
ATOM     90  C16 non d ame     -30.882  12.173  28.664  0.00  0.00    -0.035 C 
ATOM     91  H21 non d ame     -30.782  11.101  28.834  0.00  0.00     0.037 H 
ATOM     92  H22 non d ame     -30.019  12.757  28.344  0.00  0.00     0.037 H 
BRANCH  90  93
ATOM     93  C17 non d ame     -31.357  12.792  30.017  0.00  0.00    -0.059 C 
ATOM     94  H23 non d ame     -30.722  12.389  30.806  0.00  0.00     0.038 H 
BRANCH  93  95
ATOM     95  C18 non d ame     -31.212  14.347  30.036  0.00  0.00    -0.073 C 
ATOM     96  H24 non d ame     -31.543  14.755  29.082  0.00  0.00     0.028 H 
ATOM     97  H25 non d ame     -31.824  14.759  30.839  0.00  0.00     0.028 H 
ATOM     98  H26 non d ame     -30.169  14.613  30.203  0.00  0.00     0.028 H 
ENDBRANCH  93  95
BRANCH  93  99
ATOM     99  C19 non d ame     -32.796  12.375  30.333  0.00  0.00    -0.073 C 
ATOM    100  H27 non d ame     -33.133  11.645  29.597  0.00  0.00     0.028 H 
ATOM    101  H28 non d ame     -32.836  11.931  31.328  0.00  0.00     0.028 H 
ATOM    102  H29 non d ame     -33.444  13.250  30.301  0.00  0.00     0.028 H 
ENDBRANCH  93  99
ENDBRANCH  90  93
ENDBRANCH   1  90
TORSDOF 26
ENDMDL
MODEL 5
REMARK VINA RESULT:      -6.0      2.819      4.312
REMARK  26 active torsions:
REMARK  status: ('A' for Active; 'I' for Inactive)
REMARK    1  A    between atoms: C2_2  and  C3_3 
REMARK    2  A    between atoms: C4_6  and  C5_7 
REMARK       I    between atoms: C5_7  and  N2_9 
REMARK    3  A    between atoms: N2_9  and  C6_10 
REMARK    4  A    between atoms: C6_10  and  C7_11 
REMARK    5  A    between atoms: C6_10  and  C8_13 
REMARK       I    between atoms: C7_11  and  N3_14 
REMARK    6  A    between atoms: N3_14  and  C9_15 
REMARK    7  A    between atoms: C9_15  and  C10_16 
REMARK    8  A    between atoms: C9_15  and  C11_18 
REMARK       I    between atoms: C10_16  and  N4_21 
REMARK    9  A    between atoms: C11_18  and  C12_19 
REMARK   10  A    between atoms: C11_18  and  C13_20 
REMARK   11  A    between atoms: N4_21  and  C14_22 
REMARK   12  A    between atoms: C14_22  and  C15_23 
REMARK   13  A    between atoms: C14_22  and  C16_25 
REMARK       I    between atoms: C15_23  and  N6_40 
REMARK   14  A    between atoms: C16_25  and  C17_26 
REMARK   15  A    between atoms: C17_26  and  C18_27 
REMARK   16  A    between atoms: C17_26  and  C19_28 
REMARK   17  A    between atoms: C20_29  and  C21_30 
REMARK   18  A    between atoms: C20_29  and  C24_33 
REMARK   19  A    between atoms: C20_29  and  N6_40 
REMARK   20  A    between atoms: C21_30  and  C22_31 
REMARK   21  A    between atoms: C22_31  and  C23_32 
REMARK   22  A    between atoms: C23_32  and  O8_43 
REMARK   23  A    between atoms: C24_33  and  C25_34 
REMARK   24  A    between atoms: C28_38  and  O6_39 
REMARK   25  A    between atoms: C29_42  and  O8_43 
REMARK   26  A    between atoms: C29_42  and  C35_49 
ROOT
ATOM      1  C14 non d ame     -35.455  10.202  25.258  0.00  0.00     0.089 C 
ATOM      2  H20 non d ame     -35.351  10.545  24.228  0.00  0.00     0.087 H 
ENDROOT
BRANCH   1   3
ATOM      3  N4  non d ame     -34.734   8.943  25.375  0.00  0.00    -0.346 N 
ATOM      4  C10 non d ame     -33.410   8.755  24.677  0.00  0.00     0.241 C 
ATOM      5  O4  non d ame     -32.947   9.631  24.024  0.00  0.00    -0.271 OA
ATOM      6  H19 non d ame     -35.147   8.209  25.933  0.00  0.00     0.163 HD
BRANCH   4   7
ATOM      7  C9  non d ame     -32.675   7.448  24.814  0.00  0.00     0.092 C 
ATOM      8  H11 non d ame     -31.691   7.633  25.244  0.00  0.00     0.088 H 
BRANCH   7   9
ATOM      9  N3  non d ame     -33.398   6.575  25.745  0.00  0.00    -0.346 N 
ATOM     10  C7  non d ame     -32.826   6.263  27.031  0.00  0.00     0.240 C 
ATOM     11  O3  non d ame     -31.784   6.704  27.333  0.00  0.00    -0.271 OA
ATOM     12  H10 non d ame     -34.296   6.186  25.497  0.00  0.00     0.163 HD
BRANCH  10  13
ATOM     13  C6  non d ame     -33.598   5.332  28.016  0.00  0.00     0.086 C 
ATOM     14  H6  non d ame     -32.989   4.503  28.378  0.00  0.00     0.086 H 
BRANCH  13  15
ATOM     15  N2  non d ame     -33.989   6.102  29.185  0.00  0.00    -0.343 N 
ATOM     16  C5  non d ame     -34.808   7.304  29.015  0.00  0.00     0.273 C 
ATOM     17  O2  non d ame     -35.144   7.645  27.934  0.00  0.00    -0.266 OA
ATOM     18  H5  non d ame     -33.695   5.805  30.105  0.00  0.00     0.163 HD
BRANCH  16  19
ATOM     19  C4  non d ame     -35.230   8.128  30.242  0.00  0.00     0.154 A 
ATOM     20  C1  non d ame     -34.606   9.314  30.744  0.00  0.00    -0.017 A 
ATOM     21  C2  non d ame     -35.370   9.675  31.876  0.00  0.00     0.077 A 
ATOM     22  H1  non d ame     -33.733   9.833  30.347  0.00  0.00     0.091 H 
ATOM     23  O1  non d ame     -36.320   8.795  32.000  0.00  0.00    -0.218 OA
ATOM     24  N1  non d ame     -36.259   7.881  31.058  0.00  0.00    -0.123 NA
BRANCH  21  25
ATOM     25  C3  non d ame     -35.127  10.875  32.782  0.00  0.00    -0.029 C 
ATOM     26  H2  non d ame     -34.808  10.529  33.765  0.00  0.00     0.036 H 
ATOM     27  H3  non d ame     -34.351  11.505  32.349  0.00  0.00     0.036 H 
ATOM     28  H4  non d ame     -36.048  11.449  32.880  0.00  0.00     0.036 H 
ENDBRANCH  21  25
ENDBRANCH  16  19
ENDBRANCH  13  15
BRANCH  13  29
ATOM     29  C8  non d ame     -34.821   4.775  27.331  0.00  0.00    -0.049 C 
ATOM     30  H7  non d ame     -34.977   5.296  26.387  0.00  0.00     0.030 H 
ATOM     31  H8  non d ame     -34.677   3.712  27.140  0.00  0.00     0.030 H 
ATOM     32  H9  non d ame     -35.691   4.915  27.972  0.00  0.00     0.030 H 
ENDBRANCH  13  29
ENDBRANCH  10  13
ENDBRANCH   7   9
BRANCH   7  33
ATOM     33  C11 non d ame     -32.585   6.756  23.422  0.00  0.00    -0.033 C 
ATOM     34  H12 non d ame     -33.099   7.394  22.704  0.00  0.00     0.042 H 
BRANCH  33  35
ATOM     35  C12 non d ame     -31.104   6.617  22.951  0.00  0.00    -0.071 C 
ATOM     36  H13 non d ame     -30.614   7.590  23.001  0.00  0.00     0.028 H 
ATOM     37  H14 non d ame     -30.581   5.914  23.598  0.00  0.00     0.028 H 
ATOM     38  H15 non d ame     -31.082   6.253  21.924  0.00  0.00     0.028 H 
ENDBRANCH  33  35
BRANCH  33  39
ATOM     39  C13 non d ame     -33.305   5.369  23.440  0.00  0.00    -0.071 C 
ATOM     40  H16 non d ame     -34.361   5.511  23.672  0.00  0.00     0.028 H 
ATOM     41  H17 non d ame     -33.208   4.897  22.461  0.00  0.00     0.028 H 
ATOM     42  H18 non d ame     -32.849   4.732  24.196  0.00  0.00     0.028 H 
ENDBRANCH  33  39
ENDBRANCH   7  33
ENDBRANCH   4   7
ENDBRANCH   1   3
BRANCH   1  43
ATOM     43  C15 non d ame     -34.855  11.212  26.277  0.00  0.00     0.240 C 
ATOM     44  O5  non d ame     -35.279  11.254  27.387  0.00  0.00    -0.271 OA
ATOM     45  N6  non d ame     -33.746  12.122  25.872  0.00  0.00    -0.355 N 
ATOM     46  H46 non d ame     -33.375  12.093  24.934  0.00  0.00     0.162 HD
BRANCH  45  47
ATOM     47  C20 non d ame     -33.186  13.077  26.853  0.00  0.00     0.013 C 
ATOM     48  H30 non d ame     -33.623  12.853  27.826  0.00  0.00     0.072 H 
BRANCH  47  49
ATOM     49  C21 non d ame     -33.543  14.487  26.439  0.00  0.00    -0.038 C 
ATOM     50  H31 non d ame     -32.601  15.037  26.425  0.00  0.00     0.036 H 
ATOM     51  H32 non d ame     -34.128  14.385  25.524  0.00  0.00     0.036 H 
BRANCH  49  52
ATOM     52  C22 non d ame     -34.452  15.201  27.462  0.00  0.00     0.018 C 
ATOM     53  H33 non d ame     -35.153  15.790  26.873  0.00  0.00     0.048 H 
ATOM     54  H34 non d ame     -34.820  14.418  28.126  0.00  0.00     0.048 H 
BRANCH  52  55
ATOM     55  C23 non d ame     -33.698  16.213  28.370  0.00  0.00     0.259 C 
ATOM     56  O7  non d ame     -32.812  15.849  29.072  0.00  0.00    -0.265 OA
BRANCH  55  57
ATOM     57  O8  non d ame     -34.089  17.580  28.362  0.00  0.00    -0.317 OA
BRANCH  57  58
ATOM     58  C29 non d ame     -33.657  18.303  27.205  0.00  0.00     0.052 C 
ATOM     59  H47 non d ame     -32.874  18.976  27.554  0.00  0.00     0.082 H 
ATOM     60  H48 non d ame     -33.431  17.547  26.453  0.00  0.00     0.082 H 
BRANCH  58  61
ATOM     61  C35 non d ame     -34.850  19.156  26.700  0.00  0.00    -0.034 A 
ATOM     62  C30 non d ame     -35.389  18.923  25.438  0.00  0.00    -0.075 A 
ATOM     63  C31 non d ame     -36.461  19.690  24.984  0.00  0.00    -0.082 A 
ATOM     64  H49 non d ame     -34.971  18.140  24.805  0.00  0.00     0.084 H 
ATOM     65  C32 non d ame     -36.993  20.696  25.796  0.00  0.00    -0.083 A 
ATOM     66  H50 non d ame     -36.882  19.504  23.996  0.00  0.00     0.083 H 
ATOM     67  C33 non d ame     -36.450  20.927  27.053  0.00  0.00    -0.082 A 
ATOM     68  H51 non d ame     -37.831  21.300  25.449  0.00  0.00     0.083 H 
ATOM     69  C34 non d ame     -35.380  20.161  27.511  0.00  0.00    -0.075 A 
ATOM     70  H52 non d ame     -36.866  21.714  27.683  0.00  0.00     0.083 H 
ATOM     71  H53 non d ame     -34.960  20.348  28.500  0.00  0.00     0.084 H 
ENDBRANCH  58  61
ENDBRANCH  57  58
ENDBRANCH  55  57
ENDBRANCH  52  55
ENDBRANCH  49  52
ENDBRANCH  47  49
BRANCH  47  72
ATOM     72  C24 non d ame     -31.667  12.930  26.908  0.00  0.00    -0.039 C 
ATOM     73  H35 non d ame     -31.421  12.182  26.153  0.00  0.00     0.036 H 
ATOM     74  H36 non d ame     -31.274  13.943  26.819  0.00  0.00     0.036 H 
BRANCH  72  75
ATOM     75  C25 non d ame     -31.177  12.355  28.320  0.00  0.00    -0.001 C 
ATOM     76  C26 non d ame     -32.478  11.953  29.242  0.00  0.00    -0.035 C 
ATOM     77  C27 non d ame     -32.349  12.536  30.458  0.00  0.00     0.085 C 
ATOM     78  H38 non d ame     -33.380  12.409  28.835  0.00  0.00     0.036 H 
ATOM     79  H39 non d ame     -32.461  10.886  29.469  0.00  0.00     0.036 H 
ATOM     80  N5  non d ame     -31.248  13.562  30.340  0.00  0.00    -0.049 N 
ATOM     81  H40 non d ame     -33.294  13.048  30.637  0.00  0.00     0.075 H 
ATOM     82  H41 non d ame     -32.024  11.742  31.129  0.00  0.00     0.075 H 
ATOM     83  C28 non d ame     -30.475  13.228  28.962  0.00  0.00     0.193 C 
ATOM     84  H42 non d ame     -31.701  14.459  30.246  0.00  0.00     0.280 HD
ATOM     85  H43 non d ame     -30.617  13.394  31.111  0.00  0.00     0.280 HD
ATOM     86  H44 non d ame     -29.506  12.730  28.978  0.00  0.00     0.129 H 
ATOM     87  H37 non d ame     -30.395  11.604  28.212  0.00  0.00     0.046 H 
BRANCH  83  88
ATOM     88  O6  non d ame     -30.279  14.424  28.205  0.00  0.00    -0.369 OA
ATOM     89  H45 non d ame     -30.405  14.236  27.272  0.00  0.00     0.212 HD
ENDBRANCH  83  88
ENDBRANCH  72  75
ENDBRANCH  47  72
ENDBRANCH  45  47
ENDBRANCH   1  43
BRANCH   1  90
ATOM     90  C16 non d ame     -36.922   9.964  25.576  0.00  0.00    -0.035 C 
ATOM     91  H21 non d ame     -37.066   8.888  25.488  0.00  0.00     0.037 H 
ATOM     92  H22 non d ame     -37.095  10.461  26.531  0.00  0.00     0.037 H 
BRANCH  90  93
ATOM     93  C17 non d ame     -37.900  10.625  24.553  0.00  0.00    -0.059 C 
ATOM     94  H23 non d ame     -38.894  10.217  24.735  0.00  0.00     0.038 H 
BRANCH  93  95
ATOM     95  C18 non d ame     -37.981  12.175  24.730  0.00  0.00    -0.073 C 
ATOM     96  H24 non d ame     -37.313  12.657  24.018  0.00  0.00     0.028 H 
ATOM     97  H25 non d ame     -39.003  12.508  24.553  0.00  0.00     0.028 H 
ATOM     98  H26 non d ame     -37.683  12.440  25.745  0.00  0.00     0.028 H 
ENDBRANCH  93  95
BRANCH  93  99
ATOM     99  C19 non d ame     -37.516  10.260  23.116  0.00  0.00    -0.073 C 
ATOM    100  H27 non d ame     -38.399   9.911  22.581  0.00  0.00     0.028 H 
ATOM    101  H28 non d ame     -37.111  11.139  22.614  0.00  0.00     0.028 H 
ATOM    102  H29 non d ame     -36.763   9.472  23.130  0.00  0.00     0.028 H 
ENDBRANCH  93  99
ENDBRANCH  90  93
ENDBRANCH   1  90
TORSDOF 26
ENDMDL
MODEL 6
REMARK VINA RESULT:      -6.0      2.813      7.772
REMARK  26 active torsions:
REMARK  status: ('A' for Active; 'I' for Inactive)
REMARK    1  A    between atoms: C2_2  and  C3_3 
REMARK    2  A    between atoms: C4_6  and  C5_7 
REMARK       I    between atoms: C5_7  and  N2_9 
REMARK    3  A    between atoms: N2_9  and  C6_10 
REMARK    4  A    between atoms: C6_10  and  C7_11 
REMARK    5  A    between atoms: C6_10  and  C8_13 
REMARK       I    between atoms: C7_11  and  N3_14 
REMARK    6  A    between atoms: N3_14  and  C9_15 
REMARK    7  A    between atoms: C9_15  and  C10_16 
REMARK    8  A    between atoms: C9_15  and  C11_18 
REMARK       I    between atoms: C10_16  and  N4_21 
REMARK    9  A    between atoms: C11_18  and  C12_19 
REMARK   10  A    between atoms: C11_18  and  C13_20 
REMARK   11  A    between atoms: N4_21  and  C14_22 
REMARK   12  A    between atoms: C14_22  and  C15_23 
REMARK   13  A    between atoms: C14_22  and  C16_25 
REMARK       I    between atoms: C15_23  and  N6_40 
REMARK   14  A    between atoms: C16_25  and  C17_26 
REMARK   15  A    between atoms: C17_26  and  C18_27 
REMARK   16  A    between atoms: C17_26  and  C19_28 
REMARK   17  A    between atoms: C20_29  and  C21_30 
REMARK   18  A    between atoms: C20_29  and  C24_33 
REMARK   19  A    between atoms: C20_29  and  N6_40 
REMARK   20  A    between atoms: C21_30  and  C22_31 
REMARK   21  A    between atoms: C22_31  and  C23_32 
REMARK   22  A    between atoms: C23_32  and  O8_43 
REMARK   23  A    between atoms: C24_33  and  C25_34 
REMARK   24  A    between atoms: C28_38  and  O6_39 
REMARK   25  A    between atoms: C29_42  and  O8_43 
REMARK   26  A    between atoms: C29_42  and  C35_49 
ROOT
ATOM      1  C14 non d ame     -35.381  11.155  26.929  0.00  0.00     0.089 C 
ATOM      2  H20 non d ame     -36.232  11.069  26.254  0.00  0.00     0.087 H 
ENDROOT
BRANCH   1   3
ATOM      3  N4  non d ame     -34.526   9.999  26.707  0.00  0.00    -0.346 N 
ATOM      4  C10 non d ame     -35.096   8.730  26.126  0.00  0.00     0.241 C 
ATOM      5  O4  non d ame     -36.248   8.662  25.848  0.00  0.00    -0.271 OA
ATOM      6  H19 non d ame     -33.549  10.077  26.952  0.00  0.00     0.163 HD
BRANCH   4   7
ATOM      7  C9  non d ame     -34.195   7.545  25.897  0.00  0.00     0.092 C 
ATOM      8  H11 non d ame     -34.713   6.817  25.272  0.00  0.00     0.088 H 
BRANCH   7   9
ATOM      9  N3  non d ame     -33.001   7.974  25.163  0.00  0.00    -0.346 N 
ATOM     10  C7  non d ame     -32.950   7.839  23.728  0.00  0.00     0.240 C 
ATOM     11  O3  non d ame     -33.861   7.387  23.148  0.00  0.00    -0.271 OA
ATOM     12  H10 non d ame     -32.207   8.364  25.650  0.00  0.00     0.163 HD
BRANCH  10  13
ATOM     13  C6  non d ame     -31.675   8.294  22.952  0.00  0.00     0.086 C 
ATOM     14  H6  non d ame     -31.754   8.131  21.878  0.00  0.00     0.086 H 
BRANCH  13  15
ATOM     15  N2  non d ame     -31.492   9.723  23.144  0.00  0.00    -0.343 N 
ATOM     16  C5  non d ame     -30.345  10.393  22.526  0.00  0.00     0.273 C 
ATOM     17  O2  non d ame     -29.574   9.772  21.879  0.00  0.00    -0.266 OA
ATOM     18  H5  non d ame     -32.154  10.245  23.700  0.00  0.00     0.163 HD
BRANCH  16  19
ATOM     19  C4  non d ame     -30.140  11.903  22.719  0.00  0.00     0.154 A 
ATOM     20  C1  non d ame     -29.323  12.773  21.928  0.00  0.00    -0.017 A 
ATOM     21  C2  non d ame     -29.478  14.049  22.514  0.00  0.00     0.077 A 
ATOM     22  H1  non d ame     -28.711  12.517  21.063  0.00  0.00     0.091 H 
ATOM     23  O1  non d ame     -30.292  13.917  23.520  0.00  0.00    -0.218 OA
ATOM     24  N1  non d ame     -30.691  12.674  23.660  0.00  0.00    -0.123 NA
BRANCH  21  25
ATOM     25  C3  non d ame     -28.816  15.340  22.051  0.00  0.00    -0.029 C 
ATOM     26  H2  non d ame     -28.733  15.337  20.965  0.00  0.00     0.036 H 
ATOM     27  H3  non d ame     -29.419  16.191  22.366  0.00  0.00     0.036 H 
ATOM     28  H4  non d ame     -27.822  15.417  22.491  0.00  0.00     0.036 H 
ENDBRANCH  21  25
ENDBRANCH  16  19
ENDBRANCH  13  15
BRANCH  13  29
ATOM     29  C8  non d ame     -30.474   7.546  23.472  0.00  0.00    -0.049 C 
ATOM     30  H7  non d ame     -30.566   7.415  24.550  0.00  0.00     0.030 H 
ATOM     31  H8  non d ame     -30.419   6.569  22.991  0.00  0.00     0.030 H 
ATOM     32  H9  non d ame     -29.569   8.112  23.250  0.00  0.00     0.030 H 
ENDBRANCH  13  29
ENDBRANCH  10  13
ENDBRANCH   7   9
BRANCH   7  33
ATOM     33  C11 non d ame     -33.770   6.944  27.268  0.00  0.00    -0.033 C 
ATOM     34  H12 non d ame     -33.496   7.773  27.920  0.00  0.00     0.042 H 
BRANCH  33  35
ATOM     35  C12 non d ame     -34.953   6.185  27.948  0.00  0.00    -0.071 C 
ATOM     36  H13 non d ame     -35.887   6.449  27.451  0.00  0.00     0.028 H 
ATOM     37  H14 non d ame     -34.789   5.111  27.867  0.00  0.00     0.028 H 
ATOM     38  H15 non d ame     -35.009   6.467  28.999  0.00  0.00     0.028 H 
ENDBRANCH  33  35
BRANCH  33  39
ATOM     39  C13 non d ame     -32.520   6.019  27.111  0.00  0.00    -0.071 C 
ATOM     40  H16 non d ame     -32.571   5.212  27.842  0.00  0.00     0.028 H 
ATOM     41  H17 non d ame     -32.504   5.599  26.105  0.00  0.00     0.028 H 
ATOM     42  H18 non d ame     -31.614   6.603  27.274  0.00  0.00     0.028 H 
ENDBRANCH  33  39
ENDBRANCH   7  33
ENDBRANCH   4   7
ENDBRANCH   1   3
BRANCH   1  43
ATOM     43  C15 non d ame     -34.550  12.444  26.666  0.00  0.00     0.240 C 
ATOM     44  O5  non d ame     -33.854  12.513  25.705  0.00  0.00    -0.271 OA
ATOM     45  N6  non d ame     -34.630  13.597  27.608  0.00  0.00    -0.355 N 
ATOM     46  H46 non d ame     -35.221  13.552  28.425  0.00  0.00     0.162 HD
BRANCH  45  47
ATOM     47  C20 non d ame     -33.835  14.816  27.343  0.00  0.00     0.013 C 
ATOM     48  H30 non d ame     -33.813  14.974  26.265  0.00  0.00     0.072 H 
BRANCH  47  49
ATOM     49  C21 non d ame     -32.429  14.619  27.865  0.00  0.00    -0.038 C 
ATOM     50  H31 non d ame     -31.927  13.991  27.129  0.00  0.00     0.036 H 
ATOM     51  H32 non d ame     -32.052  15.620  28.076  0.00  0.00     0.036 H 
BRANCH  49  52
ATOM     52  C22 non d ame     -32.389  13.845  29.200  0.00  0.00     0.018 C 
ATOM     53  H33 non d ame     -31.778  14.448  29.872  0.00  0.00     0.048 H 
ATOM     54  H34 non d ame     -33.429  13.634  29.451  0.00  0.00     0.048 H 
BRANCH  52  55
ATOM     55  C23 non d ame     -31.683  12.465  29.103  0.00  0.00     0.259 C 
ATOM     56  O7  non d ame     -30.790  12.296  28.337  0.00  0.00    -0.265 OA
BRANCH  55  57
ATOM     57  O8  non d ame     -32.123  11.397  29.933  0.00  0.00    -0.317 OA
BRANCH  57  58
ATOM     58  C29 non d ame     -32.953  11.810  31.022  0.00  0.00     0.052 C 
ATOM     59  H47 non d ame     -32.284  11.929  31.875  0.00  0.00     0.082 H 
ATOM     60  H48 non d ame     -33.522  12.663  30.653  0.00  0.00     0.082 H 
BRANCH  58  61
ATOM     61  C35 non d ame     -33.945  10.658  31.333  0.00  0.00    -0.034 A 
ATOM     62  C30 non d ame     -34.888  10.804  32.346  0.00  0.00    -0.075 A 
ATOM     63  C31 non d ame     -35.778   9.768  32.625  0.00  0.00    -0.082 A 
ATOM     64  H49 non d ame     -34.929  11.729  32.921  0.00  0.00     0.084 H 
ATOM     65  C32 non d ame     -35.722   8.582  31.889  0.00  0.00    -0.083 A 
ATOM     66  H50 non d ame     -36.517   9.886  33.419  0.00  0.00     0.083 H 
ATOM     67  C33 non d ame     -34.778   8.439  30.882  0.00  0.00    -0.082 A 
ATOM     68  H51 non d ame     -36.415   7.767  32.101  0.00  0.00     0.083 H 
ATOM     69  C34 non d ame     -33.887   9.472  30.598  0.00  0.00    -0.075 A 
ATOM     70  H52 non d ame     -34.735   7.511  30.311  0.00  0.00     0.083 H 
ATOM     71  H53 non d ame     -33.149   9.353  29.804  0.00  0.00     0.084 H 
ENDBRANCH  58  61
ENDBRANCH  57  58
ENDBRANCH  55  57
ENDBRANCH  52  55
ENDBRANCH  49  52
ENDBRANCH  47  49
BRANCH  47  72
ATOM     72  C24 non d ame     -34.476  16.013  28.042  0.00  0.00    -0.039 C 
ATOM     73  H35 non d ame     -35.533  15.763  28.133  0.00  0.00     0.036 H 
ATOM     74  H36 non d ame     -33.877  16.180  28.937  0.00  0.00     0.036 H 
BRANCH  72  75
ATOM     75  C25 non d ame     -34.378  17.341  27.152  0.00  0.00    -0.001 C 
ATOM     76  C26 non d ame     -32.819  17.860  27.089  0.00  0.00    -0.035 C 
ATOM     77  C27 non d ame     -32.782  19.171  27.427  0.00  0.00     0.085 C 
ATOM     78  H38 non d ame     -32.233  17.378  27.872  0.00  0.00     0.036 H 
ATOM     79  H39 non d ame     -32.464  17.852  26.059  0.00  0.00     0.036 H 
ATOM     80  N5  non d ame     -34.123  19.510  28.030  0.00  0.00    -0.049 N 
ATOM     81  H40 non d ame     -32.015  19.251  28.197  0.00  0.00     0.075 H 
ATOM     82  H41 non d ame     -32.668  19.710  26.487  0.00  0.00     0.075 H 
ATOM     83  C28 non d ame     -35.105  18.288  27.645  0.00  0.00     0.193 C 
ATOM     84  H42 non d ame     -33.994  19.516  29.031  0.00  0.00     0.280 HD
ATOM     85  H43 non d ame     -34.446  20.343  27.558  0.00  0.00     0.280 HD
ATOM     86  H44 non d ame     -35.846  18.401  26.853  0.00  0.00     0.129 H 
ATOM     87  H37 non d ame     -34.907  17.242  26.204  0.00  0.00     0.046 H 
BRANCH  83  88
ATOM     88  O6  non d ame     -35.837  17.863  28.795  0.00  0.00    -0.369 OA
ATOM     89  H45 non d ame     -35.224  17.610  29.490  0.00  0.00     0.212 HD
ENDBRANCH  83  88
ENDBRANCH  72  75
ENDBRANCH  47  72
ENDBRANCH  45  47
ENDBRANCH   1  43
BRANCH   1  90
ATOM     90  C16 non d ame     -35.864  11.144  28.371  0.00  0.00    -0.035 C 
ATOM     91  H21 non d ame     -35.369  10.292  28.835  0.00  0.00     0.037 H 
ATOM     92  H22 non d ame     -35.680  12.152  28.745  0.00  0.00     0.037 H 
BRANCH  90  93
ATOM     93  C17 non d ame     -37.399  10.894  28.515  0.00  0.00    -0.059 C 
ATOM     94  H23 non d ame     -37.752  11.482  29.362  0.00  0.00     0.038 H 
BRANCH  93  95
ATOM     95  C18 non d ame     -38.193  11.356  27.251  0.00  0.00    -0.073 C 
ATOM     96  H24 non d ame     -38.310  10.515  26.568  0.00  0.00     0.028 H 
ATOM     97  H25 non d ame     -39.176  11.718  27.551  0.00  0.00     0.028 H 
ATOM     98  H26 non d ame     -37.647  12.157  26.752  0.00  0.00     0.028 H 
ENDBRANCH  93  95
BRANCH  93  99
ATOM     99  C19 non d ame     -37.686   9.424  28.831  0.00  0.00    -0.073 C 
ATOM    100  H27 non d ame     -37.574   9.254  29.902  0.00  0.00     0.028 H 
ATOM    101  H28 non d ame     -38.705   9.179  28.529  0.00  0.00     0.028 H 
ATOM    102  H29 non d ame     -36.985   8.792  28.287  0.00  0.00     0.028 H 
ENDBRANCH  93  99
ENDBRANCH  90  93
ENDBRANCH   1  90
TORSDOF 26
ENDMDL
MODEL 7
REMARK VINA RESULT:      -6.0      2.437      8.150
REMARK  26 active torsions:
REMARK  status: ('A' for Active; 'I' for Inactive)
REMARK    1  A    between atoms: C2_2  and  C3_3 
REMARK    2  A    between atoms: C4_6  and  C5_7 
REMARK       I    between atoms: C5_7  and  N2_9 
REMARK    3  A    between atoms: N2_9  and  C6_10 
REMARK    4  A    between atoms: C6_10  and  C7_11 
REMARK    5  A    between atoms: C6_10  and  C8_13 
REMARK       I    between atoms: C7_11  and  N3_14 
REMARK    6  A    between atoms: N3_14  and  C9_15 
REMARK    7  A    between atoms: C9_15  and  C10_16 
REMARK    8  A    between atoms: C9_15  and  C11_18 
REMARK       I    between atoms: C10_16  and  N4_21 
REMARK    9  A    between atoms: C11_18  and  C12_19 
REMARK   10  A    between atoms: C11_18  and  C13_20 
REMARK   11  A    between atoms: N4_21  and  C14_22 
REMARK   12  A    between atoms: C14_22  and  C15_23 
REMARK   13  A    between atoms: C14_22  and  C16_25 
REMARK       I    between atoms: C15_23  and  N6_40 
REMARK   14  A    between atoms: C16_25  and  C17_26 
REMARK   15  A    between atoms: C17_26  and  C18_27 
REMARK   16  A    between atoms: C17_26  and  C19_28 
REMARK   17  A    between atoms: C20_29  and  C21_30 
REMARK   18  A    between atoms: C20_29  and  C24_33 
REMARK   19  A    between atoms: C20_29  and  N6_40 
REMARK   20  A    between atoms: C21_30  and  C22_31 
REMARK   21  A    between atoms: C22_31  and  C23_32 
REMARK   22  A    between atoms: C23_32  and  O8_43 
REMARK   23  A    between atoms: C24_33  and  C25_34 
REMARK   24  A    between atoms: C28_38  and  O6_39 
REMARK   25  A    between atoms: C29_42  and  O8_43 
REMARK   26  A    between atoms: C29_42  and  C35_49 
ROOT
ATOM      1  C14 non d ame     -34.924   5.721  26.509  0.00  0.00     0.089 C 
ATOM      2  H20 non d ame     -35.885   6.036  26.101  0.00  0.00     0.087 H 
ENDROOT
BRANCH   1   3
ATOM      3  N4  non d ame     -33.998   5.584  25.396  0.00  0.00    -0.346 N 
ATOM      4  C10 non d ame     -34.375   6.086  24.025  0.00  0.00     0.241 C 
ATOM      5  O4  non d ame     -35.432   6.594  23.841  0.00  0.00    -0.271 OA
ATOM      6  H19 non d ame     -33.104   5.147  25.572  0.00  0.00     0.163 HD
BRANCH   4   7
ATOM      7  C9  non d ame     -33.401   5.942  22.885  0.00  0.00     0.092 C 
ATOM      8  H11 non d ame     -33.826   6.399  21.991  0.00  0.00     0.088 H 
BRANCH   7   9
ATOM      9  N3  non d ame     -32.169   6.671  23.200  0.00  0.00    -0.346 N 
ATOM     10  C7  non d ame     -31.628   7.615  22.253  0.00  0.00     0.240 C 
ATOM     11  O3  non d ame     -32.171   7.800  21.232  0.00  0.00    -0.271 OA
ATOM     12  H10 non d ame     -31.688   6.521  24.075  0.00  0.00     0.163 HD
BRANCH  10  13
ATOM     13  C6  non d ame     -30.314   8.386  22.592  0.00  0.00     0.086 C 
ATOM     14  H6  non d ame     -30.013   9.074  21.803  0.00  0.00     0.086 H 
BRANCH  13  15
ATOM     15  N2  non d ame     -30.533   9.189  23.783  0.00  0.00    -0.343 N 
ATOM     16  C5  non d ame     -30.656  10.643  23.660  0.00  0.00     0.273 C 
ATOM     17  O2  non d ame     -30.575  11.157  22.598  0.00  0.00    -0.266 OA
ATOM     18  H5  non d ame     -30.599   8.742  24.687  0.00  0.00     0.163 HD
BRANCH  16  19
ATOM     19  C4  non d ame     -30.890  11.505  24.911  0.00  0.00     0.154 A 
ATOM     20  C1  non d ame     -31.132  12.914  24.957  0.00  0.00    -0.017 A 
ATOM     21  C2  non d ame     -31.279  13.213  26.330  0.00  0.00     0.077 A 
ATOM     22  H1  non d ame     -31.192  13.613  24.122  0.00  0.00     0.091 H 
ATOM     23  O1  non d ame     -31.137  12.099  26.986  0.00  0.00    -0.218 OA
ATOM     24  N1  non d ame     -30.909  11.088  26.180  0.00  0.00    -0.123 NA
BRANCH  21  25
ATOM     25  C3  non d ame     -31.553  14.586  26.929  0.00  0.00    -0.029 C 
ATOM     26  H2  non d ame     -30.704  15.243  26.738  0.00  0.00     0.036 H 
ATOM     27  H3  non d ame     -32.448  15.009  26.474  0.00  0.00     0.036 H 
ATOM     28  H4  non d ame     -31.703  14.490  28.004  0.00  0.00     0.036 H 
ENDBRANCH  21  25
ENDBRANCH  16  19
ENDBRANCH  13  15
BRANCH  13  29
ATOM     29  C8  non d ame     -29.198   7.400  22.831  0.00  0.00    -0.049 C 
ATOM     30  H7  non d ame     -29.525   6.650  23.551  0.00  0.00     0.030 H 
ATOM     31  H8  non d ame     -28.936   6.914  21.892  0.00  0.00     0.030 H 
ATOM     32  H9  non d ame     -28.328   7.926  23.224  0.00  0.00     0.030 H 
ENDBRANCH  13  29
ENDBRANCH  10  13
ENDBRANCH   7   9
BRANCH   7  33
ATOM     33  C11 non d ame     -33.070   4.436  22.673  0.00  0.00    -0.033 C 
ATOM     34  H12 non d ame     -32.488   4.103  23.532  0.00  0.00     0.042 H 
BRANCH  33  35
ATOM     35  C12 non d ame     -34.368   3.571  22.622  0.00  0.00    -0.071 C 
ATOM     36  H13 non d ame     -34.981   3.883  21.777  0.00  0.00     0.028 H 
ATOM     37  H14 non d ame     -34.100   2.521  22.508  0.00  0.00     0.028 H 
ATOM     38  H15 non d ame     -34.929   3.704  23.547  0.00  0.00     0.028 H 
ENDBRANCH  33  35
BRANCH  33  39
ATOM     39  C13 non d ame     -32.201   4.229  21.391  0.00  0.00    -0.071 C 
ATOM     40  H16 non d ame     -31.529   5.079  21.266  0.00  0.00     0.028 H 
ATOM     41  H17 non d ame     -31.617   3.314  21.491  0.00  0.00     0.028 H 
ATOM     42  H18 non d ame     -32.852   4.150  20.520  0.00  0.00     0.028 H 
ENDBRANCH  33  39
ENDBRANCH   7  33
ENDBRANCH   4   7
ENDBRANCH   1   3
BRANCH   1  43
ATOM     43  C15 non d ame     -34.344   6.758  27.513  0.00  0.00     0.240 C 
ATOM     44  O5  non d ame     -33.288   7.259  27.300  0.00  0.00    -0.271 OA
ATOM     45  N6  non d ame     -35.110   7.133  28.736  0.00  0.00    -0.355 N 
ATOM     46  H46 non d ame     -36.010   6.717  28.925  0.00  0.00     0.162 HD
BRANCH  45  47
ATOM     47  C20 non d ame     -34.545   8.121  29.680  0.00  0.00     0.013 C 
ATOM     48  H30 non d ame     -33.461   8.010  29.673  0.00  0.00     0.072 H 
BRANCH  47  49
ATOM     49  C21 non d ame     -35.083   7.852  31.067  0.00  0.00    -0.038 C 
ATOM     50  H31 non d ame     -35.482   6.838  31.037  0.00  0.00     0.036 H 
ATOM     51  H32 non d ame     -34.271   8.099  31.751  0.00  0.00     0.036 H 
BRANCH  49  52
ATOM     52  C22 non d ame     -36.264   8.775  31.440  0.00  0.00     0.018 C 
ATOM     53  H33 non d ame     -36.149   8.987  32.503  0.00  0.00     0.048 H 
ATOM     54  H34 non d ame     -36.243   9.590  30.716  0.00  0.00     0.048 H 
BRANCH  52  55
ATOM     55  C23 non d ame     -37.657   8.103  31.287  0.00  0.00     0.259 C 
ATOM     56  O7  non d ame     -38.593   8.510  31.895  0.00  0.00    -0.265 OA
BRANCH  55  57
ATOM     57  O8  non d ame     -37.799   6.984  30.420  0.00  0.00    -0.317 OA
BRANCH  57  58
ATOM     58  C29 non d ame     -38.540   7.262  29.228  0.00  0.00     0.052 C 
ATOM     59  H47 non d ame     -39.364   7.906  29.536  0.00  0.00     0.082 H 
ATOM     60  H48 non d ame     -37.809   7.621  28.504  0.00  0.00     0.082 H 
BRANCH  58  61
ATOM     61  C35 non d ame     -39.130   5.924  28.709  0.00  0.00    -0.034 A 
ATOM     62  C30 non d ame     -40.119   5.932  27.731  0.00  0.00    -0.075 A 
ATOM     63  C31 non d ame     -40.650   4.730  27.264  0.00  0.00    -0.082 A 
ATOM     64  H49 non d ame     -40.480   6.880  27.330  0.00  0.00     0.084 H 
ATOM     65  C32 non d ame     -40.189   3.516  27.781  0.00  0.00    -0.083 A 
ATOM     66  H50 non d ame     -41.424   4.740  26.496  0.00  0.00     0.083 H 
ATOM     67  C33 non d ame     -39.204   3.513  28.759  0.00  0.00    -0.082 A 
ATOM     68  H51 non d ame     -40.597   2.572  27.421  0.00  0.00     0.083 H 
ATOM     69  C34 non d ame     -38.669   4.712  29.227  0.00  0.00    -0.075 A 
ATOM     70  H52 non d ame     -38.848   2.565  29.162  0.00  0.00     0.083 H 
ATOM     71  H53 non d ame     -37.895   4.701  29.994  0.00  0.00     0.084 H 
ENDBRANCH  58  61
ENDBRANCH  57  58
ENDBRANCH  55  57
ENDBRANCH  52  55
ENDBRANCH  49  52
ENDBRANCH  47  49
BRANCH  47  72
ATOM     72  C24 non d ame     -34.936   9.532  29.245  0.00  0.00    -0.039 C 
ATOM     73  H35 non d ame     -35.529   9.403  28.340  0.00  0.00     0.036 H 
ATOM     74  H36 non d ame     -35.380   9.994  30.127  0.00  0.00     0.036 H 
BRANCH  72  75
ATOM     75  C25 non d ame     -33.654  10.407  28.849  0.00  0.00    -0.001 C 
ATOM     76  C26 non d ame     -32.755  10.723  30.189  0.00  0.00    -0.035 C 
ATOM     77  C27 non d ame     -32.517  12.055  30.251  0.00  0.00     0.085 C 
ATOM     78  H38 non d ame     -33.340  10.526  31.086  0.00  0.00     0.036 H 
ATOM     79  H39 non d ame     -31.759  10.291  30.082  0.00  0.00     0.036 H 
ATOM     80  N5  non d ame     -33.444  12.715  29.259  0.00  0.00    -0.049 N 
ATOM     81  H40 non d ame     -32.803  12.354  31.259  0.00  0.00     0.075 H 
ATOM     82  H41 non d ame     -31.488  12.183  29.916  0.00  0.00     0.075 H 
ATOM     83  C28 non d ame     -34.001  11.530  28.315  0.00  0.00     0.193 C 
ATOM     84  H42 non d ame     -34.214  13.090  29.793  0.00  0.00     0.280 HD
ATOM     85  H43 non d ame     -32.870  13.330  28.699  0.00  0.00     0.280 HD
ATOM     86  H44 non d ame     -33.613  11.398  27.305  0.00  0.00     0.129 H 
ATOM     87  H37 non d ame     -33.129  10.001  27.984  0.00  0.00     0.046 H 
BRANCH  83  88
ATOM     88  O6  non d ame     -35.418  11.642  28.169  0.00  0.00    -0.369 OA
ATOM     89  H45 non d ame     -35.800  11.967  28.988  0.00  0.00     0.212 HD
ENDBRANCH  83  88
ENDBRANCH  72  75
ENDBRANCH  47  72
ENDBRANCH  45  47
ENDBRANCH   1  43
BRANCH   1  90
ATOM     90  C16 non d ame     -35.075   4.373  27.197  0.00  0.00    -0.035 C 
ATOM     91  H21 non d ame     -34.153   3.834  26.981  0.00  0.00     0.037 H 
ATOM     92  H22 non d ame     -35.344   4.603  28.228  0.00  0.00     0.037 H 
BRANCH  90  93
ATOM     93  C17 non d ame     -36.238   3.503  26.622  0.00  0.00    -0.059 C 
ATOM     94  H23 non d ame     -36.809   3.115  27.465  0.00  0.00     0.038 H 
BRANCH  93  95
ATOM     95  C18 non d ame     -37.214   4.338  25.731  0.00  0.00    -0.073 C 
ATOM     96  H24 non d ame     -38.242   4.121  26.017  0.00  0.00     0.028 H 
ATOM     97  H25 non d ame     -37.015   5.400  25.870  0.00  0.00     0.028 H 
ATOM     98  H26 non d ame     -37.065   4.074  24.684  0.00  0.00     0.028 H 
ENDBRANCH  93  95
BRANCH  93  99
ATOM     99  C19 non d ame     -35.691   2.300  25.850  0.00  0.00    -0.073 C 
ATOM    100  H27 non d ame     -34.690   2.061  26.211  0.00  0.00     0.028 H 
ATOM    101  H28 non d ame     -36.346   1.441  26.003  0.00  0.00     0.028 H 
ATOM    102  H29 non d ame     -35.648   2.538  24.788  0.00  0.00     0.028 H 
ENDBRANCH  93  99
ENDBRANCH  90  93
ENDBRANCH   1  90
TORSDOF 26
ENDMDL
MODEL 8
REMARK VINA RESULT:      -5.9      2.442      7.278
REMARK  26 active torsions:
REMARK  status: ('A' for Active; 'I' for Inactive)
REMARK    1  A    between atoms: C2_2  and  C3_3 
REMARK    2  A    between atoms: C4_6  and  C5_7 
REMARK       I    between atoms: C5_7  and  N2_9 
REMARK    3  A    between atoms: N2_9  and  C6_10 
REMARK    4  A    between atoms: C6_10  and  C7_11 
REMARK    5  A    between atoms: C6_10  and  C8_13 
REMARK       I    between atoms: C7_11  and  N3_14 
REMARK    6  A    between atoms: N3_14  and  C9_15 
REMARK    7  A    between atoms: C9_15  and  C10_16 
REMARK    8  A    between atoms: C9_15  and  C11_18 
REMARK       I    between atoms: C10_16  and  N4_21 
REMARK    9  A    between atoms: C11_18  and  C12_19 
REMARK   10  A    between atoms: C11_18  and  C13_20 
REMARK   11  A    between atoms: N4_21  and  C14_22 
REMARK   12  A    between atoms: C14_22  and  C15_23 
REMARK   13  A    between atoms: C14_22  and  C16_25 
REMARK       I    between atoms: C15_23  and  N6_40 
REMARK   14  A    between atoms: C16_25  and  C17_26 
REMARK   15  A    between atoms: C17_26  and  C18_27 
REMARK   16  A    between atoms: C17_26  and  C19_28 
REMARK   17  A    between atoms: C20_29  and  C21_30 
REMARK   18  A    between atoms: C20_29  and  C24_33 
REMARK   19  A    between atoms: C20_29  and  N6_40 
REMARK   20  A    between atoms: C21_30  and  C22_31 
REMARK   21  A    between atoms: C22_31  and  C23_32 
REMARK   22  A    between atoms: C23_32  and  O8_43 
REMARK   23  A    between atoms: C24_33  and  C25_34 
REMARK   24  A    between atoms: C28_38  and  O6_39 
REMARK   25  A    between atoms: C29_42  and  O8_43 
REMARK   26  A    between atoms: C29_42  and  C35_49 
ROOT
ATOM      1  C14 non d ame     -33.049   5.178  25.485  0.00  0.00     0.089 C 
ATOM      2  H20 non d ame     -32.219   4.820  26.096  0.00  0.00     0.087 H 
ENDROOT
BRANCH   1   3
ATOM      3  N4  non d ame     -34.177   5.414  26.373  0.00  0.00    -0.346 N 
ATOM      4  C10 non d ame     -34.120   4.969  27.812  0.00  0.00     0.241 C 
ATOM      5  O4  non d ame     -33.155   4.420  28.233  0.00  0.00    -0.271 OA
ATOM      6  H19 non d ame     -34.990   5.881  25.995  0.00  0.00     0.163 HD
BRANCH   4   7
ATOM      7  C9  non d ame     -35.295   5.227  28.719  0.00  0.00     0.092 C 
ATOM      8  H11 non d ame     -35.254   4.537  29.562  0.00  0.00     0.088 H 
BRANCH   7   9
ATOM      9  N3  non d ame     -35.204   6.584  29.264  0.00  0.00    -0.346 N 
ATOM     10  C7  non d ame     -35.037   6.781  30.683  0.00  0.00     0.240 C 
ATOM     11  O3  non d ame     -34.975   5.859  31.401  0.00  0.00    -0.271 OA
ATOM     12  H10 non d ame     -35.256   7.390  28.658  0.00  0.00     0.163 HD
BRANCH  10  13
ATOM     13  C6  non d ame     -34.944   8.229  31.258  0.00  0.00     0.086 C 
ATOM     14  H6  non d ame     -34.536   8.256  32.268  0.00  0.00     0.086 H 
BRANCH  13  15
ATOM     15  N2  non d ame     -34.043   9.009  30.426  0.00  0.00    -0.343 N 
ATOM     16  C5  non d ame     -33.534  10.291  30.919  0.00  0.00     0.273 C 
ATOM     17  O2  non d ame     -33.857  10.686  31.985  0.00  0.00    -0.266 OA
ATOM     18  H5  non d ame     -33.774   8.665  29.515  0.00  0.00     0.163 HD
BRANCH  16  19
ATOM     19  C4  non d ame     -32.580  11.126  30.050  0.00  0.00     0.154 A 
ATOM     20  C1  non d ame     -32.695  11.391  28.649  0.00  0.00    -0.017 A 
ATOM     21  C2  non d ame     -31.578  12.198  28.339  0.00  0.00     0.077 A 
ATOM     22  H1  non d ame     -33.471  11.051  27.963  0.00  0.00     0.091 H 
ATOM     23  O1  non d ame     -30.907  12.371  29.440  0.00  0.00    -0.218 OA
ATOM     24  N1  non d ame     -31.472  11.754  30.452  0.00  0.00    -0.123 NA
BRANCH  21  25
ATOM     25  C3  non d ame     -31.226  12.762  26.968  0.00  0.00    -0.029 C 
ATOM     26  H2  non d ame     -31.069  13.837  27.047  0.00  0.00     0.036 H 
ATOM     27  H3  non d ame     -30.314  12.288  26.604  0.00  0.00     0.036 H 
ATOM     28  H4  non d ame     -32.041  12.563  26.273  0.00  0.00     0.036 H 
ENDBRANCH  21  25
ENDBRANCH  16  19
ENDBRANCH  13  15
BRANCH  13  29
ATOM     29  C8  non d ame     -36.314   8.858  31.268  0.00  0.00    -0.049 C 
ATOM     30  H7  non d ame     -36.360   9.616  32.049  0.00  0.00     0.030 H 
ATOM     31  H8  non d ame     -36.507   9.321  30.300  0.00  0.00     0.030 H 
ATOM     32  H9  non d ame     -37.064   8.091  31.461  0.00  0.00     0.030 H 
ENDBRANCH  13  29
ENDBRANCH  10  13
ENDBRANCH   7   9
BRANCH   7  33
ATOM     33  C11 non d ame     -36.616   5.084  27.908  0.00  0.00    -0.033 C 
ATOM     34  H12 non d ame     -36.482   5.615  26.966  0.00  0.00     0.042 H 
BRANCH  33  35
ATOM     35  C12 non d ame     -36.915   3.591  27.567  0.00  0.00    -0.071 C 
ATOM     36  H13 non d ame     -37.735   3.233  28.190  0.00  0.00     0.028 H 
ATOM     37  H14 non d ame     -37.193   3.507  26.517  0.00  0.00     0.028 H 
ATOM     38  H15 non d ame     -36.026   2.989  27.757  0.00  0.00     0.028 H 
ENDBRANCH  33  35
BRANCH  33  39
ATOM     39  C13 non d ame     -37.812   5.742  28.668  0.00  0.00    -0.071 C 
ATOM     40  H16 non d ame     -38.393   4.968  29.171  0.00  0.00     0.028 H 
ATOM     41  H17 non d ame     -37.430   6.448  29.406  0.00  0.00     0.028 H 
ATOM     42  H18 non d ame     -38.448   6.270  27.957  0.00  0.00     0.028 H 
ENDBRANCH  33  39
ENDBRANCH   7  33
ENDBRANCH   4   7
ENDBRANCH   1   3
BRANCH   1  43
ATOM     43  C15 non d ame     -32.707   6.508  24.753  0.00  0.00     0.240 C 
ATOM     44  O5  non d ame     -32.403   7.468  25.384  0.00  0.00    -0.271 OA
ATOM     45  N6  non d ame     -32.752   6.582  23.265  0.00  0.00    -0.355 N 
ATOM     46  H46 non d ame     -33.004   5.772  22.718  0.00  0.00     0.162 HD
BRANCH  45  47
ATOM     47  C20 non d ame     -32.423   7.853  22.585  0.00  0.00     0.013 C 
ATOM     48  H30 non d ame     -32.591   8.666  23.292  0.00  0.00     0.072 H 
BRANCH  47  49
ATOM     49  C21 non d ame     -33.323   8.023  21.381  0.00  0.00    -0.038 C 
ATOM     50  H31 non d ame     -33.389   9.098  21.212  0.00  0.00     0.036 H 
ATOM     51  H32 non d ame     -32.907   7.374  20.610  0.00  0.00     0.036 H 
BRANCH  49  52
ATOM     52  C22 non d ame     -34.764   7.531  21.636  0.00  0.00     0.018 C 
ATOM     53  H33 non d ame     -35.331   7.804  20.746  0.00  0.00     0.048 H 
ATOM     54  H34 non d ame     -34.672   6.483  21.924  0.00  0.00     0.048 H 
BRANCH  52  55
ATOM     55  C23 non d ame     -35.467   8.242  22.826  0.00  0.00     0.259 C 
ATOM     56  O7  non d ame     -35.846   9.363  22.720  0.00  0.00    -0.265 OA
BRANCH  55  57
ATOM     57  O8  non d ame     -35.642   7.541  24.051  0.00  0.00    -0.317 OA
BRANCH  57  58
ATOM     58  C29 non d ame     -36.771   7.975  24.814  0.00  0.00     0.052 C 
ATOM     59  H47 non d ame     -36.397   8.147  25.823  0.00  0.00     0.082 H 
ATOM     60  H48 non d ame     -37.211   8.796  24.249  0.00  0.00     0.082 H 
BRANCH  58  61
ATOM     61  C35 non d ame     -37.794   6.809  24.862  0.00  0.00    -0.034 A 
ATOM     62  C30 non d ame     -37.465   5.571  24.319  0.00  0.00    -0.075 A 
ATOM     63  C31 non d ame     -38.384   4.524  24.362  0.00  0.00    -0.082 A 
ATOM     64  H49 non d ame     -36.488   5.422  23.860  0.00  0.00     0.084 H 
ATOM     65  C32 non d ame     -39.638   4.718  24.948  0.00  0.00    -0.083 A 
ATOM     66  H50 non d ame     -38.123   3.554  23.937  0.00  0.00     0.083 H 
ATOM     67  C33 non d ame     -39.963   5.957  25.486  0.00  0.00    -0.082 A 
ATOM     68  H51 non d ame     -40.362   3.905  24.987  0.00  0.00     0.083 H 
ATOM     69  C34 non d ame     -39.047   7.006  25.447  0.00  0.00    -0.075 A 
ATOM     70  H52 non d ame     -40.942   6.106  25.940  0.00  0.00     0.083 H 
ATOM     71  H53 non d ame     -39.309   7.975  25.872  0.00  0.00     0.084 H 
ENDBRANCH  58  61
ENDBRANCH  57  58
ENDBRANCH  55  57
ENDBRANCH  52  55
ENDBRANCH  49  52
ENDBRANCH  47  49
BRANCH  47  72
ATOM     72  C24 non d ame     -30.964   7.835  22.133  0.00  0.00    -0.039 C 
ATOM     73  H35 non d ame     -30.590   6.847  22.401  0.00  0.00     0.036 H 
ATOM     74  H36 non d ame     -30.980   8.147  21.088  0.00  0.00     0.036 H 
BRANCH  72  75
ATOM     75  C25 non d ame     -30.083   8.908  22.932  0.00  0.00    -0.001 C 
ATOM     76  C26 non d ame     -31.051  10.099  23.523  0.00  0.00    -0.035 C 
ATOM     77  C27 non d ame     -30.538  11.299  23.157  0.00  0.00     0.085 C 
ATOM     78  H38 non d ame     -32.020  10.074  23.026  0.00  0.00     0.036 H 
ATOM     79  H39 non d ame     -30.996  10.120  24.611  0.00  0.00     0.036 H 
ATOM     80  N5  non d ame     -29.496  11.030  22.098  0.00  0.00    -0.049 N 
ATOM     81  H40 non d ame     -31.368  11.845  22.708  0.00  0.00     0.075 H 
ATOM     82  H41 non d ame     -30.047  11.689  24.047  0.00  0.00     0.075 H 
ATOM     83  C28 non d ame     -29.193   9.445  22.166  0.00  0.00     0.193 C 
ATOM     84  H42 non d ame     -29.931  11.236  21.210  0.00  0.00     0.280 HD
ATOM     85  H43 non d ame     -28.665  11.529  22.382  0.00  0.00     0.280 HD
ATOM     86  H44 non d ame     -28.280   9.076  22.634  0.00  0.00     0.129 H 
ATOM     87  H37 non d ame     -29.394   8.436  23.633  0.00  0.00     0.046 H 
BRANCH  83  88
ATOM     88  O6  non d ame     -29.203   8.885  20.852  0.00  0.00    -0.369 OA
ATOM     89  H45 non d ame     -29.814   9.376  20.299  0.00  0.00     0.212 HD
ENDBRANCH  83  88
ENDBRANCH  72  75
ENDBRANCH  47  72
ENDBRANCH  45  47
ENDBRANCH   1  43
BRANCH   1  90
ATOM     90  C16 non d ame     -33.433   4.118  24.465  0.00  0.00    -0.035 C 
ATOM     91  H21 non d ame     -33.998   4.647  23.698  0.00  0.00     0.037 H 
ATOM     92  H22 non d ame     -32.501   3.616  24.206  0.00  0.00     0.037 H 
BRANCH  90  93
ATOM     93  C17 non d ame     -34.384   3.018  25.034  0.00  0.00    -0.059 C 
ATOM     94  H23 non d ame     -35.001   3.480  25.804  0.00  0.00     0.038 H 
BRANCH  93  95
ATOM     95  C18 non d ame     -35.340   2.443  23.940  0.00  0.00    -0.073 C 
ATOM     96  H24 non d ame     -35.227   3.016  23.020  0.00  0.00     0.028 H 
ATOM     97  H25 non d ame     -35.089   1.400  23.749  0.00  0.00     0.028 H 
ATOM     98  H26 non d ame     -36.371   2.511  24.286  0.00  0.00     0.028 H 
ENDBRANCH  93  95
BRANCH  93  99
ATOM     99  C19 non d ame     -33.585   1.897  25.703  0.00  0.00    -0.073 C 
ATOM    100  H27 non d ame     -33.943   1.754  26.723  0.00  0.00     0.028 H 
ATOM    101  H28 non d ame     -33.714   0.972  25.140  0.00  0.00     0.028 H 
ATOM    102  H29 non d ame     -32.529   2.165  25.722  0.00  0.00     0.028 H 
ENDBRANCH  93  99
ENDBRANCH  90  93
ENDBRANCH   1  90
TORSDOF 26
ENDMDL
MODEL 9
REMARK VINA RESULT:      -5.9      2.930      7.480
REMARK  26 active torsions:
REMARK  status: ('A' for Active; 'I' for Inactive)
REMARK    1  A    between atoms: C2_2  and  C3_3 
REMARK    2  A    between atoms: C4_6  and  C5_7 
REMARK       I    between atoms: C5_7  and  N2_9 
REMARK    3  A    between atoms: N2_9  and  C6_10 
REMARK    4  A    between atoms: C6_10  and  C7_11 
REMARK    5  A    between atoms: C6_10  and  C8_13 
REMARK       I    between atoms: C7_11  and  N3_14 
REMARK    6  A    between atoms: N3_14  and  C9_15 
REMARK    7  A    between atoms: C9_15  and  C10_16 
REMARK    8  A    between atoms: C9_15  and  C11_18 
REMARK       I    between atoms: C10_16  and  N4_21 
REMARK    9  A    between atoms: C11_18  and  C12_19 
REMARK   10  A    between atoms: C11_18  and  C13_20 
REMARK   11  A    between atoms: N4_21  and  C14_22 
REMARK   12  A    between atoms: C14_22  and  C15_23 
REMARK   13  A    between atoms: C14_22  and  C16_25 
REMARK       I    between atoms: C15_23  and  N6_40 
REMARK   14  A    between atoms: C16_25  and  C17_26 
REMARK   15  A    between atoms: C17_26  and  C18_27 
REMARK   16  A    between atoms: C17_26  and  C19_28 
REMARK   17  A    between atoms: C20_29  and  C21_30 
REMARK   18  A    between atoms: C20_29  and  C24_33 
REMARK   19  A    between atoms: C20_29  and  N6_40 
REMARK   20  A    between atoms: C21_30  and  C22_31 
REMARK   21  A    between atoms: C22_31  and  C23_32 
REMARK   22  A    between atoms: C23_32  and  O8_43 
REMARK   23  A    between atoms: C24_33  and  C25_34 
REMARK   24  A    between atoms: C28_38  and  O6_39 
REMARK   25  A    between atoms: C29_42  and  O8_43 
REMARK   26  A    between atoms: C29_42  and  C35_49 
ROOT
ATOM      1  C14 non d ame     -34.472   9.195  30.134  0.00  0.00     0.089 C 
ATOM      2  H20 non d ame     -35.387   9.650  29.755  0.00  0.00     0.087 H 
ENDROOT
BRANCH   1   3
ATOM      3  N4  non d ame     -34.074   8.160  29.192  0.00  0.00    -0.346 N 
ATOM      4  C10 non d ame     -35.035   7.684  28.132  0.00  0.00     0.241 C 
ATOM      5  O4  non d ame     -36.126   8.147  28.060  0.00  0.00    -0.271 OA
ATOM      6  H19 non d ame     -33.142   7.777  29.272  0.00  0.00     0.163 HD
BRANCH   4   7
ATOM      7  C9  non d ame     -34.605   6.615  27.162  0.00  0.00     0.092 C 
ATOM      8  H11 non d ame     -35.486   6.092  26.791  0.00  0.00     0.088 H 
BRANCH   7   9
ATOM      9  N3  non d ame     -33.952   7.239  26.006  0.00  0.00    -0.346 N 
ATOM     10  C7  non d ame     -34.535   7.108  24.693  0.00  0.00     0.240 C 
ATOM     11  O3  non d ame     -35.527   6.505  24.548  0.00  0.00    -0.271 OA
ATOM     12  H10 non d ame     -33.095   7.761  26.115  0.00  0.00     0.163 HD
BRANCH  10  13
ATOM     13  C6  non d ame     -33.834   7.771  23.467  0.00  0.00     0.086 C 
ATOM     14  H6  non d ame     -32.759   7.882  23.604  0.00  0.00     0.086 H 
BRANCH  13  15
ATOM     15  N2  non d ame     -34.019   6.922  22.302  0.00  0.00    -0.343 N 
ATOM     16  C5  non d ame     -32.848   6.451  21.559  0.00  0.00     0.273 C 
ATOM     17  O2  non d ame     -31.762   6.764  21.905  0.00  0.00    -0.266 OA
ATOM     18  H5  non d ame     -34.952   6.661  22.012  0.00  0.00     0.163 HD
BRANCH  16  19
ATOM     19  C4  non d ame     -33.029   5.551  20.327  0.00  0.00     0.154 A 
ATOM     20  C1  non d ame     -33.731   4.305  20.262  0.00  0.00    -0.017 A 
ATOM     21  C2  non d ame     -33.603   3.886  18.918  0.00  0.00     0.077 A 
ATOM     22  H1  non d ame     -34.252   3.785  21.065  0.00  0.00     0.091 H 
ATOM     23  O1  non d ame     -32.909   4.793  18.294  0.00  0.00    -0.218 OA
ATOM     24  N1  non d ame     -32.562   5.774  19.095  0.00  0.00    -0.123 NA
BRANCH  21  25
ATOM     25  C3  non d ame     -34.174   2.610  18.314  0.00  0.00    -0.029 C 
ATOM     26  H2  non d ame     -34.032   2.625  17.233  0.00  0.00     0.036 H 
ATOM     27  H3  non d ame     -33.659   1.747  18.736  0.00  0.00     0.036 H 
ATOM     28  H4  non d ame     -35.238   2.545  18.540  0.00  0.00     0.036 H 
ENDBRANCH  21  25
ENDBRANCH  16  19
ENDBRANCH  13  15
BRANCH  13  29
ATOM     29  C8  non d ame     -34.436   9.131  23.215  0.00  0.00    -0.049 C 
ATOM     30  H7  non d ame     -33.690   9.778  22.753  0.00  0.00     0.030 H 
ATOM     31  H8  non d ame     -35.293   9.031  22.549  0.00  0.00     0.030 H 
ATOM     32  H9  non d ame     -34.759   9.566  24.161  0.00  0.00     0.030 H 
ENDBRANCH  13  29
ENDBRANCH  10  13
ENDBRANCH   7   9
BRANCH   7  33
ATOM     33  C11 non d ame     -33.603   5.652  27.862  0.00  0.00    -0.033 C 
ATOM     34  H12 non d ame     -33.511   5.971  28.900  0.00  0.00     0.042 H 
BRANCH  33  35
ATOM     35  C12 non d ame     -34.134   4.185  27.868  0.00  0.00    -0.071 C 
ATOM     36  H13 non d ame     -33.301   3.496  27.728  0.00  0.00     0.028 H 
ATOM     37  H14 non d ame     -34.620   3.978  28.821  0.00  0.00     0.028 H 
ATOM     38  H15 non d ame     -34.852   4.055  27.058  0.00  0.00     0.028 H 
ENDBRANCH  33  35
BRANCH  33  39
ATOM     39  C13 non d ame     -32.189   5.739  27.203  0.00  0.00    -0.071 C 
ATOM     40  H16 non d ame     -31.941   4.781  26.746  0.00  0.00     0.028 H 
ATOM     41  H17 non d ame     -32.192   6.517  26.438  0.00  0.00     0.028 H 
ATOM     42  H18 non d ame     -31.447   5.983  27.964  0.00  0.00     0.028 H 
ENDBRANCH  33  39
ENDBRANCH   7  33
ENDBRANCH   4   7
ENDBRANCH   1   3
BRANCH   1  43
ATOM     43  C15 non d ame     -33.312  10.224  30.258  0.00  0.00     0.240 C 
ATOM     44  O5  non d ame     -32.805  10.419  31.315  0.00  0.00    -0.271 OA
ATOM     45  N6  non d ame     -32.828  10.962  29.056  0.00  0.00    -0.355 N 
ATOM     46  H46 non d ame     -33.248  10.802  28.152  0.00  0.00     0.162 HD
BRANCH  45  47
ATOM     47  C20 non d ame     -31.723  11.936  29.190  0.00  0.00     0.013 C 
ATOM     48  H30 non d ame     -31.001  11.529  29.898  0.00  0.00     0.072 H 
BRANCH  47  49
ATOM     49  C21 non d ame     -32.273  13.246  29.709  0.00  0.00    -0.038 C 
ATOM     50  H31 non d ame     -32.943  13.613  28.931  0.00  0.00     0.036 H 
ATOM     51  H32 non d ame     -32.659  13.029  30.705  0.00  0.00     0.036 H 
BRANCH  49  52
ATOM     52  C22 non d ame     -31.182  14.324  29.889  0.00  0.00     0.018 C 
ATOM     53  H33 non d ame     -30.957  14.341  30.955  0.00  0.00     0.048 H 
ATOM     54  H34 non d ame     -30.401  14.077  29.170  0.00  0.00     0.048 H 
BRANCH  52  55
ATOM     55  C23 non d ame     -31.655  15.760  29.529  0.00  0.00     0.259 C 
ATOM     56  O7  non d ame     -31.495  16.657  30.292  0.00  0.00    -0.265 OA
BRANCH  55  57
ATOM     57  O8  non d ame     -32.296  15.990  28.280  0.00  0.00    -0.317 OA
BRANCH  57  58
ATOM     58  C29 non d ame     -33.656  16.419  28.394  0.00  0.00     0.052 C 
ATOM     59  H47 non d ame     -34.228  15.759  27.742  0.00  0.00     0.082 H 
ATOM     60  H48 non d ame     -33.868  16.448  29.462  0.00  0.00     0.082 H 
BRANCH  58  61
ATOM     61  C35 non d ame     -33.750  17.864  27.835  0.00  0.00    -0.034 A 
ATOM     62  C30 non d ame     -32.595  18.618  27.654  0.00  0.00    -0.075 A 
ATOM     63  C31 non d ame     -32.679  19.916  27.153  0.00  0.00    -0.082 A 
ATOM     64  H49 non d ame     -31.623  18.192  27.905  0.00  0.00     0.084 H 
ATOM     65  C32 non d ame     -33.926  20.461  26.835  0.00  0.00    -0.083 A 
ATOM     66  H50 non d ame     -31.772  20.504  27.011  0.00  0.00     0.083 H 
ATOM     67  C33 non d ame     -35.076  19.707  27.021  0.00  0.00    -0.082 A 
ATOM     68  H51 non d ame     -34.001  21.475  26.442  0.00  0.00     0.083 H 
ATOM     69  C34 non d ame     -34.996  18.408  27.519  0.00  0.00    -0.075 A 
ATOM     70  H52 non d ame     -36.048  20.136  26.774  0.00  0.00     0.083 H 
ATOM     71  H53 non d ame     -35.904  17.821  27.661  0.00  0.00     0.084 H 
ENDBRANCH  58  61
ENDBRANCH  57  58
ENDBRANCH  55  57
ENDBRANCH  52  55
ENDBRANCH  49  52
ENDBRANCH  47  49
BRANCH  47  72
ATOM     72  C24 non d ame     -31.066  12.162  27.831  0.00  0.00    -0.039 C 
ATOM     73  H35 non d ame     -30.810  13.222  27.804  0.00  0.00     0.036 H 
ATOM     74  H36 non d ame     -30.279  11.410  27.761  0.00  0.00     0.036 H 
BRANCH  72  75
ATOM     75  C25 non d ame     -32.086  11.891  26.626  0.00  0.00    -0.001 C 
ATOM     76  C26 non d ame     -31.545  10.643  25.703  0.00  0.00    -0.035 C 
ATOM     77  C27 non d ame     -31.533  11.032  24.406  0.00  0.00     0.085 C 
ATOM     78  H38 non d ame     -30.495  10.446  25.919  0.00  0.00     0.036 H 
ATOM     79  H39 non d ame     -32.267   9.826  25.717  0.00  0.00     0.036 H 
ATOM     80  N5  non d ame     -31.704  12.532  24.394  0.00  0.00    -0.049 N 
ATOM     81  H40 non d ame     -30.538  10.785  24.037  0.00  0.00     0.075 H 
ATOM     82  H41 non d ame     -32.412  10.571  23.956  0.00  0.00     0.075 H 
ATOM     83  C28 non d ame     -32.209  12.933  25.874  0.00  0.00     0.193 C 
ATOM     84  H42 non d ame     -30.785  12.924  24.250  0.00  0.00     0.280 HD
ATOM     85  H43 non d ame     -32.446  12.729  23.737  0.00  0.00     0.280 HD
ATOM     86  H44 non d ame     -33.254  13.186  26.053  0.00  0.00     0.129 H 
ATOM     87  H37 non d ame     -33.122  11.845  26.965  0.00  0.00     0.046 H 
BRANCH  83  88
ATOM     88  O6  non d ame     -31.457  14.045  26.366  0.00  0.00    -0.369 OA
ATOM     89  H45 non d ame     -31.150  14.575  25.627  0.00  0.00     0.212 HD
ENDBRANCH  83  88
ENDBRANCH  72  75
ENDBRANCH  47  72
ENDBRANCH  45  47
ENDBRANCH   1  43
BRANCH   1  90
ATOM     90  C16 non d ame     -34.737   8.558  31.489  0.00  0.00    -0.035 C 
ATOM     91  H21 non d ame     -34.984   7.518  31.275  0.00  0.00     0.037 H 
ATOM     92  H22 non d ame     -33.863   8.796  32.096  0.00  0.00     0.037 H 
BRANCH  90  93
ATOM     93  C17 non d ame     -35.970   9.160  32.234  0.00  0.00    -0.059 C 
ATOM     94  H23 non d ame     -36.444   8.354  32.794  0.00  0.00     0.038 H 
BRANCH  93  95
ATOM     95  C18 non d ame     -35.558  10.270  33.254  0.00  0.00    -0.073 C 
ATOM     96  H24 non d ame     -36.282  11.084  33.217  0.00  0.00     0.028 H 
ATOM     97  H25 non d ame     -35.536   9.850  34.259  0.00  0.00     0.028 H 
ATOM     98  H26 non d ame     -34.570  10.650  32.997  0.00  0.00     0.028 H 
ENDBRANCH  93  95
BRANCH  93  99
ATOM     99  C19 non d ame     -37.004   9.692  31.239  0.00  0.00    -0.073 C 
ATOM    100  H27 non d ame     -36.743  10.711  30.952  0.00  0.00     0.028 H 
ATOM    101  H28 non d ame     -37.016   9.057  30.352  0.00  0.00     0.028 H 
ATOM    102  H29 non d ame     -37.991   9.685  31.701  0.00  0.00     0.028 H 
ENDBRANCH  93  99
ENDBRANCH  90  93
ENDBRANCH   1  90
TORSDOF 26
ENDMDL
MODEL 10
REMARK VINA RESULT:      -5.8      2.110      5.629
REMARK  26 active torsions:
REMARK  status: ('A' for Active; 'I' for Inactive)
REMARK    1  A    between atoms: C2_2  and  C3_3 
REMARK    2  A    between atoms: C4_6  and  C5_7 
REMARK       I    between atoms: C5_7  and  N2_9 
REMARK    3  A    between atoms: N2_9  and  C6_10 
REMARK    4  A    between atoms: C6_10  and  C7_11 
REMARK    5  A    between atoms: C6_10  and  C8_13 
REMARK       I    between atoms: C7_11  and  N3_14 
REMARK    6  A    between atoms: N3_14  and  C9_15 
REMARK    7  A    between atoms: C9_15  and  C10_16 
REMARK    8  A    between atoms: C9_15  and  C11_18 
REMARK       I    between atoms: C10_16  and  N4_21 
REMARK    9  A    between atoms: C11_18  and  C12_19 
REMARK   10  A    between atoms: C11_18  and  C13_20 
REMARK   11  A    between atoms: N4_21  and  C14_22 
REMARK   12  A    between atoms: C14_22  and  C15_23 
REMARK   13  A    between atoms: C14_22  and  C16_25 
REMARK       I    between atoms: C15_23  and  N6_40 
REMARK   14  A    between atoms: C16_25  and  C17_26 
REMARK   15  A    between atoms: C17_26  and  C18_27 
REMARK   16  A    between atoms: C17_26  and  C19_28 
REMARK   17  A    between atoms: C20_29  and  C21_30 
REMARK   18  A    between atoms: C20_29  and  C24_33 
REMARK   19  A    between atoms: C20_29  and  N6_40 
REMARK   20  A    between atoms: C21_30  and  C22_31 
REMARK   21  A    between atoms: C22_31  and  C23_32 
REMARK   22  A    between atoms: C23_32  and  O8_43 
REMARK   23  A    between atoms: C24_33  and  C25_34 
REMARK   24  A    between atoms: C28_38  and  O6_39 
REMARK   25  A    between atoms: C29_42  and  O8_43 
REMARK   26  A    between atoms: C29_42  and  C35_49 
ROOT
ATOM      1  C14 non d ame     -35.921   8.265  29.063  0.00  0.00     0.089 C 
ATOM      2  H20 non d ame     -37.002   8.250  29.201  0.00  0.00     0.087 H 
ENDROOT
BRANCH   1   3
ATOM      3  N4  non d ame     -35.599   7.302  28.021  0.00  0.00    -0.346 N 
ATOM      4  C10 non d ame     -36.414   6.042  27.869  0.00  0.00     0.241 C 
ATOM      5  O4  non d ame     -37.323   5.824  28.600  0.00  0.00    -0.271 OA
ATOM      6  H19 non d ame     -34.820   7.505  27.410  0.00  0.00     0.163 HD
BRANCH   4   7
ATOM      7  C9  non d ame     -36.070   5.059  26.781  0.00  0.00     0.092 C 
ATOM      8  H11 non d ame     -36.924   4.405  26.605  0.00  0.00     0.088 H 
BRANCH   7   9
ATOM      9  N3  non d ame     -35.814   5.783  25.531  0.00  0.00    -0.346 N 
ATOM     10  C7  non d ame     -36.725   5.647  24.421  0.00  0.00     0.240 C 
ATOM     11  O3  non d ame     -37.667   4.959  24.515  0.00  0.00    -0.271 OA
ATOM     12  H10 non d ame     -35.005   6.379  25.434  0.00  0.00     0.163 HD
BRANCH  10  13
ATOM     13  C6  non d ame     -36.446   6.417  23.093  0.00  0.00     0.086 C 
ATOM     14  H6  non d ame     -36.980   7.365  23.035  0.00  0.00     0.086 H 
BRANCH  13  15
ATOM     15  N2  non d ame     -35.029   6.731  23.019  0.00  0.00    -0.343 N 
ATOM     16  C5  non d ame     -34.608   8.062  22.575  0.00  0.00     0.273 C 
ATOM     17  O2  non d ame     -35.417   8.871  22.277  0.00  0.00    -0.266 OA
ATOM     18  H5  non d ame     -34.345   6.033  23.273  0.00  0.00     0.163 HD
BRANCH  16  19
ATOM     19  C4  non d ame     -33.113   8.409  22.494  0.00  0.00     0.154 A 
ATOM     20  C1  non d ame     -32.439   9.488  23.150  0.00  0.00    -0.017 A 
ATOM     21  C2  non d ame     -31.089   9.368  22.751  0.00  0.00     0.077 A 
ATOM     22  H1  non d ame     -32.864  10.241  23.812  0.00  0.00     0.091 H 
ATOM     23  O1  non d ame     -31.008   8.338  21.961  0.00  0.00    -0.218 OA
ATOM     24  N1  non d ame     -32.176   7.762  21.795  0.00  0.00    -0.123 NA
BRANCH  21  25
ATOM     25  C3  non d ame     -29.941  10.277  23.171  0.00  0.00    -0.029 C 
ATOM     26  H2  non d ame     -30.336  11.248  23.468  0.00  0.00     0.036 H 
ATOM     27  H3  non d ame     -29.412   9.828  24.012  0.00  0.00     0.036 H 
ATOM     28  H4  non d ame     -29.254  10.404  22.335  0.00  0.00     0.036 H 
ENDBRANCH  21  25
ENDBRANCH  16  19
ENDBRANCH  13  15
BRANCH  13  29
ATOM     29  C8  non d ame     -36.847   5.560  21.919  0.00  0.00    -0.049 C 
ATOM     30  H7  non d ame     -37.905   5.310  21.996  0.00  0.00     0.030 H 
ATOM     31  H8  non d ame     -36.670   6.107  20.993  0.00  0.00     0.030 H 
ATOM     32  H9  non d ame     -36.256   4.644  21.918  0.00  0.00     0.030 H 
ENDBRANCH  13  29
ENDBRANCH  10  13
ENDBRANCH   7   9
BRANCH   7  33
ATOM     33  C11 non d ame     -34.795   4.263  27.185  0.00  0.00    -0.033 C 
ATOM     34  H12 non d ame     -34.664   4.376  28.262  0.00  0.00     0.042 H 
BRANCH  33  35
ATOM     35  C12 non d ame     -34.960   2.739  26.891  0.00  0.00    -0.071 C 
ATOM     36  H13 non d ame     -36.019   2.500  26.794  0.00  0.00     0.028 H 
ATOM     37  H14 non d ame     -34.445   2.491  25.963  0.00  0.00     0.028 H 
ATOM     38  H15 non d ame     -34.531   2.162  27.711  0.00  0.00     0.028 H 
ENDBRANCH  33  35
BRANCH  33  39
ATOM     39  C13 non d ame     -33.526   4.842  26.481  0.00  0.00    -0.071 C 
ATOM     40  H16 non d ame     -32.694   4.148  26.603  0.00  0.00     0.028 H 
ATOM     41  H17 non d ame     -33.731   4.980  25.419  0.00  0.00     0.028 H 
ATOM     42  H18 non d ame     -33.269   5.802  26.928  0.00  0.00     0.028 H 
ENDBRANCH  33  39
ENDBRANCH   7  33
ENDBRANCH   4   7
ENDBRANCH   1   3
BRANCH   1  43
ATOM     43  C15 non d ame     -35.405   9.664  28.622  0.00  0.00     0.240 C 
ATOM     44  O5  non d ame     -36.138  10.599  28.644  0.00  0.00    -0.271 OA
ATOM     45  N6  non d ame     -33.992   9.841  28.180  0.00  0.00    -0.355 N 
ATOM     46  H46 non d ame     -33.358   9.055  28.162  0.00  0.00     0.162 HD
BRANCH  45  47
ATOM     47  C20 non d ame     -33.516  11.178  27.764  0.00  0.00     0.013 C 
ATOM     48  H30 non d ame     -34.300  11.900  27.994  0.00  0.00     0.072 H 
BRANCH  47  49
ATOM     49  C21 non d ame     -33.239  11.171  26.278  0.00  0.00    -0.038 C 
ATOM     50  H31 non d ame     -32.606  10.301  26.100  0.00  0.00     0.036 H 
ATOM     51  H32 non d ame     -34.215  11.243  25.797  0.00  0.00     0.036 H 
BRANCH  49  52
ATOM     52  C22 non d ame     -32.431  12.402  25.813  0.00  0.00     0.018 C 
ATOM     53  H33 non d ame     -31.677  12.568  26.581  0.00  0.00     0.048 H 
ATOM     54  H34 non d ame     -32.127  12.185  24.788  0.00  0.00     0.048 H 
BRANCH  52  55
ATOM     55  C23 non d ame     -33.267  13.710  25.743  0.00  0.00     0.259 C 
ATOM     56  O7  non d ame     -34.307  13.792  26.313  0.00  0.00    -0.265 OA
BRANCH  55  57
ATOM     57  O8  non d ame     -32.782  14.807  24.979  0.00  0.00    -0.317 OA
BRANCH  57  58
ATOM     58  C29 non d ame     -31.359  14.951  25.006  0.00  0.00     0.052 C 
ATOM     59  H47 non d ame     -31.170  15.930  25.446  0.00  0.00     0.082 H 
ATOM     60  H48 non d ame     -30.980  14.053  25.493  0.00  0.00     0.082 H 
BRANCH  58  61
ATOM     61  C35 non d ame     -30.851  14.965  23.540  0.00  0.00    -0.034 A 
ATOM     62  C30 non d ame     -31.210  16.005  22.688  0.00  0.00    -0.075 A 
ATOM     63  C31 non d ame     -30.755  16.017  21.371  0.00  0.00    -0.082 A 
ATOM     64  H49 non d ame     -31.849  16.809  23.052  0.00  0.00     0.084 H 
ATOM     65  C32 non d ame     -29.938  14.983  20.905  0.00  0.00    -0.083 A 
ATOM     66  H50 non d ame     -31.037  16.834  20.706  0.00  0.00     0.083 H 
ATOM     67  C33 non d ame     -29.585  13.946  21.757  0.00  0.00    -0.082 A 
ATOM     68  H51 non d ame     -29.577  14.986  19.876  0.00  0.00     0.083 H 
ATOM     69  C34 non d ame     -30.036  13.931  23.075  0.00  0.00    -0.075 A 
ATOM     70  H52 non d ame     -28.950  13.140  21.390  0.00  0.00     0.083 H 
ATOM     71  H53 non d ame     -29.754  13.113  23.739  0.00  0.00     0.084 H 
ENDBRANCH  58  61
ENDBRANCH  57  58
ENDBRANCH  55  57
ENDBRANCH  52  55
ENDBRANCH  49  52
ENDBRANCH  47  49
BRANCH  47  72
ATOM     72  C24 non d ame     -32.235  11.528  28.520  0.00  0.00    -0.039 C 
ATOM     73  H35 non d ame     -32.024  10.663  29.149  0.00  0.00     0.036 H 
ATOM     74  H36 non d ame     -31.521  11.832  27.754  0.00  0.00     0.036 H 
BRANCH  72  75
ATOM     75  C25 non d ame     -32.446  12.782  29.494  0.00  0.00    -0.001 C 
ATOM     76  C26 non d ame     -31.621  14.083  28.919  0.00  0.00    -0.035 C 
ATOM     77  C27 non d ame     -30.856  14.590  29.915  0.00  0.00     0.085 C 
ATOM     78  H38 non d ame     -30.891  13.764  28.175  0.00  0.00     0.036 H 
ATOM     79  H39 non d ame     -32.312  14.894  28.691  0.00  0.00     0.036 H 
ATOM     80  N5  non d ame     -30.833  13.562  31.021  0.00  0.00    -0.049 N 
ATOM     81  H40 non d ame     -29.854  14.683  29.495  0.00  0.00     0.075 H 
ATOM     82  H41 non d ame     -31.384  15.476  30.265  0.00  0.00     0.075 H 
ATOM     83  C28 non d ame     -32.023  12.524  30.686  0.00  0.00     0.193 C 
ATOM     84  H42 non d ame     -29.951  13.076  30.942  0.00  0.00     0.280 HD
ATOM     85  H43 non d ame     -31.064  14.054  31.872  0.00  0.00     0.280 HD
ATOM     86  H44 non d ame     -32.961  12.560  31.241  0.00  0.00     0.129 H 
ATOM     87  H37 non d ame     -33.495  12.934  29.751  0.00  0.00     0.046 H 
BRANCH  83  88
ATOM     88  O6  non d ame     -31.555  11.180  30.813  0.00  0.00    -0.369 OA
ATOM     89  H45 non d ame     -31.523  10.939  31.742  0.00  0.00     0.212 HD
ENDBRANCH  83  88
ENDBRANCH  72  75
ENDBRANCH  47  72
ENDBRANCH  45  47
ENDBRANCH   1  43
BRANCH   1  90
ATOM     90  C16 non d ame     -35.231   7.849  30.353  0.00  0.00    -0.035 C 
ATOM     91  H21 non d ame     -35.068   6.776  30.259  0.00  0.00     0.037 H 
ATOM     92  H22 non d ame     -34.381   8.523  30.456  0.00  0.00     0.037 H 
BRANCH  90  93
ATOM     93  C17 non d ame     -36.111   8.051  31.627  0.00  0.00    -0.059 C 
ATOM     94  H23 non d ame     -36.089   7.122  32.196  0.00  0.00     0.038 H 
BRANCH  93  95
ATOM     95  C18 non d ame     -35.562   9.187  32.549  0.00  0.00    -0.073 C 
ATOM     96  H24 non d ame     -34.609   9.543  32.158  0.00  0.00     0.028 H 
ATOM     97  H25 non d ame     -36.274  10.011  32.574  0.00  0.00     0.028 H 
ATOM     98  H26 non d ame     -35.419   8.799  33.557  0.00  0.00     0.028 H 
ENDBRANCH  93  95
BRANCH  93  99
ATOM     99  C19 non d ame     -37.571   8.316  31.247  0.00  0.00    -0.073 C 
ATOM    100  H27 non d ame     -38.135   7.385  31.301  0.00  0.00     0.028 H 
ATOM    101  H28 non d ame     -38.001   9.042  31.939  0.00  0.00     0.028 H 
ATOM    102  H29 non d ame     -37.616   8.711  30.233  0.00  0.00     0.028 H 
ENDBRANCH  93  99
ENDBRANCH  90  93
ENDBRANCH   1  90
TORSDOF 26
ENDMDL
MODEL 11
REMARK VINA RESULT:      -5.8      3.579      6.761
REMARK  26 active torsions:
REMARK  status: ('A' for Active; 'I' for Inactive)
REMARK    1  A    between atoms: C2_2  and  C3_3 
REMARK    2  A    between atoms: C4_6  and  C5_7 
REMARK       I    between atoms: C5_7  and  N2_9 
REMARK    3  A    between atoms: N2_9  and  C6_10 
REMARK    4  A    between atoms: C6_10  and  C7_11 
REMARK    5  A    between atoms: C6_10  and  C8_13 
REMARK       I    between atoms: C7_11  and  N3_14 
REMARK    6  A    between atoms: N3_14  and  C9_15 
REMARK    7  A    between atoms: C9_15  and  C10_16 
REMARK    8  A    between atoms: C9_15  and  C11_18 
REMARK       I    between atoms: C10_16  and  N4_21 
REMARK    9  A    between atoms: C11_18  and  C12_19 
REMARK   10  A    between atoms: C11_18  and  C13_20 
REMARK   11  A    between atoms: N4_21  and  C14_22 
REMARK   12  A    between atoms: C14_22  and  C15_23 
REMARK   13  A    between atoms: C14_22  and  C16_25 
REMARK       I    between atoms: C15_23  and  N6_40 
REMARK   14  A    between atoms: C16_25  and  C17_26 
REMARK   15  A    between atoms: C17_26  and  C18_27 
REMARK   16  A    between atoms: C17_26  and  C19_28 
REMARK   17  A    between atoms: C20_29  and  C21_30 
REMARK   18  A    between atoms: C20_29  and  C24_33 
REMARK   19  A    between atoms: C20_29  and  N6_40 
REMARK   20  A    between atoms: C21_30  and  C22_31 
REMARK   21  A    between atoms: C22_31  and  C23_32 
REMARK   22  A    between atoms: C23_32  and  O8_43 
REMARK   23  A    between atoms: C24_33  and  C25_34 
REMARK   24  A    between atoms: C28_38  and  O6_39 
REMARK   25  A    between atoms: C29_42  and  O8_43 
REMARK   26  A    between atoms: C29_42  and  C35_49 
ROOT
ATOM      1  C14 non d ame     -35.727  14.496  25.628  0.00  0.00     0.089 C 
ATOM      2  H20 non d ame     -35.933  14.199  24.600  0.00  0.00     0.087 H 
ENDROOT
BRANCH   1   3
ATOM      3  N4  non d ame     -34.380  14.051  25.951  0.00  0.00    -0.346 N 
ATOM      4  C10 non d ame     -33.997  12.602  25.791  0.00  0.00     0.241 C 
ATOM      5  O4  non d ame     -34.792  11.810  25.403  0.00  0.00    -0.271 OA
ATOM      6  H19 non d ame     -33.719  14.740  26.283  0.00  0.00     0.163 HD
BRANCH   4   7
ATOM      7  C9  non d ame     -32.596  12.160  26.125  0.00  0.00     0.092 C 
ATOM      8  H11 non d ame     -31.923  13.015  26.050  0.00  0.00     0.088 H 
BRANCH   7   9
ATOM      9  N3  non d ame     -32.549  11.692  27.513  0.00  0.00    -0.346 N 
ATOM     10  C7  non d ame     -32.322  12.631  28.583  0.00  0.00     0.240 C 
ATOM     11  O3  non d ame     -32.174  13.768  28.345  0.00  0.00    -0.271 OA
ATOM     12  H10 non d ame     -32.672  10.714  27.734  0.00  0.00     0.163 HD
BRANCH  10  13
ATOM     13  C6  non d ame     -32.269  12.126  30.059  0.00  0.00     0.086 C 
ATOM     14  H6  non d ame     -32.889  12.720  30.730  0.00  0.00     0.086 H 
BRANCH  13  15
ATOM     15  N2  non d ame     -32.785  10.768  30.110  0.00  0.00    -0.343 N 
ATOM     16  C5  non d ame     -33.923  10.461  30.979  0.00  0.00     0.273 C 
ATOM     17  O2  non d ame     -34.415  11.313  31.635  0.00  0.00    -0.266 OA
ATOM     18  H5  non d ame     -32.357  10.046  29.549  0.00  0.00     0.163 HD
BRANCH  16  19
ATOM     19  C4  non d ame     -34.479   9.030  31.043  0.00  0.00     0.154 A 
ATOM     20  C1  non d ame     -34.886   8.211  29.942  0.00  0.00    -0.017 A 
ATOM     21  C2  non d ame     -35.315   7.000  30.529  0.00  0.00     0.077 A 
ATOM     22  H1  non d ame     -34.873   8.458  28.880  0.00  0.00     0.091 H 
ATOM     23  O1  non d ame     -35.166   7.119  31.816  0.00  0.00    -0.218 OA
ATOM     24  N1  non d ame     -34.680   8.295  32.140  0.00  0.00    -0.123 NA
BRANCH  21  25
ATOM     25  C3  non d ame     -35.851   5.780  29.791  0.00  0.00    -0.029 C 
ATOM     26  H2  non d ame     -35.350   4.885  30.157  0.00  0.00     0.036 H 
ATOM     27  H3  non d ame     -36.923   5.693  29.965  0.00  0.00     0.036 H 
ATOM     28  H4  non d ame     -35.664   5.890  28.723  0.00  0.00     0.036 H 
ENDBRANCH  21  25
ENDBRANCH  16  19
ENDBRANCH  13  15
BRANCH  13  29
ATOM     29  C8  non d ame     -30.846  12.157  30.553  0.00  0.00    -0.049 C 
ATOM     30  H7  non d ame     -30.299  12.946  30.036  0.00  0.00     0.030 H 
ATOM     31  H8  non d ame     -30.838  12.353  31.625  0.00  0.00     0.030 H 
ATOM     32  H9  non d ame     -30.371  11.196  30.355  0.00  0.00     0.030 H 
ENDBRANCH  13  29
ENDBRANCH  10  13
ENDBRANCH   7   9
BRANCH   7  33
ATOM     33  C11 non d ame     -32.177  11.001  25.174  0.00  0.00    -0.033 C 
ATOM     34  H12 non d ame     -33.032  10.773  24.537  0.00  0.00     0.042 H 
BRANCH  33  35
ATOM     35  C12 non d ame     -30.999  11.426  24.243  0.00  0.00    -0.071 C 
ATOM     36  H13 non d ame     -30.074  11.455  24.818  0.00  0.00     0.028 H 
ATOM     37  H14 non d ame     -30.900  10.706  23.431  0.00  0.00     0.028 H 
ATOM     38  H15 non d ame     -31.201  12.414  23.830  0.00  0.00     0.028 H 
ENDBRANCH  33  35
BRANCH  33  39
ATOM     39  C13 non d ame     -31.822   9.713  25.985  0.00  0.00    -0.071 C 
ATOM     40  H16 non d ame     -32.695   9.388  26.551  0.00  0.00     0.028 H 
ATOM     41  H17 non d ame     -31.519   8.923  25.298  0.00  0.00     0.028 H 
ATOM     42  H18 non d ame     -31.003   9.930  26.671  0.00  0.00     0.028 H 
ENDBRANCH  33  39
ENDBRANCH   7  33
ENDBRANCH   4   7
ENDBRANCH   1   3
BRANCH   1  43
ATOM     43  C15 non d ame     -35.800  16.038  25.820  0.00  0.00     0.240 C 
ATOM     44  O5  non d ame     -36.255  16.720  24.960  0.00  0.00    -0.271 OA
ATOM     45  N6  non d ame     -35.309  16.664  27.081  0.00  0.00    -0.355 N 
ATOM     46  H46 non d ame     -34.925  16.094  27.821  0.00  0.00     0.162 HD
BRANCH  45  47
ATOM     47  C20 non d ame     -35.386  18.131  27.249  0.00  0.00     0.013 C 
ATOM     48  H30 non d ame     -35.722  18.560  26.305  0.00  0.00     0.072 H 
BRANCH  47  49
ATOM     49  C21 non d ame     -34.017  18.667  27.601  0.00  0.00    -0.038 C 
ATOM     50  H31 non d ame     -33.876  19.550  26.977  0.00  0.00     0.036 H 
ATOM     51  H32 non d ame     -34.007  18.759  28.687  0.00  0.00     0.036 H 
BRANCH  49  52
ATOM     52  C22 non d ame     -32.879  17.688  27.236  0.00  0.00     0.018 C 
ATOM     53  H33 non d ame     -31.973  18.116  27.663  0.00  0.00     0.048 H 
ATOM     54  H34 non d ame     -33.221  16.704  27.557  0.00  0.00     0.048 H 
BRANCH  52  55
ATOM     55  C23 non d ame     -32.618  17.573  25.708  0.00  0.00     0.259 C 
ATOM     56  O7  non d ame     -32.564  18.548  25.030  0.00  0.00    -0.265 OA
BRANCH  55  57
ATOM     57  O8  non d ame     -32.456  16.287  25.124  0.00  0.00    -0.317 OA
BRANCH  57  58
ATOM     58  C29 non d ame     -31.108  15.811  25.127  0.00  0.00     0.052 C 
ATOM     59  H47 non d ame     -30.505  16.634  25.511  0.00  0.00     0.082 H 
ATOM     60  H48 non d ame     -31.132  14.860  25.659  0.00  0.00     0.082 H 
BRANCH  58  61
ATOM     61  C35 non d ame     -30.691  15.540  23.657  0.00  0.00    -0.034 A 
ATOM     62  C30 non d ame     -29.569  14.766  23.382  0.00  0.00    -0.075 A 
ATOM     63  C31 non d ame     -29.194  14.523  22.061  0.00  0.00    -0.082 A 
ATOM     64  H49 non d ame     -28.982  14.349  24.201  0.00  0.00     0.084 H 
ATOM     65  C32 non d ame     -29.946  15.061  21.013  0.00  0.00    -0.083 A 
ATOM     66  H50 non d ame     -28.315  13.914  21.849  0.00  0.00     0.083 H 
ATOM     67  C33 non d ame     -31.063  15.836  21.292  0.00  0.00    -0.082 A 
ATOM     68  H51 non d ame     -29.660  14.876  19.977  0.00  0.00     0.083 H 
ATOM     69  C34 non d ame     -31.442  16.079  22.611  0.00  0.00    -0.075 A 
ATOM     70  H52 non d ame     -31.646  16.256  20.472  0.00  0.00     0.083 H 
ATOM     71  H53 non d ame     -32.322  16.688  22.822  0.00  0.00     0.084 H 
ENDBRANCH  58  61
ENDBRANCH  57  58
ENDBRANCH  55  57
ENDBRANCH  52  55
ENDBRANCH  49  52
ENDBRANCH  47  49
BRANCH  47  72
ATOM     72  C24 non d ame     -36.370  18.473  28.366  0.00  0.00    -0.039 C 
ATOM     73  H35 non d ame     -36.806  17.520  28.670  0.00  0.00     0.036 H 
ATOM     74  H36 non d ame     -35.801  19.064  29.083  0.00  0.00     0.036 H 
BRANCH  72  75
ATOM     75  C25 non d ame     -37.569  19.394  27.839  0.00  0.00    -0.001 C 
ATOM     76  C26 non d ame     -37.532  19.476  26.197  0.00  0.00    -0.035 C 
ATOM     77  C27 non d ame     -37.573  20.778  25.824  0.00  0.00     0.085 C 
ATOM     78  H38 non d ame     -36.566  19.135  25.827  0.00  0.00     0.036 H 
ATOM     79  H39 non d ame     -38.452  19.063  25.781  0.00  0.00     0.036 H 
ATOM     80  N5  non d ame     -37.304  21.600  27.061  0.00  0.00    -0.049 N 
ATOM     81  H40 non d ame     -36.747  20.906  25.125  0.00  0.00     0.075 H 
ATOM     82  H41 non d ame     -38.597  20.954  25.496  0.00  0.00     0.075 H 
ATOM     83  C28 non d ame     -37.480  20.593  28.310  0.00  0.00     0.193 C 
ATOM     84  H42 non d ame     -36.337  21.885  27.011  0.00  0.00     0.280 HD
ATOM     85  H43 non d ame     -38.034  22.297  27.104  0.00  0.00     0.280 HD
ATOM     86  H44 non d ame     -38.376  20.630  28.930  0.00  0.00     0.129 H 
ATOM     87  H37 non d ame     -38.522  19.136  28.301  0.00  0.00     0.046 H 
BRANCH  83  88
ATOM     88  O6  non d ame     -36.384  20.736  29.216  0.00  0.00    -0.369 OA
ATOM     89  H45 non d ame     -35.681  20.131  28.966  0.00  0.00     0.212 HD
ENDBRANCH  83  88
ENDBRANCH  72  75
ENDBRANCH  47  72
ENDBRANCH  45  47
ENDBRANCH   1  43
BRANCH   1  90
ATOM     90  C16 non d ame     -36.712  13.817  26.567  0.00  0.00    -0.035 C 
ATOM     91  H21 non d ame     -36.269  12.849  26.799  0.00  0.00     0.037 H 
ATOM     92  H22 non d ame     -36.895  14.538  27.364  0.00  0.00     0.037 H 
BRANCH  90  93
ATOM     93  C17 non d ame     -38.099  13.522  25.913  0.00  0.00    -0.059 C 
ATOM     94  H23 non d ame     -38.495  12.615  26.371  0.00  0.00     0.038 H 
BRANCH  93  95
ATOM     95  C18 non d ame     -39.127  14.671  26.166  0.00  0.00    -0.073 C 
ATOM     96  H24 non d ame     -39.078  15.389  25.348  0.00  0.00     0.028 H 
ATOM     97  H25 non d ame     -40.132  14.254  26.223  0.00  0.00     0.028 H 
ATOM     98  H26 non d ame     -38.888  15.172  27.104  0.00  0.00     0.028 H 
ENDBRANCH  93  95
BRANCH  93  99
ATOM     99  C19 non d ame     -37.949  13.245  24.415  0.00  0.00    -0.073 C 
ATOM    100  H27 non d ame     -38.932  13.067  23.978  0.00  0.00     0.028 H 
ATOM    101  H28 non d ame     -37.488  14.106  23.930  0.00  0.00     0.028 H 
ATOM    102  H29 non d ame     -37.321  12.367  24.268  0.00  0.00     0.028 H 
ENDBRANCH  93  99
ENDBRANCH  90  93
ENDBRANCH   1  90
TORSDOF 26
ENDMDL
MODEL 12
REMARK VINA RESULT:      -5.8      2.164      6.584
REMARK  26 active torsions:
REMARK  status: ('A' for Active; 'I' for Inactive)
REMARK    1  A    between atoms: C2_2  and  C3_3 
REMARK    2  A    between atoms: C4_6  and  C5_7 
REMARK       I    between atoms: C5_7  and  N2_9 
REMARK    3  A    between atoms: N2_9  and  C6_10 
REMARK    4  A    between atoms: C6_10  and  C7_11 
REMARK    5  A    between atoms: C6_10  and  C8_13 
REMARK       I    between atoms: C7_11  and  N3_14 
REMARK    6  A    between atoms: N3_14  and  C9_15 
REMARK    7  A    between atoms: C9_15  and  C10_16 
REMARK    8  A    between atoms: C9_15  and  C11_18 
REMARK       I    between atoms: C10_16  and  N4_21 
REMARK    9  A    between atoms: C11_18  and  C12_19 
REMARK   10  A    between atoms: C11_18  and  C13_20 
REMARK   11  A    between atoms: N4_21  and  C14_22 
REMARK   12  A    between atoms: C14_22  and  C15_23 
REMARK   13  A    between atoms: C14_22  and  C16_25 
REMARK       I    between atoms: C15_23  and  N6_40 
REMARK   14  A    between atoms: C16_25  and  C17_26 
REMARK   15  A    between atoms: C17_26  and  C18_27 
REMARK   16  A    between atoms: C17_26  and  C19_28 
REMARK   17  A    between atoms: C20_29  and  C21_30 
REMARK   18  A    between atoms: C20_29  and  C24_33 
REMARK   19  A    between atoms: C20_29  and  N6_40 
REMARK   20  A    between atoms: C21_30  and  C22_31 
REMARK   21  A    between atoms: C22_31  and  C23_32 
REMARK   22  A    between atoms: C23_32  and  O8_43 
REMARK   23  A    between atoms: C24_33  and  C25_34 
REMARK   24  A    between atoms: C28_38  and  O6_39 
REMARK   25  A    between atoms: C29_42  and  O8_43 
REMARK   26  A    between atoms: C29_42  and  C35_49 
ROOT
ATOM      1  C14 non d ame     -34.278  12.768  26.921  0.00  0.00     0.089 C 
ATOM      2  H20 non d ame     -34.972  12.370  26.180  0.00  0.00     0.087 H 
ENDROOT
BRANCH   1   3
ATOM      3  N4  non d ame     -34.514  12.057  28.168  0.00  0.00    -0.346 N 
ATOM      4  C10 non d ame     -34.250  10.575  28.262  0.00  0.00     0.241 C 
ATOM      5  O4  non d ame     -33.851   9.976  27.318  0.00  0.00    -0.271 OA
ATOM      6  H19 non d ame     -34.856  12.584  28.959  0.00  0.00     0.163 HD
BRANCH   4   7
ATOM      7  C9  non d ame     -34.495   9.856  29.562  0.00  0.00     0.092 C 
ATOM      8  H11 non d ame     -35.514  10.052  29.894  0.00  0.00     0.088 H 
BRANCH   7   9
ATOM      9  N3  non d ame     -34.378   8.410  29.351  0.00  0.00    -0.346 N 
ATOM     10  C7  non d ame     -35.158   7.499  30.153  0.00  0.00     0.240 C 
ATOM     11  O3  non d ame     -35.882   7.913  30.974  0.00  0.00    -0.271 OA
ATOM     12  H10 non d ame     -33.756   8.038  28.648  0.00  0.00     0.163 HD
BRANCH  10  13
ATOM     13  C6  non d ame     -35.027   5.961  29.926  0.00  0.00     0.086 C 
ATOM     14  H6  non d ame     -35.984   5.484  29.714  0.00  0.00     0.086 H 
BRANCH  13  15
ATOM     15  N2  non d ame     -34.180   5.726  28.769  0.00  0.00    -0.343 N 
ATOM     16  C5  non d ame     -34.791   5.573  27.446  0.00  0.00     0.273 C 
ATOM     17  O2  non d ame     -35.965   5.639  27.325  0.00  0.00    -0.266 OA
ATOM     18  H5  non d ame     -33.178   5.669  28.882  0.00  0.00     0.163 HD
BRANCH  16  19
ATOM     19  C4  non d ame     -33.907   5.326  26.214  0.00  0.00     0.154 A 
ATOM     20  C1  non d ame     -34.329   4.870  24.925  0.00  0.00    -0.017 A 
ATOM     21  C2  non d ame     -33.146   4.809  24.156  0.00  0.00     0.077 A 
ATOM     22  H1  non d ame     -35.339   4.622  24.598  0.00  0.00     0.091 H 
ATOM     23  O1  non d ame     -32.165   5.188  24.922  0.00  0.00    -0.218 OA
ATOM     24  N1  non d ame     -32.585   5.495  26.128  0.00  0.00    -0.123 NA
BRANCH  21  25
ATOM     25  C3  non d ame     -33.039   4.379  22.698  0.00  0.00    -0.029 C 
ATOM     26  H2  non d ame     -32.004   4.124  22.469  0.00  0.00     0.036 H 
ATOM     27  H3  non d ame     -33.673   3.509  22.529  0.00  0.00     0.036 H 
ATOM     28  H4  non d ame     -33.364   5.195  22.054  0.00  0.00     0.036 H 
ENDBRANCH  21  25
ENDBRANCH  16  19
ENDBRANCH  13  15
BRANCH  13  29
ATOM     29  C8  non d ame     -34.422   5.319  31.148  0.00  0.00    -0.049 C 
ATOM     30  H7  non d ame     -34.328   4.246  30.986  0.00  0.00     0.030 H 
ATOM     31  H8  non d ame     -33.436   5.746  31.332  0.00  0.00     0.030 H 
ATOM     32  H9  non d ame     -35.064   5.501  32.010  0.00  0.00     0.030 H 
ENDBRANCH  13  29
ENDBRANCH  10  13
ENDBRANCH   7   9
BRANCH   7  33
ATOM     33  C11 non d ame     -33.439  10.310  30.612  0.00  0.00    -0.033 C 
ATOM     34  H12 non d ame     -33.085   9.419  31.130  0.00  0.00     0.042 H 
BRANCH  33  35
ATOM     35  C12 non d ame     -32.205  10.976  29.927  0.00  0.00    -0.071 C 
ATOM     36  H13 non d ame     -32.528  11.860  29.377  0.00  0.00     0.028 H 
ATOM     37  H14 non d ame     -31.480  11.265  30.687  0.00  0.00     0.028 H 
ATOM     38  H15 non d ame     -31.747  10.267  29.238  0.00  0.00     0.028 H 
ENDBRANCH  33  35
BRANCH  33  39
ATOM     39  C13 non d ame     -34.079  11.262  31.673  0.00  0.00    -0.071 C 
ATOM     40  H16 non d ame     -34.965  10.789  32.098  0.00  0.00     0.028 H 
ATOM     41  H17 non d ame     -33.358  11.461  32.466  0.00  0.00     0.028 H 
ATOM     42  H18 non d ame     -34.361  12.201  31.196  0.00  0.00     0.028 H 
ENDBRANCH  33  39
ENDBRANCH   7  33
ENDBRANCH   4   7
ENDBRANCH   1   3
BRANCH   1  43
ATOM     43  C15 non d ame     -32.793  12.561  26.506  0.00  0.00     0.240 C 
ATOM     44  O5  non d ame     -31.921  12.921  27.229  0.00  0.00    -0.271 OA
ATOM     45  N6  non d ame     -32.458  11.906  25.209  0.00  0.00    -0.355 N 
ATOM     46  H46 non d ame     -33.189  11.591  24.589  0.00  0.00     0.162 HD
BRANCH  45  47
ATOM     47  C20 non d ame     -31.041  11.715  24.830  0.00  0.00     0.013 C 
ATOM     48  H30 non d ame     -30.424  11.988  25.686  0.00  0.00     0.072 H 
BRANCH  47  49
ATOM     49  C21 non d ame     -30.715  12.606  23.652  0.00  0.00    -0.038 C 
ATOM     50  H31 non d ame     -29.654  12.839  23.745  0.00  0.00     0.036 H 
ATOM     51  H32 non d ame     -31.082  12.077  22.773  0.00  0.00     0.036 H 
BRANCH  49  52
ATOM     52  C22 non d ame     -31.464  13.955  23.696  0.00  0.00     0.018 C 
ATOM     53  H33 non d ame     -31.919  14.072  22.713  0.00  0.00     0.048 H 
ATOM     54  H34 non d ame     -32.092  13.915  24.587  0.00  0.00     0.048 H 
BRANCH  52  55
ATOM     55  C23 non d ame     -30.531  15.184  23.885  0.00  0.00     0.259 C 
ATOM     56  O7  non d ame     -29.422  15.170  23.459  0.00  0.00    -0.265 OA
BRANCH  55  57
ATOM     57  O8  non d ame     -31.014  16.324  24.586  0.00  0.00    -0.317 OA
BRANCH  57  58
ATOM     58  C29 non d ame     -31.701  16.012  25.801  0.00  0.00     0.052 C 
ATOM     59  H47 non d ame     -32.438  15.254  25.538  0.00  0.00     0.082 H 
ATOM     60  H48 non d ame     -30.923  15.786  26.530  0.00  0.00     0.082 H 
BRANCH  58  61
ATOM     61  C35 non d ame     -32.453  17.288  26.267  0.00  0.00    -0.034 A 
ATOM     62  C30 non d ame     -33.207  18.022  25.357  0.00  0.00    -0.075 A 
ATOM     63  C31 non d ame     -33.882  19.168  25.775  0.00  0.00    -0.082 A 
ATOM     64  H49 non d ame     -33.269  17.701  24.318  0.00  0.00     0.084 H 
ATOM     65  C32 non d ame     -33.799  19.580  27.108  0.00  0.00    -0.083 A 
ATOM     66  H50 non d ame     -34.474  19.741  25.060  0.00  0.00     0.083 H 
ATOM     67  C33 non d ame     -33.043  18.846  28.011  0.00  0.00    -0.082 A 
ATOM     68  H51 non d ame     -34.325  20.475  27.443  0.00  0.00     0.083 H 
ATOM     69  C34 non d ame     -32.368  17.699  27.598  0.00  0.00    -0.075 A 
ATOM     70  H52 non d ame     -32.978  19.171  29.049  0.00  0.00     0.083 H 
ATOM     71  H53 non d ame     -31.776  17.127  28.314  0.00  0.00     0.084 H 
ENDBRANCH  58  61
ENDBRANCH  57  58
ENDBRANCH  55  57
ENDBRANCH  52  55
ENDBRANCH  49  52
ENDBRANCH  47  49
BRANCH  47  72
ATOM     72  C24 non d ame     -30.801  10.256  24.447  0.00  0.00    -0.039 C 
ATOM     73  H35 non d ame     -29.734  10.089  24.595  0.00  0.00     0.036 H 
ATOM     74  H36 non d ame     -31.527   9.682  25.023  0.00  0.00     0.036 H 
BRANCH  72  75
ATOM     75  C25 non d ame     -31.110   9.991  22.898  0.00  0.00    -0.001 C 
ATOM     76  C26 non d ame     -32.518   9.156  22.742  0.00  0.00    -0.035 C 
ATOM     77  C27 non d ame     -32.302   8.078  21.950  0.00  0.00     0.085 C 
ATOM     78  H38 non d ame     -32.800   8.717  23.699  0.00  0.00     0.036 H 
ATOM     79  H39 non d ame     -33.242   9.745  22.179  0.00  0.00     0.036 H 
ATOM     80  N5  non d ame     -30.806   7.921  21.819  0.00  0.00    -0.049 N 
ATOM     81  H40 non d ame     -32.702   7.227  22.501  0.00  0.00     0.075 H 
ATOM     82  H41 non d ame     -32.718   8.343  20.979  0.00  0.00     0.075 H 
ATOM     83  C28 non d ame     -30.166   9.307  22.342  0.00  0.00     0.193 C 
ATOM     84  H42 non d ame     -30.539   7.183  22.454  0.00  0.00     0.280 HD
ATOM     85  H43 non d ame     -30.615   7.831  20.831  0.00  0.00     0.280 HD
ATOM     86  H44 non d ame     -29.780  10.041  21.635  0.00  0.00     0.129 H 
ATOM     87  H37 non d ame     -30.999  10.892  22.294  0.00  0.00     0.046 H 
BRANCH  83  88
ATOM     88  O6  non d ame     -29.090   9.043  23.244  0.00  0.00    -0.369 OA
ATOM     89  H45 non d ame     -29.241   9.512  24.069  0.00  0.00     0.212 HD
ENDBRANCH  83  88
ENDBRANCH  72  75
ENDBRANCH  47  72
ENDBRANCH  45  47
ENDBRANCH   1  43
BRANCH   1  90
ATOM     90  C16 non d ame     -34.547  14.249  27.135  0.00  0.00    -0.035 C 
ATOM     91  H21 non d ame     -35.096  14.309  28.074  0.00  0.00     0.037 H 
ATOM     92  H22 non d ame     -33.576  14.735  27.040  0.00  0.00     0.037 H 
BRANCH  90  93
ATOM     93  C17 non d ame     -35.467  14.883  26.045  0.00  0.00    -0.059 C 
ATOM     94  H23 non d ame     -34.830  15.432  25.352  0.00  0.00     0.038 H 
BRANCH  93  95
ATOM     95  C18 non d ame     -36.241  13.802  25.225  0.00  0.00    -0.073 C 
ATOM     96  H24 non d ame     -35.531  13.188  24.672  0.00  0.00     0.028 H 
ATOM     97  H25 non d ame     -36.813  13.171  25.905  0.00  0.00     0.028 H 
ATOM     98  H26 non d ame     -36.919  14.292  24.527  0.00  0.00     0.028 H 
ENDBRANCH  93  95
BRANCH  93  99
ATOM     99  C19 non d ame     -36.437  15.892  26.667  0.00  0.00    -0.073 C 
ATOM    100  H27 non d ame     -35.873  16.725  27.089  0.00  0.00     0.028 H 
ATOM    101  H28 non d ame     -37.116  16.264  25.900  0.00  0.00     0.028 H 
ATOM    102  H29 non d ame     -37.011  15.405  27.455  0.00  0.00     0.028 H 
ENDBRANCH  93  99
ENDBRANCH  90  93
ENDBRANCH   1  90
TORSDOF 26
ENDMDL
MODEL 13
REMARK VINA RESULT:      -5.8      2.162      3.742
REMARK  26 active torsions:
REMARK  status: ('A' for Active; 'I' for Inactive)
REMARK    1  A    between atoms: C2_2  and  C3_3 
REMARK    2  A    between atoms: C4_6  and  C5_7 
REMARK       I    between atoms: C5_7  and  N2_9 
REMARK    3  A    between atoms: N2_9  and  C6_10 
REMARK    4  A    between atoms: C6_10  and  C7_11 
REMARK    5  A    between atoms: C6_10  and  C8_13 
REMARK       I    between atoms: C7_11  and  N3_14 
REMARK    6  A    between atoms: N3_14  and  C9_15 
REMARK    7  A    between atoms: C9_15  and  C10_16 
REMARK    8  A    between atoms: C9_15  and  C11_18 
REMARK       I    between atoms: C10_16  and  N4_21 
REMARK    9  A    between atoms: C11_18  and  C12_19 
REMARK   10  A    between atoms: C11_18  and  C13_20 
REMARK   11  A    between atoms: N4_21  and  C14_22 
REMARK   12  A    between atoms: C14_22  and  C15_23 
REMARK   13  A    between atoms: C14_22  and  C16_25 
REMARK       I    between atoms: C15_23  and  N6_40 
REMARK   14  A    between atoms: C16_25  and  C17_26 
REMARK   15  A    between atoms: C17_26  and  C18_27 
REMARK   16  A    between atoms: C17_26  and  C19_28 
REMARK   17  A    between atoms: C20_29  and  C21_30 
REMARK   18  A    between atoms: C20_29  and  C24_33 
REMARK   19  A    between atoms: C20_29  and  N6_40 
REMARK   20  A    between atoms: C21_30  and  C22_31 
REMARK   21  A    between atoms: C22_31  and  C23_32 
REMARK   22  A    between atoms: C23_32  and  O8_43 
REMARK   23  A    between atoms: C24_33  and  C25_34 
REMARK   24  A    between atoms: C28_38  and  O6_39 
REMARK   25  A    between atoms: C29_42  and  O8_43 
REMARK   26  A    between atoms: C29_42  and  C35_49 
ROOT
ATOM      1  C14 non d ame     -32.241   8.246  25.127  0.00  0.00     0.089 C 
ATOM      2  H20 non d ame     -31.469   8.053  25.873  0.00  0.00     0.087 H 
ENDROOT
BRANCH   1   3
ATOM      3  N4  non d ame     -33.406   7.452  25.486  0.00  0.00    -0.346 N 
ATOM      4  C10 non d ame     -33.254   6.224  26.348  0.00  0.00     0.241 C 
ATOM      5  O4  non d ame     -32.183   5.892  26.737  0.00  0.00    -0.271 OA
ATOM      6  H19 non d ame     -34.308   7.750  25.143  0.00  0.00     0.163 HD
BRANCH   4   7
ATOM      7  C9  non d ame     -34.472   5.417  26.715  0.00  0.00     0.092 C 
ATOM      8  H11 non d ame     -34.163   4.409  26.992  0.00  0.00     0.088 H 
BRANCH   7   9
ATOM      9  N3  non d ame     -35.116   6.011  27.890  0.00  0.00    -0.346 N 
ATOM     10  C7  non d ame     -34.808   5.515  29.209  0.00  0.00     0.240 C 
ATOM     11  O3  non d ame     -34.046   4.638  29.343  0.00  0.00    -0.271 OA
ATOM     12  H10 non d ame     -35.778   6.768  27.790  0.00  0.00     0.163 HD
BRANCH  10  13
ATOM     13  C6  non d ame     -35.500   6.150  30.455  0.00  0.00     0.086 C 
ATOM     14  H6  non d ame     -35.562   5.463  31.298  0.00  0.00     0.086 H 
BRANCH  13  15
ATOM     15  N2  non d ame     -34.714   7.287  30.902  0.00  0.00    -0.343 N 
ATOM     16  C5  non d ame     -34.803   8.556  30.177  0.00  0.00     0.273 C 
ATOM     17  O2  non d ame     -35.508   8.651  29.233  0.00  0.00    -0.266 OA
ATOM     18  H5  non d ame     -34.112   7.197  31.709  0.00  0.00     0.163 HD
BRANCH  16  19
ATOM     19  C4  non d ame     -33.978   9.767  30.639  0.00  0.00     0.154 A 
ATOM     20  C1  non d ame     -32.781  10.278  30.043  0.00  0.00    -0.017 A 
ATOM     21  C2  non d ame     -32.424  11.389  30.839  0.00  0.00     0.077 A 
ATOM     22  H1  non d ame     -32.254   9.900  29.167  0.00  0.00     0.091 H 
ATOM     23  O1  non d ame     -33.318  11.496  31.778  0.00  0.00    -0.218 OA
ATOM     24  N1  non d ame     -34.235  10.561  31.683  0.00  0.00    -0.123 NA
BRANCH  21  25
ATOM     25  C3  non d ame     -31.216  12.294  30.633  0.00  0.00    -0.029 C 
ATOM     26  H2  non d ame     -31.526  13.201  30.116  0.00  0.00     0.036 H 
ATOM     27  H3  non d ame     -30.790  12.555  31.601  0.00  0.00     0.036 H 
ATOM     28  H4  non d ame     -30.469  11.772  30.036  0.00  0.00     0.036 H 
ENDBRANCH  21  25
ENDBRANCH  16  19
ENDBRANCH  13  15
BRANCH  13  29
ATOM     29  C8  non d ame     -36.892   6.597  30.087  0.00  0.00    -0.049 C 
ATOM     30  H7  non d ame     -37.440   6.860  30.992  0.00  0.00     0.030 H 
ATOM     31  H8  non d ame     -36.833   7.467  29.433  0.00  0.00     0.030 H 
ATOM     32  H9  non d ame     -37.409   5.788  29.571  0.00  0.00     0.030 H 
ENDBRANCH  13  29
ENDBRANCH  10  13
ENDBRANCH   7   9
BRANCH   7  33
ATOM     33  C11 non d ame     -35.472   5.416  25.522  0.00  0.00    -0.033 C 
ATOM     34  H12 non d ame     -35.427   6.399  25.055  0.00  0.00     0.042 H 
BRANCH  33  35
ATOM     35  C12 non d ame     -35.069   4.364  24.443  0.00  0.00    -0.071 C 
ATOM     36  H13 non d ame     -35.895   3.670  24.285  0.00  0.00     0.028 H 
ATOM     37  H14 non d ame     -34.839   4.873  23.507  0.00  0.00     0.028 H 
ATOM     38  H15 non d ame     -34.192   3.813  24.782  0.00  0.00     0.028 H 
ENDBRANCH  33  35
BRANCH  33  39
ATOM     39  C13 non d ame     -36.935   5.185  26.020  0.00  0.00    -0.071 C 
ATOM     40  H16 non d ame     -37.070   5.666  26.989  0.00  0.00     0.028 H 
ATOM     41  H17 non d ame     -37.636   5.612  25.301  0.00  0.00     0.028 H 
ATOM     42  H18 non d ame     -37.122   4.115  26.116  0.00  0.00     0.028 H 
ENDBRANCH  33  39
ENDBRANCH   7  33
ENDBRANCH   4   7
ENDBRANCH   1   3
BRANCH   1  43
ATOM     43  C15 non d ame     -32.656   9.745  25.085  0.00  0.00     0.240 C 
ATOM     44  O5  non d ame     -33.762  10.043  24.768  0.00  0.00    -0.271 OA
ATOM     45  N6  non d ame     -31.677  10.808  25.451  0.00  0.00    -0.355 N 
ATOM     46  H46 non d ame     -30.737  10.567  25.728  0.00  0.00     0.162 HD
BRANCH  45  47
ATOM     47  C20 non d ame     -32.088  12.228  25.408  0.00  0.00     0.013 C 
ATOM     48  H30 non d ame     -33.140  12.265  25.126  0.00  0.00     0.072 H 
BRANCH  47  49
ATOM     49  C21 non d ame     -31.252  12.960  24.383  0.00  0.00    -0.038 C 
ATOM     50  H31 non d ame     -30.291  12.444  24.364  0.00  0.00     0.036 H 
ATOM     51  H32 non d ame     -31.864  13.005  23.482  0.00  0.00     0.036 H 
BRANCH  49  52
ATOM     52  C22 non d ame     -30.956  14.421  24.783  0.00  0.00     0.018 C 
ATOM     53  H33 non d ame     -31.411  14.557  25.763  0.00  0.00     0.048 H 
ATOM     54  H34 non d ame     -29.880  14.549  24.659  0.00  0.00     0.048 H 
BRANCH  52  55
ATOM     55  C23 non d ame     -31.622  15.473  23.853  0.00  0.00     0.259 C 
ATOM     56  O7  non d ame     -31.410  15.465  22.684  0.00  0.00    -0.265 OA
BRANCH  55  57
ATOM     57  O8  non d ame     -32.482  16.456  24.416  0.00  0.00    -0.317 OA
BRANCH  57  58
ATOM     58  C29 non d ame     -32.157  16.811  25.763  0.00  0.00     0.052 C 
ATOM     59  H47 non d ame     -32.435  15.949  26.371  0.00  0.00     0.082 H 
ATOM     60  H48 non d ame     -31.120  17.147  25.738  0.00  0.00     0.082 H 
BRANCH  58  61
ATOM     61  C35 non d ame     -33.052  18.011  26.172  0.00  0.00    -0.034 A 
ATOM     62  C30 non d ame     -32.525  19.042  26.944  0.00  0.00    -0.075 A 
ATOM     63  C31 non d ame     -33.329  20.120  27.311  0.00  0.00    -0.082 A 
ATOM     64  H49 non d ame     -31.483  19.005  27.261  0.00  0.00     0.084 H 
ATOM     65  C32 non d ame     -34.666  20.163  26.906  0.00  0.00    -0.083 A 
ATOM     66  H50 non d ame     -32.913  20.927  27.915  0.00  0.00     0.083 H 
ATOM     67  C33 non d ame     -35.188  19.130  26.139  0.00  0.00    -0.082 A 
ATOM     68  H51 non d ame     -35.302  21.002  27.189  0.00  0.00     0.083 H 
ATOM     69  C34 non d ame     -34.388  18.052  25.768  0.00  0.00    -0.075 A 
ATOM     70  H52 non d ame     -36.232  19.166  25.827  0.00  0.00     0.083 H 
ATOM     71  H53 non d ame     -34.805  17.245  25.165  0.00  0.00     0.084 H 
ENDBRANCH  58  61
ENDBRANCH  57  58
ENDBRANCH  55  57
ENDBRANCH  52  55
ENDBRANCH  49  52
ENDBRANCH  47  49
BRANCH  47  72
ATOM     72  C24 non d ame     -31.885  12.866  26.781  0.00  0.00    -0.039 C 
ATOM     73  H35 non d ame     -31.288  12.151  27.348  0.00  0.00     0.036 H 
ATOM     74  H36 non d ame     -31.495  13.865  26.582  0.00  0.00     0.036 H 
BRANCH  72  75
ATOM     75  C25 non d ame     -33.272  13.048  27.561  0.00  0.00    -0.001 C 
ATOM     76  C26 non d ame     -34.491  13.297  26.486  0.00  0.00    -0.035 C 
ATOM     77  C27 non d ame     -35.180  14.403  26.856  0.00  0.00     0.085 C 
ATOM     78  H38 non d ame     -34.082  13.565  25.512  0.00  0.00     0.036 H 
ATOM     79  H39 non d ame     -35.229  12.498  26.566  0.00  0.00     0.036 H 
ATOM     80  N5  non d ame     -34.347  15.116  27.893  0.00  0.00    -0.049 N 
ATOM     81  H40 non d ame     -35.240  15.021  25.960  0.00  0.00     0.075 H 
ATOM     82  H41 non d ame     -36.092  14.034  27.324  0.00  0.00     0.075 H 
ATOM     83  C28 non d ame     -33.227  14.055  28.368  0.00  0.00     0.193 C 
ATOM     84  H42 non d ame     -33.887  15.878  27.416  0.00  0.00     0.280 HD
ATOM     85  H43 non d ame     -34.962  15.305  28.672  0.00  0.00     0.280 HD
ATOM     86  H44 non d ame     -33.318  13.545  29.327  0.00  0.00     0.129 H 
ATOM     87  H37 non d ame     -33.426  12.276  28.315  0.00  0.00     0.046 H 
BRANCH  83  88
ATOM     88  O6  non d ame     -31.939  14.674  28.385  0.00  0.00    -0.369 OA
ATOM     89  H45 non d ame     -31.684  14.908  27.490  0.00  0.00     0.212 HD
ENDBRANCH  83  88
ENDBRANCH  72  75
ENDBRANCH  47  72
ENDBRANCH  45  47
ENDBRANCH   1  43
BRANCH   1  90
ATOM     90  C16 non d ame     -31.750   7.814  23.754  0.00  0.00    -0.035 C 
ATOM     91  H21 non d ame     -31.473   8.735  23.243  0.00  0.00     0.037 H 
ATOM     92  H22 non d ame     -30.997   7.049  23.945  0.00  0.00     0.037 H 
BRANCH  90  93
ATOM     93  C17 non d ame     -32.853   7.139  22.879  0.00  0.00    -0.059 C 
ATOM     94  H23 non d ame     -33.698   6.911  23.528  0.00  0.00     0.038 H 
BRANCH  93  95
ATOM     95  C18 non d ame     -33.366   8.084  21.745  0.00  0.00    -0.073 C 
ATOM     96  H24 non d ame     -32.516   8.486  21.194  0.00  0.00     0.028 H 
ATOM     97  H25 non d ame     -34.005   7.522  21.065  0.00  0.00     0.028 H 
ATOM     98  H26 non d ame     -33.934   8.903  22.184  0.00  0.00     0.028 H 
ENDBRANCH  93  95
BRANCH  93  99
ATOM     99  C19 non d ame     -32.355   5.813  22.298  0.00  0.00    -0.073 C 
ATOM    100  H27 non d ame     -31.289   5.704  22.502  0.00  0.00     0.028 H 
ATOM    101  H28 non d ame     -32.898   4.987  22.759  0.00  0.00     0.028 H 
ATOM    102  H29 non d ame     -32.523   5.801  21.222  0.00  0.00     0.028 H 
ENDBRANCH  93  99
ENDBRANCH  90  93
ENDBRANCH   1  90
TORSDOF 26
ENDMDL
MODEL 14
REMARK VINA RESULT:      -5.8      2.537      5.510
REMARK  26 active torsions:
REMARK  status: ('A' for Active; 'I' for Inactive)
REMARK    1  A    between atoms: C2_2  and  C3_3 
REMARK    2  A    between atoms: C4_6  and  C5_7 
REMARK       I    between atoms: C5_7  and  N2_9 
REMARK    3  A    between atoms: N2_9  and  C6_10 
REMARK    4  A    between atoms: C6_10  and  C7_11 
REMARK    5  A    between atoms: C6_10  and  C8_13 
REMARK       I    between atoms: C7_11  and  N3_14 
REMARK    6  A    between atoms: N3_14  and  C9_15 
REMARK    7  A    between atoms: C9_15  and  C10_16 
REMARK    8  A    between atoms: C9_15  and  C11_18 
REMARK       I    between atoms: C10_16  and  N4_21 
REMARK    9  A    between atoms: C11_18  and  C12_19 
REMARK   10  A    between atoms: C11_18  and  C13_20 
REMARK   11  A    between atoms: N4_21  and  C14_22 
REMARK   12  A    between atoms: C14_22  and  C15_23 
REMARK   13  A    between atoms: C14_22  and  C16_25 
REMARK       I    between atoms: C15_23  and  N6_40 
REMARK   14  A    between atoms: C16_25  and  C17_26 
REMARK   15  A    between atoms: C17_26  and  C18_27 
REMARK   16  A    between atoms: C17_26  and  C19_28 
REMARK   17  A    between atoms: C20_29  and  C21_30 
REMARK   18  A    between atoms: C20_29  and  C24_33 
REMARK   19  A    between atoms: C20_29  and  N6_40 
REMARK   20  A    between atoms: C21_30  and  C22_31 
REMARK   21  A    between atoms: C22_31  and  C23_32 
REMARK   22  A    between atoms: C23_32  and  O8_43 
REMARK   23  A    between atoms: C24_33  and  C25_34 
REMARK   24  A    between atoms: C28_38  and  O6_39 
REMARK   25  A    between atoms: C29_42  and  O8_43 
REMARK   26  A    between atoms: C29_42  and  C35_49 
ROOT
ATOM      1  C14 non d ame     -32.081  12.364  27.534  0.00  0.00     0.089 C 
ATOM      2  H20 non d ame     -33.058  12.299  28.014  0.00  0.00     0.087 H 
ENDROOT
BRANCH   1   3
ATOM      3  N4  non d ame     -31.962  11.231  26.628  0.00  0.00    -0.346 N 
ATOM      4  C10 non d ame     -32.774   9.982  26.859  0.00  0.00     0.241 C 
ATOM      5  O4  non d ame     -33.515   9.911  27.784  0.00  0.00    -0.271 OA
ATOM      6  H19 non d ame     -31.324  11.312  25.849  0.00  0.00     0.163 HD
BRANCH   4   7
ATOM      7  C9  non d ame     -32.642   8.822  25.908  0.00  0.00     0.092 C 
ATOM      8  H11 non d ame     -31.617   8.453  25.933  0.00  0.00     0.088 H 
BRANCH   7   9
ATOM      9  N3  non d ame     -33.509   7.725  26.351  0.00  0.00    -0.346 N 
ATOM     10  C7  non d ame     -32.941   6.592  27.040  0.00  0.00     0.240 C 
ATOM     11  O3  non d ame     -31.790   6.546  27.245  0.00  0.00    -0.271 OA
ATOM     12  H10 non d ame     -34.504   7.751  26.180  0.00  0.00     0.163 HD
BRANCH  10  13
ATOM     13  C6  non d ame     -33.868   5.427  27.506  0.00  0.00     0.086 C 
ATOM     14  H6  non d ame     -33.389   4.773  28.235  0.00  0.00     0.086 H 
BRANCH  13  15
ATOM     15  N2  non d ame     -35.039   5.988  28.159  0.00  0.00    -0.343 N 
ATOM     16  C5  non d ame     -35.244   5.764  29.591  0.00  0.00     0.273 C 
ATOM     17  O2  non d ame     -34.463   5.128  30.209  0.00  0.00    -0.266 OA
ATOM     18  H5  non d ame     -35.704   6.528  27.622  0.00  0.00     0.163 HD
BRANCH  16  19
ATOM     19  C4  non d ame     -36.477   6.353  30.294  0.00  0.00     0.154 A 
ATOM     20  C1  non d ame     -36.909   7.717  30.284  0.00  0.00    -0.017 A 
ATOM     21  C2  non d ame     -38.081   7.734  31.072  0.00  0.00     0.077 A 
ATOM     22  H1  non d ame     -36.442   8.566  29.783  0.00  0.00     0.091 H 
ATOM     23  O1  non d ame     -38.291   6.516  31.480  0.00  0.00    -0.218 OA
ATOM     24  N1  non d ame     -37.368   5.693  31.039  0.00  0.00    -0.123 NA
BRANCH  21  25
ATOM     25  C3  non d ame     -38.941   8.951  31.384  0.00  0.00    -0.029 C 
ATOM     26  H2  non d ame     -38.500   9.835  30.925  0.00  0.00     0.036 H 
ATOM     27  H3  non d ame     -39.945   8.798  30.988  0.00  0.00     0.036 H 
ATOM     28  H4  non d ame     -38.995   9.091  32.464  0.00  0.00     0.036 H 
ENDBRANCH  21  25
ENDBRANCH  16  19
ENDBRANCH  13  15
BRANCH  13  29
ATOM     29  C8  non d ame     -34.285   4.605  26.314  0.00  0.00    -0.049 C 
ATOM     30  H7  non d ame     -34.312   3.551  26.590  0.00  0.00     0.030 H 
ATOM     31  H8  non d ame     -35.275   4.919  25.984  0.00  0.00     0.030 H 
ATOM     32  H9  non d ame     -33.570   4.750  25.504  0.00  0.00     0.030 H 
ENDBRANCH  13  29
ENDBRANCH  10  13
ENDBRANCH   7   9
BRANCH   7  33
ATOM     33  C11 non d ame     -33.068   9.271  24.480  0.00  0.00    -0.033 C 
ATOM     34  H12 non d ame     -33.265  10.343  24.517  0.00  0.00     0.042 H 
BRANCH  33  35
ATOM     35  C12 non d ame     -31.922   9.041  23.446  0.00  0.00    -0.071 C 
ATOM     36  H13 non d ame     -30.961   9.058  23.959  0.00  0.00     0.028 H 
ATOM     37  H14 non d ame     -32.059   8.075  22.961  0.00  0.00     0.028 H 
ATOM     38  H15 non d ame     -31.947   9.831  22.695  0.00  0.00     0.028 H 
ENDBRANCH  33  35
BRANCH  33  39
ATOM     39  C13 non d ame     -34.384   8.554  24.037  0.00  0.00    -0.071 C 
ATOM     40  H16 non d ame     -34.673   7.826  24.795  0.00  0.00     0.028 H 
ATOM     41  H17 non d ame     -35.178   9.291  23.918  0.00  0.00     0.028 H 
ATOM     42  H18 non d ame     -34.218   8.044  23.087  0.00  0.00     0.028 H 
ENDBRANCH  33  39
ENDBRANCH   7  33
ENDBRANCH   4   7
ENDBRANCH   1   3
BRANCH   1  43
ATOM     43  C15 non d ame     -31.915  13.675  26.713  0.00  0.00     0.240 C 
ATOM     44  O5  non d ame     -30.974  14.376  26.903  0.00  0.00    -0.271 OA
ATOM     45  N6  non d ame     -32.926  14.052  25.685  0.00  0.00    -0.355 N 
ATOM     46  H46 non d ame     -33.727  13.463  25.511  0.00  0.00     0.162 HD
BRANCH  45  47
ATOM     47  C20 non d ame     -32.753  15.301  24.911  0.00  0.00     0.013 C 
ATOM     48  H30 non d ame     -32.032  15.926  25.440  0.00  0.00     0.072 H 
BRANCH  47  49
ATOM     49  C21 non d ame     -34.082  16.016  24.813  0.00  0.00    -0.038 C 
ATOM     50  H31 non d ame     -33.891  17.039  25.137  0.00  0.00     0.036 H 
ATOM     51  H32 non d ame     -34.446  15.822  23.804  0.00  0.00     0.036 H 
BRANCH  49  52
ATOM     52  C22 non d ame     -35.143  15.443  25.777  0.00  0.00     0.018 C 
ATOM     53  H33 non d ame     -35.353  14.435  25.421  0.00  0.00     0.048 H 
ATOM     54  H34 non d ame     -34.743  15.594  26.780  0.00  0.00     0.048 H 
BRANCH  52  55
ATOM     55  C23 non d ame     -36.499  16.201  25.738  0.00  0.00     0.259 C 
ATOM     56  O7  non d ame     -37.518  15.607  25.593  0.00  0.00    -0.265 OA
BRANCH  55  57
ATOM     57  O8  non d ame     -36.509  17.618  25.865  0.00  0.00    -0.317 OA
BRANCH  57  58
ATOM     58  C29 non d ame     -36.267  18.085  27.195  0.00  0.00     0.052 C 
ATOM     59  H47 non d ame     -36.965  18.908  27.350  0.00  0.00     0.082 H 
ATOM     60  H48 non d ame     -36.317  17.202  27.832  0.00  0.00     0.082 H 
BRANCH  58  61
ATOM     61  C35 non d ame     -34.823  18.649  27.250  0.00  0.00    -0.034 A 
ATOM     62  C30 non d ame     -34.499  19.805  26.547  0.00  0.00    -0.075 A 
ATOM     63  C31 non d ame     -33.201  20.312  26.595  0.00  0.00    -0.082 A 
ATOM     64  H49 non d ame     -35.262  20.314  25.958  0.00  0.00     0.084 H 
ATOM     65  C32 non d ame     -32.224  19.656  27.349  0.00  0.00    -0.083 A 
ATOM     66  H50 non d ame     -32.952  21.219  26.045  0.00  0.00     0.083 H 
ATOM     67  C33 non d ame     -32.551  18.501  28.046  0.00  0.00    -0.082 A 
ATOM     68  H51 non d ame     -31.207  20.046  27.393  0.00  0.00     0.083 H 
ATOM     69  C34 non d ame     -33.847  17.992  28.002  0.00  0.00    -0.075 A 
ATOM     70  H52 non d ame     -31.785  17.990  28.631  0.00  0.00     0.083 H 
ATOM     71  H53 non d ame     -34.096  17.085  28.553  0.00  0.00     0.084 H 
ENDBRANCH  58  61
ENDBRANCH  57  58
ENDBRANCH  55  57
ENDBRANCH  52  55
ENDBRANCH  49  52
ENDBRANCH  47  49
BRANCH  47  72
ATOM     72  C24 non d ame     -32.244  14.974  23.509  0.00  0.00    -0.039 C 
ATOM     73  H35 non d ame     -32.498  13.927  23.345  0.00  0.00     0.036 H 
ATOM     74  H36 non d ame     -32.665  15.744  22.861  0.00  0.00     0.036 H 
BRANCH  72  75
ATOM     75  C25 non d ame     -30.650  15.095  23.414  0.00  0.00    -0.001 C 
ATOM     76  C26 non d ame     -30.230  15.906  22.046  0.00  0.00    -0.035 C 
ATOM     77  C27 non d ame     -29.309  15.177  21.372  0.00  0.00     0.085 C 
ATOM     78  H38 non d ame     -31.076  15.944  21.360  0.00  0.00     0.036 H 
ATOM     79  H39 non d ame     -29.694  16.820  22.302  0.00  0.00     0.036 H 
ATOM     80  N5  non d ame     -29.304  13.797  21.984  0.00  0.00    -0.049 N 
ATOM     81  H40 non d ame     -29.682  15.111  20.349  0.00  0.00     0.075 H 
ATOM     82  H41 non d ame     -28.353  15.658  21.573  0.00  0.00     0.075 H 
ATOM     83  C28 non d ame     -30.093  13.930  23.386  0.00  0.00     0.193 C 
ATOM     84  H42 non d ame     -29.843  13.207  21.366  0.00  0.00     0.280 HD
ATOM     85  H43 non d ame     -28.338  13.575  22.179  0.00  0.00     0.280 HD
ATOM     86  H44 non d ame     -29.548  13.949  24.329  0.00  0.00     0.129 H 
ATOM     87  H37 non d ame     -30.205  15.437  24.348  0.00  0.00     0.046 H 
BRANCH  83  88
ATOM     88  O6  non d ame     -31.047  12.874  23.516  0.00  0.00    -0.369 OA
ATOM     89  H45 non d ame     -30.761  12.119  22.997  0.00  0.00     0.212 HD
ENDBRANCH  83  88
ENDBRANCH  72  75
ENDBRANCH  47  72
ENDBRANCH  45  47
ENDBRANCH   1  43
BRANCH   1  90
ATOM     90  C16 non d ame     -30.985  12.276  28.584  0.00  0.00    -0.035 C 
ATOM     91  H21 non d ame     -30.695  11.227  28.612  0.00  0.00     0.037 H 
ATOM     92  H22 non d ame     -30.255  13.037  28.304  0.00  0.00     0.037 H 
BRANCH  90  93
ATOM     93  C17 non d ame     -31.468  12.637  30.025  0.00  0.00    -0.059 C 
ATOM     94  H23 non d ame     -30.593  12.941  30.601  0.00  0.00     0.038 H 
BRANCH  93  95
ATOM     95  C18 non d ame     -32.477  13.830  30.027  0.00  0.00    -0.073 C 
ATOM     96  H24 non d ame     -32.378  14.388  30.957  0.00  0.00     0.028 H 
ATOM     97  H25 non d ame     -32.265  14.487  29.185  0.00  0.00     0.028 H 
ATOM     98  H26 non d ame     -33.493  13.445  29.940  0.00  0.00     0.028 H 
ENDBRANCH  93  95
BRANCH  93  99
ATOM     99  C19 non d ame     -32.068  11.414  30.723  0.00  0.00    -0.073 C 
ATOM    100  H27 non d ame     -31.424  11.115  31.550  0.00  0.00     0.028 H 
ATOM    101  H28 non d ame     -33.058  11.663  31.106  0.00  0.00     0.028 H 
ATOM    102  H29 non d ame     -32.151  10.594  30.011  0.00  0.00     0.028 H 
ENDBRANCH  93  99
ENDBRANCH  90  93
ENDBRANCH   1  90
TORSDOF 26
ENDMDL
MODEL 15
REMARK VINA RESULT:      -5.8      2.286      6.490
REMARK  26 active torsions:
REMARK  status: ('A' for Active; 'I' for Inactive)
REMARK    1  A    between atoms: C2_2  and  C3_3 
REMARK    2  A    between atoms: C4_6  and  C5_7 
REMARK       I    between atoms: C5_7  and  N2_9 
REMARK    3  A    between atoms: N2_9  and  C6_10 
REMARK    4  A    between atoms: C6_10  and  C7_11 
REMARK    5  A    between atoms: C6_10  and  C8_13 
REMARK       I    between atoms: C7_11  and  N3_14 
REMARK    6  A    between atoms: N3_14  and  C9_15 
REMARK    7  A    between atoms: C9_15  and  C10_16 
REMARK    8  A    between atoms: C9_15  and  C11_18 
REMARK       I    between atoms: C10_16  and  N4_21 
REMARK    9  A    between atoms: C11_18  and  C12_19 
REMARK   10  A    between atoms: C11_18  and  C13_20 
REMARK   11  A    between atoms: N4_21  and  C14_22 
REMARK   12  A    between atoms: C14_22  and  C15_23 
REMARK   13  A    between atoms: C14_22  and  C16_25 
REMARK       I    between atoms: C15_23  and  N6_40 
REMARK   14  A    between atoms: C16_25  and  C17_26 
REMARK   15  A    between atoms: C17_26  and  C18_27 
REMARK   16  A    between atoms: C17_26  and  C19_28 
REMARK   17  A    between atoms: C20_29  and  C21_30 
REMARK   18  A    between atoms: C20_29  and  C24_33 
REMARK   19  A    between atoms: C20_29  and  N6_40 
REMARK   20  A    between atoms: C21_30  and  C22_31 
REMARK   21  A    between atoms: C22_31  and  C23_32 
REMARK   22  A    between atoms: C23_32  and  O8_43 
REMARK   23  A    between atoms: C24_33  and  C25_34 
REMARK   24  A    between atoms: C28_38  and  O6_39 
REMARK   25  A    between atoms: C29_42  and  O8_43 
REMARK   26  A    between atoms: C29_42  and  C35_49 
ROOT
ATOM      1  C14 non d ame     -33.422   6.155  27.394  0.00  0.00     0.089 C 
ATOM      2  H20 non d ame     -32.539   5.557  27.618  0.00  0.00     0.087 H 
ENDROOT
BRANCH   1   3
ATOM      3  N4  non d ame     -34.045   6.507  28.662  0.00  0.00    -0.346 N 
ATOM      4  C10 non d ame     -35.364   7.238  28.685  0.00  0.00     0.241 C 
ATOM      5  O4  non d ame     -35.904   7.535  27.671  0.00  0.00    -0.271 OA
ATOM      6  H19 non d ame     -33.568   6.248  29.514  0.00  0.00     0.163 HD
BRANCH   4   7
ATOM      7  C9  non d ame     -35.997   7.590  30.006  0.00  0.00     0.092 C 
ATOM      8  H11 non d ame     -35.588   6.943  30.783  0.00  0.00     0.088 H 
BRANCH   7   9
ATOM      9  N3  non d ame     -35.649   8.969  30.363  0.00  0.00    -0.346 N 
ATOM     10  C7  non d ame     -34.820   9.228  31.515  0.00  0.00     0.240 C 
ATOM     11  O3  non d ame     -34.425   8.339  32.166  0.00  0.00    -0.271 OA
ATOM     12  H10 non d ame     -35.984   9.746  29.812  0.00  0.00     0.163 HD
BRANCH  10  13
ATOM     13  C6  non d ame     -34.457  10.698  31.892  0.00  0.00     0.086 C 
ATOM     14  H6  non d ame     -33.669  10.758  32.642  0.00  0.00     0.086 H 
BRANCH  13  15
ATOM     15  N2  non d ame     -33.957  11.378  30.708  0.00  0.00    -0.343 N 
ATOM     16  C5  non d ame     -32.513  11.484  30.493  0.00  0.00     0.273 C 
ATOM     17  O2  non d ame     -31.761  11.021  31.279  0.00  0.00    -0.266 OA
ATOM     18  H5  non d ame     -34.607  11.773  30.043  0.00  0.00     0.163 HD
BRANCH  16  19
ATOM     19  C4  non d ame     -31.970  12.199  29.246  0.00  0.00     0.154 A 
ATOM     20  C1  non d ame     -32.124  11.794  27.882  0.00  0.00    -0.017 A 
ATOM     21  C2  non d ame     -31.448  12.782  27.131  0.00  0.00     0.077 A 
ATOM     22  H1  non d ame     -32.646  10.918  27.496  0.00  0.00     0.091 H 
ATOM     23  O1  non d ame     -30.967  13.648  27.974  0.00  0.00    -0.218 OA
ATOM     24  N1  non d ame     -31.259  13.329  29.214  0.00  0.00    -0.123 NA
BRANCH  21  25
ATOM     25  C3  non d ame     -31.309  12.824  25.615  0.00  0.00    -0.029 C 
ATOM     26  H2  non d ame     -30.329  13.219  25.350  0.00  0.00     0.036 H 
ATOM     27  H3  non d ame     -31.416  11.817  25.212  0.00  0.00     0.036 H 
ATOM     28  H4  non d ame     -32.085  13.466  25.197  0.00  0.00     0.036 H 
ENDBRANCH  21  25
ENDBRANCH  16  19
ENDBRANCH  13  15
BRANCH  13  29
ATOM     29  C8  non d ame     -35.682  11.403  32.414  0.00  0.00    -0.049 C 
ATOM     30  H7  non d ame     -36.544  11.138  31.801  0.00  0.00     0.030 H 
ATOM     31  H8  non d ame     -35.863  11.100  33.445  0.00  0.00     0.030 H 
ATOM     32  H9  non d ame     -35.526  12.481  32.374  0.00  0.00     0.030 H 
ENDBRANCH  13  29
ENDBRANCH  10  13
ENDBRANCH   7   9
BRANCH   7  33
ATOM     33  C11 non d ame     -37.544   7.461  29.891  0.00  0.00    -0.033 C 
ATOM     34  H12 non d ame     -37.787   7.361  28.833  0.00  0.00     0.042 H 
BRANCH  33  35
ATOM     35  C12 non d ame     -38.063   6.179  30.614  0.00  0.00    -0.071 C 
ATOM     36  H13 non d ame     -37.486   5.316  30.283  0.00  0.00     0.028 H 
ATOM     37  H14 non d ame     -37.950   6.300  31.691  0.00  0.00     0.028 H 
ATOM     38  H15 non d ame     -39.115   6.027  30.373  0.00  0.00     0.028 H 
ENDBRANCH  33  35
BRANCH  33  39
ATOM     39  C13 non d ame     -38.254   8.743  30.431  0.00  0.00    -0.071 C 
ATOM     40  H16 non d ame     -37.600   9.605  30.295  0.00  0.00     0.028 H 
ATOM     41  H17 non d ame     -39.184   8.902  29.884  0.00  0.00     0.028 H 
ATOM     42  H18 non d ame     -38.474   8.618  31.491  0.00  0.00     0.028 H 
ENDBRANCH  33  39
ENDBRANCH   7  33
ENDBRANCH   4   7
ENDBRANCH   1   3
BRANCH   1  43
ATOM     43  C15 non d ame     -33.067   7.466  26.636  0.00  0.00     0.240 C 
ATOM     44  O5  non d ame     -32.212   8.177  27.054  0.00  0.00    -0.271 OA
ATOM     45  N6  non d ame     -33.788   7.830  25.383  0.00  0.00    -0.355 N 
ATOM     46  H46 non d ame     -34.513   7.232  25.015  0.00  0.00     0.162 HD
BRANCH  45  47
ATOM     47  C20 non d ame     -33.437   9.079  24.672  0.00  0.00     0.013 C 
ATOM     48  H30 non d ame     -32.754   9.645  25.305  0.00  0.00     0.072 H 
BRANCH  47  49
ATOM     49  C21 non d ame     -34.694   9.882  24.424  0.00  0.00    -0.038 C 
ATOM     50  H31 non d ame     -34.528  10.406  23.482  0.00  0.00     0.036 H 
ATOM     51  H32 non d ame     -35.518   9.174  24.516  0.00  0.00     0.036 H 
BRANCH  49  52
ATOM     52  C22 non d ame     -34.932  10.970  25.493  0.00  0.00     0.018 C 
ATOM     53  H33 non d ame     -35.213  10.436  26.400  0.00  0.00     0.048 H 
ATOM     54  H34 non d ame     -34.038  11.595  25.482  0.00  0.00     0.048 H 
BRANCH  52  55
ATOM     55  C23 non d ame     -36.120  11.918  25.169  0.00  0.00     0.259 C 
ATOM     56  O7  non d ame     -37.065  11.517  24.569  0.00  0.00    -0.265 OA
BRANCH  55  57
ATOM     57  O8  non d ame     -36.062  13.276  25.587  0.00  0.00    -0.317 OA
BRANCH  57  58
ATOM     58  C29 non d ame     -35.482  13.463  26.881  0.00  0.00     0.052 C 
ATOM     59  H47 non d ame     -36.310  13.727  27.540  0.00  0.00     0.082 H 
ATOM     60  H48 non d ame     -34.897  12.565  27.075  0.00  0.00     0.082 H 
BRANCH  58  61
ATOM     61  C35 non d ame     -34.513  14.673  26.802  0.00  0.00    -0.034 A 
ATOM     62  C30 non d ame     -34.061  15.281  27.968  0.00  0.00    -0.075 A 
ATOM     63  C31 non d ame     -33.191  16.368  27.897  0.00  0.00    -0.082 A 
ATOM     64  H49 non d ame     -34.389  14.907  28.938  0.00  0.00     0.084 H 
ATOM     65  C32 non d ame     -32.774  16.848  26.652  0.00  0.00    -0.083 A 
ATOM     66  H50 non d ame     -32.837  16.841  28.813  0.00  0.00     0.083 H 
ATOM     67  C33 non d ame     -33.230  16.239  25.491  0.00  0.00    -0.082 A 
ATOM     68  H51 non d ame     -32.093  17.696  26.588  0.00  0.00     0.083 H 
ATOM     69  C34 non d ame     -34.098  15.152  25.557  0.00  0.00    -0.075 A 
ATOM     70  H52 non d ame     -32.905  16.618  24.521  0.00  0.00     0.083 H 
ATOM     71  H53 non d ame     -34.452  14.679  24.641  0.00  0.00     0.084 H 
ENDBRANCH  58  61
ENDBRANCH  57  58
ENDBRANCH  55  57
ENDBRANCH  52  55
ENDBRANCH  49  52
ENDBRANCH  47  49
BRANCH  47  72
ATOM     72  C24 non d ame     -32.773   8.746  23.339  0.00  0.00    -0.039 C 
ATOM     73  H35 non d ame     -33.108   7.738  23.091  0.00  0.00     0.036 H 
ATOM     74  H36 non d ame     -33.015   9.578  22.678  0.00  0.00     0.036 H 
BRANCH  72  75
ATOM     75  C25 non d ame     -31.177   8.694  23.468  0.00  0.00    -0.001 C 
ATOM     76  C26 non d ame     -30.535  10.155  23.074  0.00  0.00    -0.035 C 
ATOM     77  C27 non d ame     -29.560   9.970  22.152  0.00  0.00     0.085 C 
ATOM     78  H38 non d ame     -31.274  10.758  22.546  0.00  0.00     0.036 H 
ATOM     79  H39 non d ame     -30.001  10.572  23.928  0.00  0.00     0.036 H 
ATOM     80  N5  non d ame     -29.701   8.556  21.640  0.00  0.00    -0.049 N 
ATOM     81  H40 non d ame     -29.788  10.665  21.344  0.00  0.00     0.075 H 
ATOM     82  H41 non d ame     -28.622  10.058  22.698  0.00  0.00     0.075 H 
ATOM     83  C28 non d ame     -30.673   7.800  22.684  0.00  0.00     0.193 C 
ATOM     84  H42 non d ame     -30.172   8.620  20.749  0.00  0.00     0.280 HD
ATOM     85  H43 non d ame     -28.782   8.140  21.696  0.00  0.00     0.280 HD
ATOM     86  H44 non d ame     -30.265   7.102  23.414  0.00  0.00     0.129 H 
ATOM     87  H37 non d ame     -30.853   8.247  24.409  0.00  0.00     0.046 H 
BRANCH  83  88
ATOM     88  O6  non d ame     -31.680   7.071  21.980  0.00  0.00    -0.369 OA
ATOM     89  H45 non d ame     -32.297   6.689  22.608  0.00  0.00     0.212 HD
ENDBRANCH  83  88
ENDBRANCH  72  75
ENDBRANCH  47  72
ENDBRANCH  45  47
ENDBRANCH   1  43
BRANCH   1  90
ATOM     90  C16 non d ame     -34.403   5.337  26.570  0.00  0.00    -0.035 C 
ATOM     91  H21 non d ame     -35.346   5.882  26.618  0.00  0.00     0.037 H 
ATOM     92  H22 non d ame     -33.913   5.181  25.609  0.00  0.00     0.037 H 
BRANCH  90  93
ATOM     93  C17 non d ame     -34.685   3.918  27.158  0.00  0.00    -0.059 C 
ATOM     94  H23 non d ame     -34.540   3.972  28.237  0.00  0.00     0.038 H 
BRANCH  93  95
ATOM     95  C18 non d ame     -36.154   3.453  26.897  0.00  0.00    -0.073 C 
ATOM     96  H24 non d ame     -36.159   2.395  26.636  0.00  0.00     0.028 H 
ATOM     97  H25 non d ame     -36.749   3.608  27.797  0.00  0.00     0.028 H 
ATOM     98  H26 non d ame     -36.578   4.032  26.077  0.00  0.00     0.028 H 
ENDBRANCH  93  95
BRANCH  93  99
ATOM     99  C19 non d ame     -33.685   2.894  26.615  0.00  0.00    -0.073 C 
ATOM    100  H27 non d ame     -32.674   3.291  26.702  0.00  0.00     0.028 H 
ATOM    101  H28 non d ame     -33.763   1.970  27.189  0.00  0.00     0.028 H 
ATOM    102  H29 non d ame     -33.907   2.689  25.568  0.00  0.00     0.028 H 
ENDBRANCH  93  99
ENDBRANCH  90  93
ENDBRANCH   1  90
TORSDOF 26
ENDMDL
MODEL 16
REMARK VINA RESULT:      -5.7      4.189     10.194
REMARK  26 active torsions:
REMARK  status: ('A' for Active; 'I' for Inactive)
REMARK    1  A    between atoms: C2_2  and  C3_3 
REMARK    2  A    between atoms: C4_6  and  C5_7 
REMARK       I    between atoms: C5_7  and  N2_9 
REMARK    3  A    between atoms: N2_9  and  C6_10 
REMARK    4  A    between atoms: C6_10  and  C7_11 
REMARK    5  A    between atoms: C6_10  and  C8_13 
REMARK       I    between atoms: C7_11  and  N3_14 
REMARK    6  A    between atoms: N3_14  and  C9_15 
REMARK    7  A    between atoms: C9_15  and  C10_16 
REMARK    8  A    between atoms: C9_15  and  C11_18 
REMARK       I    between atoms: C10_16  and  N4_21 
REMARK    9  A    between atoms: C11_18  and  C12_19 
REMARK   10  A    between atoms: C11_18  and  C13_20 
REMARK   11  A    between atoms: N4_21  and  C14_22 
REMARK   12  A    between atoms: C14_22  and  C15_23 
REMARK   13  A    between atoms: C14_22  and  C16_25 
REMARK       I    between atoms: C15_23  and  N6_40 
REMARK   14  A    between atoms: C16_25  and  C17_26 
REMARK   15  A    between atoms: C17_26  and  C18_27 
REMARK   16  A    between atoms: C17_26  and  C19_28 
REMARK   17  A    between atoms: C20_29  and  C21_30 
REMARK   18  A    between atoms: C20_29  and  C24_33 
REMARK   19  A    between atoms: C20_29  and  N6_40 
REMARK   20  A    between atoms: C21_30  and  C22_31 
REMARK   21  A    between atoms: C22_31  and  C23_32 
REMARK   22  A    between atoms: C23_32  and  O8_43 
REMARK   23  A    between atoms: C24_33  and  C25_34 
REMARK   24  A    between atoms: C28_38  and  O6_39 
REMARK   25  A    between atoms: C29_42  and  O8_43 
REMARK   26  A    between atoms: C29_42  and  C35_49 
ROOT
ATOM      1  C14 non d ame     -36.247  13.304  26.216  0.00  0.00     0.089 C 
ATOM      2  H20 non d ame     -36.953  13.281  27.047  0.00  0.00     0.087 H 
ENDROOT
BRANCH   1   3
ATOM      3  N4  non d ame     -35.946  14.700  25.937  0.00  0.00    -0.346 N 
ATOM      4  C10 non d ame     -36.780  15.797  26.549  0.00  0.00     0.241 C 
ATOM      5  O4  non d ame     -37.691  15.531  27.262  0.00  0.00    -0.271 OA
ATOM      6  H19 non d ame     -35.168  14.905  25.326  0.00  0.00     0.163 HD
BRANCH   4   7
ATOM      7  C9  non d ame     -36.450  17.237  26.254  0.00  0.00     0.092 C 
ATOM      8  H11 non d ame     -36.691  17.846  27.125  0.00  0.00     0.088 H 
BRANCH   7   9
ATOM      9  N3  non d ame     -35.010  17.370  26.016  0.00  0.00    -0.346 N 
ATOM     10  C7  non d ame     -34.119  17.634  27.119  0.00  0.00     0.240 C 
ATOM     11  O3  non d ame     -34.544  17.744  28.204  0.00  0.00    -0.271 OA
ATOM     12  H10 non d ame     -34.629  17.279  25.085  0.00  0.00     0.163 HD
BRANCH  10  13
ATOM     13  C6  non d ame     -32.587  17.777  26.859  0.00  0.00     0.086 C 
ATOM     14  H6  non d ame     -31.985  17.195  27.556  0.00  0.00     0.086 H 
BRANCH  13  15
ATOM     15  N2  non d ame     -32.286  17.275  25.529  0.00  0.00    -0.343 N 
ATOM     16  C5  non d ame     -31.544  16.021  25.383  0.00  0.00     0.273 C 
ATOM     17  O2  non d ame     -31.192  15.425  26.341  0.00  0.00    -0.266 OA
ATOM     18  H5  non d ame     -32.588  17.792  24.715  0.00  0.00     0.163 HD
BRANCH  16  19
ATOM     19  C4  non d ame     -31.219  15.477  23.982  0.00  0.00     0.154 A 
ATOM     20  C1  non d ame     -31.203  16.209  22.753  0.00  0.00    -0.017 A 
ATOM     21  C2  non d ame     -30.849  15.259  21.769  0.00  0.00     0.077 A 
ATOM     22  H1  non d ame     -31.416  17.267  22.598  0.00  0.00     0.091 H 
ATOM     23  O1  non d ame     -30.682  14.119  22.373  0.00  0.00    -0.218 OA
ATOM     24  N1  non d ame     -30.893  14.221  23.665  0.00  0.00    -0.123 NA
BRANCH  21  25
ATOM     25  C3  non d ame     -30.690  15.523  20.277  0.00  0.00    -0.029 C 
ATOM     26  H2  non d ame     -30.233  14.656  19.802  0.00  0.00     0.036 H 
ATOM     27  H3  non d ame     -31.670  15.705  19.835  0.00  0.00     0.036 H 
ATOM     28  H4  non d ame     -30.056  16.396  20.128  0.00  0.00     0.036 H 
ENDBRANCH  21  25
ENDBRANCH  16  19
ENDBRANCH  13  15
BRANCH  13  29
ATOM     29  C8  non d ame     -32.190  19.228  26.966  0.00  0.00    -0.049 C 
ATOM     30  H7  non d ame     -31.185  19.360  26.566  0.00  0.00     0.030 H 
ATOM     31  H8  non d ame     -32.890  19.838  26.396  0.00  0.00     0.030 H 
ATOM     32  H9  non d ame     -32.208  19.534  28.012  0.00  0.00     0.030 H 
ENDBRANCH  13  29
ENDBRANCH  10  13
ENDBRANCH   7   9
BRANCH   7  33
ATOM     33  C11 non d ame     -37.227  17.697  24.985  0.00  0.00    -0.033 C 
ATOM     34  H12 non d ame     -37.004  16.988  24.188  0.00  0.00     0.042 H 
BRANCH  33  35
ATOM     35  C12 non d ame     -38.770  17.667  25.222  0.00  0.00    -0.071 C 
ATOM     36  H13 non d ame     -39.035  18.400  25.983  0.00  0.00     0.028 H 
ATOM     37  H14 non d ame     -39.284  17.906  24.291  0.00  0.00     0.028 H 
ATOM     38  H15 non d ame     -39.067  16.673  25.556  0.00  0.00     0.028 H 
ENDBRANCH  33  35
BRANCH  33  39
ATOM     39  C13 non d ame     -36.753  19.111  24.521  0.00  0.00    -0.071 C 
ATOM     40  H16 non d ame     -35.967  19.468  25.188  0.00  0.00     0.028 H 
ATOM     41  H17 non d ame     -36.366  19.049  23.503  0.00  0.00     0.028 H 
ATOM     42  H18 non d ame     -37.594  19.804  24.548  0.00  0.00     0.028 H 
ENDBRANCH  33  39
ENDBRANCH   7  33
ENDBRANCH   4   7
ENDBRANCH   1   3
BRANCH   1  43
ATOM     43  C15 non d ame     -34.919  12.569  26.554  0.00  0.00     0.240 C 
ATOM     44  O5  non d ame     -34.067  12.479  25.730  0.00  0.00    -0.271 OA
ATOM     45  N6  non d ame     -34.705  11.983  27.908  0.00  0.00    -0.355 N 
ATOM     46  H46 non d ame     -35.419  12.057  28.618  0.00  0.00     0.162 HD
BRANCH  45  47
ATOM     47  C20 non d ame     -33.436  11.288  28.214  0.00  0.00     0.013 C 
ATOM     48  H30 non d ame     -33.253  10.561  27.423  0.00  0.00     0.072 H 
BRANCH  47  49
ATOM     49  C21 non d ame     -33.561  10.582  29.545  0.00  0.00    -0.038 C 
ATOM     50  H31 non d ame     -32.579  10.155  29.745  0.00  0.00     0.036 H 
ATOM     51  H32 non d ame     -33.986  11.317  30.229  0.00  0.00     0.036 H 
BRANCH  49  52
ATOM     52  C22 non d ame     -34.552   9.399  29.505  0.00  0.00     0.018 C 
ATOM     53  H33 non d ame     -35.486   9.809  29.122  0.00  0.00     0.048 H 
ATOM     54  H34 non d ame     -34.042   8.604  28.961  0.00  0.00     0.048 H 
BRANCH  52  55
ATOM     55  C23 non d ame     -34.885   8.813  30.906  0.00  0.00     0.259 C 
ATOM     56  O7  non d ame     -34.067   8.809  31.767  0.00  0.00    -0.265 OA
BRANCH  55  57
ATOM     57  O8  non d ame     -36.177   8.269  31.144  0.00  0.00    -0.317 OA
BRANCH  57  58
ATOM     58  C29 non d ame     -37.236   9.228  31.071  0.00  0.00     0.052 C 
ATOM     59  H47 non d ame     -37.655   9.282  32.076  0.00  0.00     0.082 H 
ATOM     60  H48 non d ame     -36.799  10.116  30.615  0.00  0.00     0.082 H 
BRANCH  58  61
ATOM     61  C35 non d ame     -38.323   8.669  30.115  0.00  0.00    -0.034 A 
ATOM     62  C30 non d ame     -39.533   9.341  29.966  0.00  0.00    -0.075 A 
ATOM     63  C31 non d ame     -40.509   8.839  29.108  0.00  0.00    -0.082 A 
ATOM     64  H49 non d ame     -39.715  10.260  30.523  0.00  0.00     0.084 H 
ATOM     65  C32 non d ame     -40.274   7.659  28.397  0.00  0.00    -0.083 A 
ATOM     66  H50 non d ame     -41.455   9.369  28.993  0.00  0.00     0.083 H 
ATOM     67  C33 non d ame     -39.067   6.991  28.551  0.00  0.00    -0.082 A 
ATOM     68  H51 non d ame     -41.032   7.261  27.723  0.00  0.00     0.083 H 
ATOM     69  C34 non d ame     -38.088   7.490  29.406  0.00  0.00    -0.075 A 
ATOM     70  H52 non d ame     -38.888   6.069  27.996  0.00  0.00     0.083 H 
ATOM     71  H53 non d ame     -37.142   6.959  29.521  0.00  0.00     0.084 H 
ENDBRANCH  58  61
ENDBRANCH  57  58
ENDBRANCH  55  57
ENDBRANCH  52  55
ENDBRANCH  49  52
ENDBRANCH  47  49
BRANCH  47  72
ATOM     72  C24 non d ame     -32.295  12.301  28.279  0.00  0.00    -0.039 C 
ATOM     73  H35 non d ame     -31.385  11.708  28.377  0.00  0.00     0.036 H 
ATOM     74  H36 non d ame     -32.432  12.948  27.413  0.00  0.00     0.036 H 
BRANCH  72  75
ATOM     75  C25 non d ame     -32.398  13.227  29.582  0.00  0.00    -0.001 C 
ATOM     76  C26 non d ame     -32.733  14.776  29.143  0.00  0.00    -0.035 C 
ATOM     77  C27 non d ame     -31.838  15.601  29.737  0.00  0.00     0.085 C 
ATOM     78  H38 non d ame     -32.539  14.913  28.079  0.00  0.00     0.036 H 
ATOM     79  H39 non d ame     -33.687  15.088  29.568  0.00  0.00     0.036 H 
ATOM     80  N5  non d ame     -30.727  14.733  30.276  0.00  0.00    -0.049 N 
ATOM     81  H40 non d ame     -31.443  16.227  28.936  0.00  0.00     0.075 H 
ATOM     82  H41 non d ame     -32.370  16.056  30.572  0.00  0.00     0.075 H 
ATOM     83  C28 non d ame     -31.293  13.221  30.249  0.00  0.00     0.193 C 
ATOM     84  H42 non d ame     -29.964  14.802  29.618  0.00  0.00     0.280 HD
ATOM     85  H43 non d ame     -30.591  15.008  31.238  0.00  0.00     0.280 HD
ATOM     86  H44 non d ame     -31.619  12.735  31.169  0.00  0.00     0.129 H 
ATOM     87  H37 non d ame     -33.027  12.784  30.355  0.00  0.00     0.046 H 
BRANCH  83  88
ATOM     88  O6  non d ame     -30.323  12.342  29.676  0.00  0.00    -0.369 OA
ATOM     89  H45 non d ame     -29.569  12.852  29.369  0.00  0.00     0.212 HD
ENDBRANCH  83  88
ENDBRANCH  72  75
ENDBRANCH  47  72
ENDBRANCH  45  47
ENDBRANCH   1  43
BRANCH   1  90
ATOM     90  C16 non d ame     -36.880  12.677  24.984  0.00  0.00    -0.035 C 
ATOM     91  H21 non d ame     -36.051  12.470  24.308  0.00  0.00     0.037 H 
ATOM     92  H22 non d ame     -37.495  11.859  25.360  0.00  0.00     0.037 H 
BRANCH  90  93
ATOM     93  C17 non d ame     -37.844  13.637  24.218  0.00  0.00    -0.059 C 
ATOM     94  H23 non d ame     -37.769  14.621  24.681  0.00  0.00     0.038 H 
BRANCH  93  95
ATOM     95  C18 non d ame     -37.452  13.788  22.713  0.00  0.00    -0.073 C 
ATOM     96  H24 non d ame     -37.581  12.832  22.206  0.00  0.00     0.028 H 
ATOM     97  H25 non d ame     -38.092  14.535  22.244  0.00  0.00     0.028 H 
ATOM     98  H26 non d ame     -36.412  14.101  22.638  0.00  0.00     0.028 H 
ENDBRANCH  93  95
BRANCH  93  99
ATOM     99  C19 non d ame     -39.298  13.179  24.358  0.00  0.00    -0.073 C 
ATOM    100  H27 non d ame     -39.370  12.437  25.154  0.00  0.00     0.028 H 
ATOM    101  H28 non d ame     -39.928  14.035  24.603  0.00  0.00     0.028 H 
ATOM    102  H29 non d ame     -39.633  12.739  23.419  0.00  0.00     0.028 H 
ENDBRANCH  93  99
ENDBRANCH  90  93
ENDBRANCH   1  90
TORSDOF 26
ENDMDL
MODEL 17
REMARK VINA RESULT:      -5.7      2.804      6.308
REMARK  26 active torsions:
REMARK  status: ('A' for Active; 'I' for Inactive)
REMARK    1  A    between atoms: C2_2  and  C3_3 
REMARK    2  A    between atoms: C4_6  and  C5_7 
REMARK       I    between atoms: C5_7  and  N2_9 
REMARK    3  A    between atoms: N2_9  and  C6_10 
REMARK    4  A    between atoms: C6_10  and  C7_11 
REMARK    5  A    between atoms: C6_10  and  C8_13 
REMARK       I    between atoms: C7_11  and  N3_14 
REMARK    6  A    between atoms: N3_14  and  C9_15 
REMARK    7  A    between atoms: C9_15  and  C10_16 
REMARK    8  A    between atoms: C9_15  and  C11_18 
REMARK       I    between atoms: C10_16  and  N4_21 
REMARK    9  A    between atoms: C11_18  and  C12_19 
REMARK   10  A    between atoms: C11_18  and  C13_20 
REMARK   11  A    between atoms: N4_21  and  C14_22 
REMARK   12  A    between atoms: C14_22  and  C15_23 
REMARK   13  A    between atoms: C14_22  and  C16_25 
REMARK       I    between atoms: C15_23  and  N6_40 
REMARK   14  A    between atoms: C16_25  and  C17_26 
REMARK   15  A    between atoms: C17_26  and  C18_27 
REMARK   16  A    between atoms: C17_26  and  C19_28 
REMARK   17  A    between atoms: C20_29  and  C21_30 
REMARK   18  A    between atoms: C20_29  and  C24_33 
REMARK   19  A    between atoms: C20_29  and  N6_40 
REMARK   20  A    between atoms: C21_30  and  C22_31 
REMARK   21  A    between atoms: C22_31  and  C23_32 
REMARK   22  A    between atoms: C23_32  and  O8_43 
REMARK   23  A    between atoms: C24_33  and  C25_34 
REMARK   24  A    between atoms: C28_38  and  O6_39 
REMARK   25  A    between atoms: C29_42  and  O8_43 
REMARK   26  A    between atoms: C29_42  and  C35_49 
ROOT
ATOM      1  C14 non d ame     -34.918   9.094  29.667  0.00  0.00     0.089 C 
ATOM      2  H20 non d ame     -36.004   9.098  29.764  0.00  0.00     0.087 H 
ENDROOT
BRANCH   1   3
ATOM      3  N4  non d ame     -34.528   7.786  29.162  0.00  0.00    -0.346 N 
ATOM      4  C10 non d ame     -35.562   6.853  28.584  0.00  0.00     0.241 C 
ATOM      5  O4  non d ame     -36.703   7.176  28.539  0.00  0.00    -0.271 OA
ATOM      6  H19 non d ame     -33.552   7.530  29.212  0.00  0.00     0.163 HD
BRANCH   4   7
ATOM      7  C9  non d ame     -35.140   5.506  28.061  0.00  0.00     0.092 C 
ATOM      8  H11 non d ame     -35.969   4.806  28.161  0.00  0.00     0.088 H 
BRANCH   7   9
ATOM      9  N3  non d ame     -34.832   5.611  26.631  0.00  0.00    -0.346 N 
ATOM     10  C7  non d ame     -35.547   4.797  25.679  0.00  0.00     0.240 C 
ATOM     11  O3  non d ame     -36.371   4.051  26.046  0.00  0.00    -0.271 OA
ATOM     12  H10 non d ame     -34.123   6.248  26.300  0.00  0.00     0.163 HD
BRANCH  10  13
ATOM     13  C6  non d ame     -35.214   4.911  24.159  0.00  0.00     0.086 C 
ATOM     14  H6  non d ame     -35.801   4.227  23.546  0.00  0.00     0.086 H 
BRANCH  13  15
ATOM     15  N2  non d ame     -35.534   6.254  23.706  0.00  0.00    -0.343 N 
ATOM     16  C5  non d ame     -36.869   6.537  23.174  0.00  0.00     0.273 C 
ATOM     17  O2  non d ame     -37.677   5.677  23.113  0.00  0.00    -0.266 OA
ATOM     18  H5  non d ame     -34.836   6.983  23.759  0.00  0.00     0.163 HD
BRANCH  16  19
ATOM     19  C4  non d ame     -37.221   7.954  22.693  0.00  0.00     0.154 A 
ATOM     20  C1  non d ame     -38.444   8.662  22.914  0.00  0.00    -0.017 A 
ATOM     21  C2  non d ame     -38.263   9.909  22.274  0.00  0.00     0.077 A 
ATOM     22  H1  non d ame     -39.328   8.324  23.455  0.00  0.00     0.091 H 
ATOM     23  O1  non d ame     -37.072   9.906  21.751  0.00  0.00    -0.218 OA
ATOM     24  N1  non d ame     -36.444   8.776  21.982  0.00  0.00    -0.123 NA
BRANCH  21  25
ATOM     25  C3  non d ame     -39.275  11.045  22.210  0.00  0.00    -0.029 C 
ATOM     26  H2  non d ame     -39.544  11.234  21.171  0.00  0.00     0.036 H 
ATOM     27  H3  non d ame     -40.167  10.769  22.771  0.00  0.00     0.036 H 
ATOM     28  H4  non d ame     -38.839  11.945  22.641  0.00  0.00     0.036 H 
ENDBRANCH  21  25
ENDBRANCH  16  19
ENDBRANCH  13  15
BRANCH  13  29
ATOM     29  C8  non d ame     -33.749   4.627  23.940  0.00  0.00    -0.049 C 
ATOM     30  H7  non d ame     -33.637   3.884  23.151  0.00  0.00     0.030 H 
ATOM     31  H8  non d ame     -33.241   5.546  23.649  0.00  0.00     0.030 H 
ATOM     32  H9  non d ame     -33.311   4.246  24.863  0.00  0.00     0.030 H 
ENDBRANCH  13  29
ENDBRANCH  10  13
ENDBRANCH   7   9
BRANCH   7  33
ATOM     33  C11 non d ame     -33.872   5.026  28.827  0.00  0.00    -0.033 C 
ATOM     34  H12 non d ame     -33.140   5.833  28.789  0.00  0.00     0.042 H 
BRANCH  33  35
ATOM     35  C12 non d ame     -34.187   4.748  30.330  0.00  0.00    -0.071 C 
ATOM     36  H13 non d ame     -34.334   5.694  30.851  0.00  0.00     0.028 H 
ATOM     37  H14 non d ame     -35.093   4.147  30.406  0.00  0.00     0.028 H 
ATOM     38  H15 non d ame     -33.355   4.210  30.782  0.00  0.00     0.028 H 
ENDBRANCH  33  35
BRANCH  33  39
ATOM     39  C13 non d ame     -33.244   3.771  28.139  0.00  0.00    -0.071 C 
ATOM     40  H16 non d ame     -32.163   3.782  28.281  0.00  0.00     0.028 H 
ATOM     41  H17 non d ame     -33.661   2.867  28.583  0.00  0.00     0.028 H 
ATOM     42  H18 non d ame     -33.471   3.790  27.073  0.00  0.00     0.028 H 
ENDBRANCH  33  39
ENDBRANCH   7  33
ENDBRANCH   4   7
ENDBRANCH   1   3
BRANCH   1  43
ATOM     43  C15 non d ame     -34.413  10.180  28.674  0.00  0.00     0.240 C 
ATOM     44  O5  non d ame     -35.178  10.970  28.224  0.00  0.00    -0.271 OA
ATOM     45  N6  non d ame     -32.974  10.239  28.292  0.00  0.00    -0.355 N 
ATOM     46  H46 non d ame     -32.314   9.577  28.672  0.00  0.00     0.162 HD
BRANCH  45  47
ATOM     47  C20 non d ame     -32.509  11.279  27.347  0.00  0.00     0.013 C 
ATOM     48  H30 non d ame     -33.377  11.857  27.031  0.00  0.00     0.072 H 
BRANCH  47  49
ATOM     49  C21 non d ame     -31.867  10.615  26.150  0.00  0.00    -0.038 C 
ATOM     50  H31 non d ame     -32.242  11.152  25.279  0.00  0.00     0.036 H 
ATOM     51  H32 non d ame     -30.797  10.598  26.362  0.00  0.00     0.036 H 
BRANCH  49  52
ATOM     52  C22 non d ame     -32.300   9.143  25.977  0.00  0.00     0.018 C 
ATOM     53  H33 non d ame     -31.439   8.630  25.551  0.00  0.00     0.048 H 
ATOM     54  H34 non d ame     -32.695   8.835  26.945  0.00  0.00     0.048 H 
BRANCH  52  55
ATOM     55  C23 non d ame     -33.460   8.948  24.961  0.00  0.00     0.259 C 
ATOM     56  O7  non d ame     -34.427   8.326  25.262  0.00  0.00    -0.265 OA
BRANCH  55  57
ATOM     57  O8  non d ame     -33.348   9.511  23.659  0.00  0.00    -0.317 OA
BRANCH  57  58
ATOM     58  C29 non d ame     -33.005   8.564  22.643  0.00  0.00     0.052 C 
ATOM     59  H47 non d ame     -33.452   7.621  22.955  0.00  0.00     0.082 H 
ATOM     60  H48 non d ame     -33.302   9.023  21.700  0.00  0.00     0.082 H 
BRANCH  58  61
ATOM     61  C35 non d ame     -31.461   8.400  22.644  0.00  0.00    -0.034 A 
ATOM     62  C30 non d ame     -30.895   7.136  22.770  0.00  0.00    -0.075 A 
ATOM     63  C31 non d ame     -29.509   6.988  22.771  0.00  0.00    -0.082 A 
ATOM     64  H49 non d ame     -31.537   6.261  22.869  0.00  0.00     0.084 H 
ATOM     65  C32 non d ame     -28.688   8.112  22.647  0.00  0.00    -0.083 A 
ATOM     66  H50 non d ame     -29.068   5.996  22.869  0.00  0.00     0.083 H 
ATOM     67  C33 non d ame     -29.257   9.372  22.525  0.00  0.00    -0.082 A 
ATOM     68  H51 non d ame     -27.603   8.006  22.646  0.00  0.00     0.083 H 
ATOM     69  C34 non d ame     -30.642   9.524  22.521  0.00  0.00    -0.075 A 
ATOM     70  H52 non d ame     -28.613  10.248  22.431  0.00  0.00     0.083 H 
ATOM     71  H53 non d ame     -31.082  10.517  22.424  0.00  0.00     0.084 H 
ENDBRANCH  58  61
ENDBRANCH  57  58
ENDBRANCH  55  57
ENDBRANCH  52  55
ENDBRANCH  49  52
ENDBRANCH  47  49
BRANCH  47  72
ATOM     72  C24 non d ame     -31.490  12.184  28.036  0.00  0.00    -0.039 C 
ATOM     73  H35 non d ame     -30.833  11.513  28.590  0.00  0.00     0.036 H 
ATOM     74  H36 non d ame     -31.084  12.816  27.247  0.00  0.00     0.036 H 
BRANCH  72  75
ATOM     75  C25 non d ame     -32.186  13.153  29.106  0.00  0.00    -0.001 C 
ATOM     76  C26 non d ame     -32.445  14.632  28.437  0.00  0.00    -0.035 C 
ATOM     77  C27 non d ame     -31.937  15.579  29.261  0.00  0.00     0.085 C 
ATOM     78  H38 non d ame     -31.852  14.741  27.529  0.00  0.00     0.036 H 
ATOM     79  H39 non d ame     -33.512  14.855  28.421  0.00  0.00     0.036 H 
ATOM     80  N5  non d ame     -31.068  14.866  30.269  0.00  0.00    -0.049 N 
ATOM     81  H40 non d ame     -31.308  16.207  28.631  0.00  0.00     0.075 H 
ATOM     82  H41 non d ame     -32.796  16.010  29.775  0.00  0.00     0.075 H 
ATOM     83  C28 non d ame     -31.446  13.301  30.153  0.00  0.00     0.193 C 
ATOM     84  H42 non d ame     -30.113  14.990  29.963  0.00  0.00     0.280 HD
ATOM     85  H43 non d ame     -31.354  15.200  31.179  0.00  0.00     0.280 HD
ATOM     86  H44 non d ame     -32.073  12.825  30.908  0.00  0.00     0.129 H 
ATOM     87  H37 non d ame     -33.033  12.679  29.603  0.00  0.00     0.046 H 
BRANCH  83  88
ATOM     88  O6  non d ame     -30.258  12.510  30.090  0.00  0.00    -0.369 OA
ATOM     89  H45 non d ame     -29.489  13.082  30.160  0.00  0.00     0.212 HD
ENDBRANCH  83  88
ENDBRANCH  72  75
ENDBRANCH  47  72
ENDBRANCH  45  47
ENDBRANCH   1  43
BRANCH   1  90
ATOM     90  C16 non d ame     -34.279   9.310  31.030  0.00  0.00    -0.035 C 
ATOM     91  H21 non d ame     -33.516   8.538  31.116  0.00  0.00     0.037 H 
ATOM     92  H22 non d ame     -33.995  10.363  31.051  0.00  0.00     0.037 H 
BRANCH  90  93
ATOM     93  C17 non d ame     -35.262   9.095  32.224  0.00  0.00    -0.059 C 
ATOM     94  H23 non d ame     -34.962   8.182  32.739  0.00  0.00     0.038 H 
BRANCH  93  95
ATOM     95  C18 non d ame     -35.201  10.266  33.257  0.00  0.00    -0.073 C 
ATOM     96  H24 non d ame     -34.196  10.687  33.270  0.00  0.00     0.028 H 
ATOM     97  H25 non d ame     -35.914  11.039  32.972  0.00  0.00     0.028 H 
ATOM     98  H26 non d ame     -35.450   9.889  34.248  0.00  0.00     0.028 H 
ENDBRANCH  93  95
BRANCH  93  99
ATOM     99  C19 non d ame     -36.693   8.884  31.724  0.00  0.00    -0.073 C 
ATOM    100  H27 non d ame     -36.892   9.564  30.895  0.00  0.00     0.028 H 
ATOM    101  H28 non d ame     -36.812   7.855  31.385  0.00  0.00     0.028 H 
ATOM    102  H29 non d ame     -37.394   9.083  32.534  0.00  0.00     0.028 H 
ENDBRANCH  93  99
ENDBRANCH  90  93
ENDBRANCH   1  90
TORSDOF 26
ENDMDL
MODEL 18
REMARK VINA RESULT:      -5.6      2.767      6.847
REMARK  26 active torsions:
REMARK  status: ('A' for Active; 'I' for Inactive)
REMARK    1  A    between atoms: C2_2  and  C3_3 
REMARK    2  A    between atoms: C4_6  and  C5_7 
REMARK       I    between atoms: C5_7  and  N2_9 
REMARK    3  A    between atoms: N2_9  and  C6_10 
REMARK    4  A    between atoms: C6_10  and  C7_11 
REMARK    5  A    between atoms: C6_10  and  C8_13 
REMARK       I    between atoms: C7_11  and  N3_14 
REMARK    6  A    between atoms: N3_14  and  C9_15 
REMARK    7  A    between atoms: C9_15  and  C10_16 
REMARK    8  A    between atoms: C9_15  and  C11_18 
REMARK       I    between atoms: C10_16  and  N4_21 
REMARK    9  A    between atoms: C11_18  and  C12_19 
REMARK   10  A    between atoms: C11_18  and  C13_20 
REMARK   11  A    between atoms: N4_21  and  C14_22 
REMARK   12  A    between atoms: C14_22  and  C15_23 
REMARK   13  A    between atoms: C14_22  and  C16_25 
REMARK       I    between atoms: C15_23  and  N6_40 
REMARK   14  A    between atoms: C16_25  and  C17_26 
REMARK   15  A    between atoms: C17_26  and  C18_27 
REMARK   16  A    between atoms: C17_26  and  C19_28 
REMARK   17  A    between atoms: C20_29  and  C21_30 
REMARK   18  A    between atoms: C20_29  and  C24_33 
REMARK   19  A    between atoms: C20_29  and  N6_40 
REMARK   20  A    between atoms: C21_30  and  C22_31 
REMARK   21  A    between atoms: C22_31  and  C23_32 
REMARK   22  A    between atoms: C23_32  and  O8_43 
REMARK   23  A    between atoms: C24_33  and  C25_34 
REMARK   24  A    between atoms: C28_38  and  O6_39 
REMARK   25  A    between atoms: C29_42  and  O8_43 
REMARK   26  A    between atoms: C29_42  and  C35_49 
ROOT
ATOM      1  C14 non d ame     -34.471   9.109  29.368  0.00  0.00     0.089 C 
ATOM      2  H20 non d ame     -35.481   9.340  29.029  0.00  0.00     0.087 H 
ENDROOT
BRANCH   1   3
ATOM      3  N4  non d ame     -34.131   7.787  28.865  0.00  0.00    -0.346 N 
ATOM      4  C10 non d ame     -35.218   6.799  28.524  0.00  0.00     0.241 C 
ATOM      5  O4  non d ame     -36.360   7.090  28.666  0.00  0.00    -0.271 OA
ATOM      6  H19 non d ame     -33.154   7.557  28.754  0.00  0.00     0.163 HD
BRANCH   4   7
ATOM      7  C9  non d ame     -34.849   5.436  27.999  0.00  0.00     0.092 C 
ATOM      8  H11 non d ame     -35.735   4.801  27.995  0.00  0.00     0.088 H 
BRANCH   7   9
ATOM      9  N3  non d ame     -34.393   5.554  26.611  0.00  0.00    -0.346 N 
ATOM     10  C7  non d ame     -35.152   4.942  25.549  0.00  0.00     0.240 C 
ATOM     11  O3  non d ame     -36.132   4.350  25.793  0.00  0.00    -0.271 OA
ATOM     12  H10 non d ame     -33.548   6.060  26.385  0.00  0.00     0.163 HD
BRANCH  10  13
ATOM     13  C6  non d ame     -34.660   5.068  24.074  0.00  0.00     0.086 C 
ATOM     14  H6  non d ame     -35.396   5.541  23.423  0.00  0.00     0.086 H 
BRANCH  13  15
ATOM     15  N2  non d ame     -33.475   5.909  24.042  0.00  0.00    -0.343 N 
ATOM     16  C5  non d ame     -33.234   6.773  22.885  0.00  0.00     0.273 C 
ATOM     17  O2  non d ame     -33.998   6.782  21.983  0.00  0.00    -0.266 OA
ATOM     18  H5  non d ame     -32.826   5.893  24.816  0.00  0.00     0.163 HD
BRANCH  16  19
ATOM     19  C4  non d ame     -31.986   7.669  22.839  0.00  0.00     0.154 A 
ATOM     20  C1  non d ame     -31.948   9.099  22.834  0.00  0.00    -0.017 A 
ATOM     21  C2  non d ame     -30.575   9.426  22.785  0.00  0.00     0.077 A 
ATOM     22  H1  non d ame     -32.788   9.794  22.860  0.00  0.00     0.091 H 
ATOM     23  O1  non d ame     -29.911   8.308  22.767  0.00  0.00    -0.218 OA
ATOM     24  N1  non d ame     -30.713   7.268  22.797  0.00  0.00    -0.123 NA
BRANCH  21  25
ATOM     25  C3  non d ame     -29.982  10.829  22.761  0.00  0.00    -0.029 C 
ATOM     26  H2  non d ame     -28.896  10.766  22.826  0.00  0.00     0.036 H 
ATOM     27  H3  non d ame     -30.262  11.325  21.832  0.00  0.00     0.036 H 
ATOM     28  H4  non d ame     -30.364  11.400  23.607  0.00  0.00     0.036 H 
ENDBRANCH  21  25
ENDBRANCH  16  19
ENDBRANCH  13  15
BRANCH  13  29
ATOM     29  C8  non d ame     -34.337   3.700  23.530  0.00  0.00    -0.049 C 
ATOM     30  H7  non d ame     -33.410   3.341  23.977  0.00  0.00     0.030 H 
ATOM     31  H8  non d ame     -35.147   3.012  23.772  0.00  0.00     0.030 H 
ATOM     32  H9  non d ame     -34.220   3.757  22.447  0.00  0.00     0.030 H 
ENDBRANCH  13  29
ENDBRANCH  10  13
ENDBRANCH   7   9
BRANCH   7  33
ATOM     33  C11 non d ame     -33.704   4.839  28.869  0.00  0.00    -0.033 C 
ATOM     34  H12 non d ame     -32.839   5.493  28.769  0.00  0.00     0.042 H 
BRANCH  33  35
ATOM     35  C12 non d ame     -34.096   4.807  30.380  0.00  0.00    -0.071 C 
ATOM     36  H13 non d ame     -35.060   4.311  30.495  0.00  0.00     0.028 H 
ATOM     37  H14 non d ame     -33.338   4.261  30.940  0.00  0.00     0.028 H 
ATOM     38  H15 non d ame     -34.165   5.826  30.759  0.00  0.00     0.028 H 
ENDBRANCH  33  35
BRANCH  33  39
ATOM     39  C13 non d ame     -33.298   3.419  28.360  0.00  0.00    -0.071 C 
ATOM     40  H16 non d ame     -34.179   2.778  28.327  0.00  0.00     0.028 H 
ATOM     41  H17 non d ame     -32.870   3.500  27.360  0.00  0.00     0.028 H 
ATOM     42  H18 non d ame     -32.559   2.988  29.035  0.00  0.00     0.028 H 
ENDBRANCH  33  39
ENDBRANCH   7  33
ENDBRANCH   4   7
ENDBRANCH   1   3
BRANCH   1  43
ATOM     43  C15 non d ame     -33.425  10.127  28.831  0.00  0.00     0.240 C 
ATOM     44  O5  non d ame     -32.482   9.739  28.220  0.00  0.00    -0.271 OA
ATOM     45  N6  non d ame     -33.602  11.588  29.072  0.00  0.00    -0.355 N 
ATOM     46  H46 non d ame     -34.401  11.930  29.586  0.00  0.00     0.162 HD
BRANCH  45  47
ATOM     47  C20 non d ame     -32.599  12.543  28.554  0.00  0.00     0.013 C 
ATOM     48  H30 non d ame     -31.628  12.048  28.563  0.00  0.00     0.072 H 
BRANCH  47  49
ATOM     49  C21 non d ame     -32.565  13.764  29.445  0.00  0.00    -0.038 C 
ATOM     50  H31 non d ame     -33.578  14.166  29.433  0.00  0.00     0.036 H 
ATOM     51  H32 non d ame     -32.122  13.431  30.384  0.00  0.00     0.036 H 
BRANCH  49  52
ATOM     52  C22 non d ame     -31.646  14.879  28.899  0.00  0.00     0.018 C 
ATOM     53  H33 non d ame     -30.723  14.808  29.474  0.00  0.00     0.048 H 
ATOM     54  H34 non d ame     -31.627  14.743  27.818  0.00  0.00     0.048 H 
BRANCH  52  55
ATOM     55  C23 non d ame     -32.191  16.314  29.141  0.00  0.00     0.259 C 
ATOM     56  O7  non d ame     -31.684  17.023  29.948  0.00  0.00    -0.265 OA
BRANCH  55  57
ATOM     57  O8  non d ame     -33.313  16.768  28.394  0.00  0.00    -0.317 OA
BRANCH  57  58
ATOM     58  C29 non d ame     -33.084  17.988  27.683  0.00  0.00     0.052 C 
ATOM     59  H47 non d ame     -32.416  18.576  28.314  0.00  0.00     0.082 H 
ATOM     60  H48 non d ame     -32.768  17.693  26.683  0.00  0.00     0.082 H 
BRANCH  58  61
ATOM     61  C35 non d ame     -34.438  18.738  27.570  0.00  0.00    -0.034 A 
ATOM     62  C30 non d ame     -35.608  18.133  28.017  0.00  0.00    -0.075 A 
ATOM     63  C31 non d ame     -36.825  18.806  27.914  0.00  0.00    -0.082 A 
ATOM     64  H49 non d ame     -35.573  17.132  28.446  0.00  0.00     0.084 H 
ATOM     65  C32 non d ame     -36.869  20.088  27.360  0.00  0.00    -0.083 A 
ATOM     66  H50 non d ame     -37.740  18.330  28.267  0.00  0.00     0.083 H 
ATOM     67  C33 non d ame     -35.699  20.686  26.912  0.00  0.00    -0.082 A 
ATOM     68  H51 non d ame     -37.816  20.621  27.277  0.00  0.00     0.083 H 
ATOM     69  C34 non d ame     -34.480  20.018  27.015  0.00  0.00    -0.075 A 
ATOM     70  H52 non d ame     -35.737  21.686  26.478  0.00  0.00     0.083 H 
ATOM     71  H53 non d ame     -33.565  20.495  26.662  0.00  0.00     0.084 H 
ENDBRANCH  58  61
ENDBRANCH  57  58
ENDBRANCH  55  57
ENDBRANCH  52  55
ENDBRANCH  49  52
ENDBRANCH  47  49
BRANCH  47  72
ATOM     72  C24 non d ame     -32.969  12.959  27.132  0.00  0.00    -0.039 C 
ATOM     73  H35 non d ame     -32.408  13.875  26.943  0.00  0.00     0.036 H 
ATOM     74  H36 non d ame     -32.794  12.077  26.516  0.00  0.00     0.036 H 
BRANCH  72  75
ATOM     75  C25 non d ame     -34.524  13.323  27.006  0.00  0.00    -0.001 C 
ATOM     76  C26 non d ame     -35.325  12.100  26.253  0.00  0.00    -0.035 C 
ATOM     77  C27 non d ame     -36.051  12.617  25.233  0.00  0.00     0.085 C 
ATOM     78  H38 non d ame     -34.616  11.441  25.753  0.00  0.00     0.036 H 
ATOM     79  H39 non d ame     -36.082  11.683  26.919  0.00  0.00     0.036 H 
ATOM     80  N5  non d ame     -35.565  14.030  25.017  0.00  0.00    -0.049 N 
ATOM     81  H40 non d ame     -35.797  12.015  24.361  0.00  0.00     0.075 H 
ATOM     82  H41 non d ame     -37.079  12.647  25.594  0.00  0.00     0.075 H 
ATOM     83  C28 non d ame     -34.697  14.406  26.325  0.00  0.00     0.193 C 
ATOM     84  H42 non d ame     -34.947  14.000  24.219  0.00  0.00     0.280 HD
ATOM     85  H43 non d ame     -36.388  14.615  24.997  0.00  0.00     0.280 HD
ATOM     86  H44 non d ame     -35.110  15.059  27.094  0.00  0.00     0.129 H 
ATOM     87  H37 non d ame     -34.941  13.684  27.946  0.00  0.00     0.046 H 
BRANCH  83  88
ATOM     88  O6  non d ame     -33.459  15.005  25.940  0.00  0.00    -0.369 OA
ATOM     89  H45 non d ame     -33.506  15.954  26.075  0.00  0.00     0.212 HD
ENDBRANCH  83  88
ENDBRANCH  72  75
ENDBRANCH  47  72
ENDBRANCH  45  47
ENDBRANCH   1  43
BRANCH   1  90
ATOM     90  C16 non d ame     -34.430   9.088  30.888  0.00  0.00    -0.035 C 
ATOM     91  H21 non d ame     -34.532   8.039  31.164  0.00  0.00     0.037 H 
ATOM     92  H22 non d ame     -33.530   9.639  31.160  0.00  0.00     0.037 H 
BRANCH  90  93
ATOM     93  C17 non d ame     -35.626   9.837  31.557  0.00  0.00    -0.059 C 
ATOM     94  H23 non d ame     -35.929  10.641  30.887  0.00  0.00     0.038 H 
BRANCH  93  95
ATOM     95  C18 non d ame     -36.861   8.904  31.771  0.00  0.00    -0.073 C 
ATOM     96  H24 non d ame     -36.773   8.400  32.733  0.00  0.00     0.028 H 
ATOM     97  H25 non d ame     -37.773   9.499  31.756  0.00  0.00     0.028 H 
ATOM     98  H26 non d ame     -36.898   8.162  30.973  0.00  0.00     0.028 H 
ENDBRANCH  93  95
BRANCH  93  99
ATOM     99  C19 non d ame     -35.197  10.483  32.877  0.00  0.00    -0.073 C 
ATOM    100  H27 non d ame     -34.245  10.996  32.738  0.00  0.00     0.028 H 
ATOM    101  H28 non d ame     -35.953  11.201  33.194  0.00  0.00     0.028 H 
ATOM    102  H29 non d ame     -35.086   9.712  33.640  0.00  0.00     0.028 H 
ENDBRANCH  93  99
ENDBRANCH  90  93
ENDBRANCH   1  90
TORSDOF 26
ENDMDL
MODEL 19
REMARK VINA RESULT:      -5.6      2.516      6.102
REMARK  26 active torsions:
REMARK  status: ('A' for Active; 'I' for Inactive)
REMARK    1  A    between atoms: C2_2  and  C3_3 
REMARK    2  A    between atoms: C4_6  and  C5_7 
REMARK       I    between atoms: C5_7  and  N2_9 
REMARK    3  A    between atoms: N2_9  and  C6_10 
REMARK    4  A    between atoms: C6_10  and  C7_11 
REMARK    5  A    between atoms: C6_10  and  C8_13 
REMARK       I    between atoms: C7_11  and  N3_14 
REMARK    6  A    between atoms: N3_14  and  C9_15 
REMARK    7  A    between atoms: C9_15  and  C10_16 
REMARK    8  A    between atoms: C9_15  and  C11_18 
REMARK       I    between atoms: C10_16  and  N4_21 
REMARK    9  A    between atoms: C11_18  and  C12_19 
REMARK   10  A    between atoms: C11_18  and  C13_20 
REMARK   11  A    between atoms: N4_21  and  C14_22 
REMARK   12  A    between atoms: C14_22  and  C15_23 
REMARK   13  A    between atoms: C14_22  and  C16_25 
REMARK       I    between atoms: C15_23  and  N6_40 
REMARK   14  A    between atoms: C16_25  and  C17_26 
REMARK   15  A    between atoms: C17_26  and  C18_27 
REMARK   16  A    between atoms: C17_26  and  C19_28 
REMARK   17  A    between atoms: C20_29  and  C21_30 
REMARK   18  A    between atoms: C20_29  and  C24_33 
REMARK   19  A    between atoms: C20_29  and  N6_40 
REMARK   20  A    between atoms: C21_30  and  C22_31 
REMARK   21  A    between atoms: C22_31  and  C23_32 
REMARK   22  A    between atoms: C23_32  and  O8_43 
REMARK   23  A    between atoms: C24_33  and  C25_34 
REMARK   24  A    between atoms: C28_38  and  O6_39 
REMARK   25  A    between atoms: C29_42  and  O8_43 
REMARK   26  A    between atoms: C29_42  and  C35_49 
ROOT
ATOM      1  C14 non d ame     -33.607   4.311  27.125  0.00  0.00     0.089 C 
ATOM      2  H20 non d ame     -32.742   3.907  27.651  0.00  0.00     0.087 H 
ENDROOT
BRANCH   1   3
ATOM      3  N4  non d ame     -34.676   4.473  28.099  0.00  0.00    -0.346 N 
ATOM      4  C10 non d ame     -36.039   4.946  27.663  0.00  0.00     0.241 C 
ATOM      5  O4  non d ame     -36.252   5.194  26.521  0.00  0.00    -0.271 OA
ATOM      6  H19 non d ame     -34.474   4.259  29.066  0.00  0.00     0.163 HD
BRANCH   4   7
ATOM      7  C9  non d ame     -37.136   5.103  28.684  0.00  0.00     0.092 C 
ATOM      8  H11 non d ame     -36.942   4.435  29.523  0.00  0.00     0.088 H 
BRANCH   7   9
ATOM      9  N3  non d ame     -37.124   6.472  29.208  0.00  0.00    -0.346 N 
ATOM     10  C7  non d ame     -37.279   6.702  30.623  0.00  0.00     0.240 C 
ATOM     11  O3  non d ame     -37.415   5.798  31.354  0.00  0.00    -0.271 OA
ATOM     12  H10 non d ame     -37.008   7.262  28.590  0.00  0.00     0.163 HD
BRANCH  10  13
ATOM     13  C6  non d ame     -37.268   8.162  31.175  0.00  0.00     0.086 C 
ATOM     14  H6  non d ame     -37.128   8.203  32.255  0.00  0.00     0.086 H 
BRANCH  13  15
ATOM     15  N2  non d ame     -36.153   8.882  30.583  0.00  0.00    -0.343 N 
ATOM     16  C5  non d ame     -35.113   9.440  31.450  0.00  0.00     0.273 C 
ATOM     17  O2  non d ame     -35.184   9.307  32.622  0.00  0.00    -0.266 OA
ATOM     18  H5  non d ame     -36.102   8.994  29.580  0.00  0.00     0.163 HD
BRANCH  16  19
ATOM     19  C4  non d ame     -33.928  10.202  30.837  0.00  0.00     0.154 A 
ATOM     20  C1  non d ame     -33.249  11.334  31.390  0.00  0.00    -0.017 A 
ATOM     21  C2  non d ame     -32.246  11.652  30.447  0.00  0.00     0.077 A 
ATOM     22  H1  non d ame     -33.453  11.846  32.330  0.00  0.00     0.091 H 
ATOM     23  O1  non d ame     -32.344  10.797  29.473  0.00  0.00    -0.218 OA
ATOM     24  N1  non d ame     -33.319   9.941  29.677  0.00  0.00    -0.123 NA
BRANCH  21  25
ATOM     25  C3  non d ame     -31.235  12.787  30.555  0.00  0.00    -0.029 C 
ATOM     26  H2  non d ame     -31.703  13.721  30.246  0.00  0.00     0.036 H 
ATOM     27  H3  non d ame     -30.896  12.874  31.587  0.00  0.00     0.036 H 
ATOM     28  H4  non d ame     -30.383  12.576  29.909  0.00  0.00     0.036 H 
ENDBRANCH  21  25
ENDBRANCH  16  19
ENDBRANCH  13  15
BRANCH  13  29
ATOM     29  C8  non d ame     -38.567   8.843  30.826  0.00  0.00    -0.049 C 
ATOM     30  H7  non d ame     -39.390   8.137  30.938  0.00  0.00     0.030 H 
ATOM     31  H8  non d ame     -38.723   9.691  31.493  0.00  0.00     0.030 H 
ATOM     32  H9  non d ame     -38.528   9.195  29.795  0.00  0.00     0.030 H 
ENDBRANCH  13  29
ENDBRANCH  10  13
ENDBRANCH   7   9
BRANCH   7  33
ATOM     33  C11 non d ame     -38.512   4.819  28.014  0.00  0.00    -0.033 C 
ATOM     34  H12 non d ame     -38.318   4.462  27.003  0.00  0.00     0.042 H 
BRANCH  33  35
ATOM     35  C12 non d ame     -39.289   3.694  28.767  0.00  0.00    -0.071 C 
ATOM     36  H13 non d ame     -38.587   3.088  29.340  0.00  0.00     0.028 H 
ATOM     37  H14 non d ame     -40.015   4.145  29.443  0.00  0.00     0.028 H 
ATOM     38  H15 non d ame     -39.807   3.064  28.044  0.00  0.00     0.028 H 
ENDBRANCH  33  35
BRANCH  33  39
ATOM     39  C13 non d ame     -39.364   6.124  27.911  0.00  0.00    -0.071 C 
ATOM     40  H16 non d ame     -40.233   5.942  27.279  0.00  0.00     0.028 H 
ATOM     41  H17 non d ame     -39.695   6.422  28.907  0.00  0.00     0.028 H 
ATOM     42  H18 non d ame     -38.759   6.920  27.477  0.00  0.00     0.028 H 
ENDBRANCH  33  39
ENDBRANCH   7  33
ENDBRANCH   4   7
ENDBRANCH   1   3
BRANCH   1  43
ATOM     43  C15 non d ame     -33.309   5.696  26.482  0.00  0.00     0.240 C 
ATOM     44  O5  non d ame     -32.814   6.557  27.134  0.00  0.00    -0.271 OA
ATOM     45  N6  non d ame     -33.634   5.945  25.048  0.00  0.00    -0.355 N 
ATOM     46  H46 non d ame     -34.050   5.220  24.482  0.00  0.00     0.162 HD
BRANCH  45  47
ATOM     47  C20 non d ame     -33.343   7.267  24.451  0.00  0.00     0.013 C 
ATOM     48  H30 non d ame     -32.825   7.866  25.199  0.00  0.00     0.072 H 
BRANCH  47  49
ATOM     49  C21 non d ame     -34.642   7.936  24.062  0.00  0.00    -0.038 C 
ATOM     50  H31 non d ame     -34.883   7.557  23.068  0.00  0.00     0.036 H 
ATOM     51  H32 non d ame     -35.325   7.758  24.893  0.00  0.00     0.036 H 
BRANCH  49  52
ATOM     52  C22 non d ame     -34.510   9.468  23.925  0.00  0.00     0.018 C 
ATOM     53  H33 non d ame     -33.485   9.703  24.212  0.00  0.00     0.048 H 
ATOM     54  H34 non d ame     -34.863   9.707  22.922  0.00  0.00     0.048 H 
BRANCH  52  55
ATOM     55  C23 non d ame     -35.420  10.265  24.901  0.00  0.00     0.259 C 
ATOM     56  O7  non d ame     -36.598  10.108  24.891  0.00  0.00    -0.265 OA
BRANCH  55  57
ATOM     57  O8  non d ame     -34.830  11.196  25.800  0.00  0.00    -0.317 OA
BRANCH  57  58
ATOM     58  C29 non d ame     -33.406  11.098  25.890  0.00  0.00     0.052 C 
ATOM     59  H47 non d ame     -33.210  10.284  26.588  0.00  0.00     0.082 H 
ATOM     60  H48 non d ame     -33.049  11.032  24.862  0.00  0.00     0.082 H 
BRANCH  58  61
ATOM     61  C35 non d ame     -32.873  12.416  26.511  0.00  0.00    -0.034 A 
ATOM     62  C30 non d ame     -33.712  13.211  27.285  0.00  0.00    -0.075 A 
ATOM     63  C31 non d ame     -33.233  14.395  27.843  0.00  0.00    -0.082 A 
ATOM     64  H49 non d ame     -34.745  12.906  27.455  0.00  0.00     0.084 H 
ATOM     65  C32 non d ame     -31.910  14.786  27.621  0.00  0.00    -0.083 A 
ATOM     66  H50 non d ame     -33.893  15.015  28.450  0.00  0.00     0.083 H 
ATOM     67  C33 non d ame     -31.077  13.992  26.844  0.00  0.00    -0.082 A 
ATOM     68  H51 non d ame     -31.527  15.710  28.054  0.00  0.00     0.083 H 
ATOM     69  C34 non d ame     -31.551  12.806  26.287  0.00  0.00    -0.075 A 
ATOM     70  H52 non d ame     -30.046  14.300  26.671  0.00  0.00     0.083 H 
ATOM     71  H53 non d ame     -30.890  12.187  25.679  0.00  0.00     0.084 H 
ENDBRANCH  58  61
ENDBRANCH  57  58
ENDBRANCH  55  57
ENDBRANCH  52  55
ENDBRANCH  49  52
ENDBRANCH  47  49
BRANCH  47  72
ATOM     72  C24 non d ame     -32.468   7.092  23.211  0.00  0.00    -0.039 C 
ATOM     73  H35 non d ame     -32.357   6.015  23.084  0.00  0.00     0.036 H 
ATOM     74  H36 non d ame     -32.947   7.685  22.432  0.00  0.00     0.036 H 
BRANCH  72  75
ATOM     75  C25 non d ame     -31.001   7.697  23.431  0.00  0.00    -0.001 C 
ATOM     76  C26 non d ame     -31.039   9.332  23.261  0.00  0.00    -0.035 C 
ATOM     77  C27 non d ame     -30.074   9.702  22.384  0.00  0.00     0.085 C 
ATOM     78  H38 non d ame     -31.962   9.636  22.768  0.00  0.00     0.036 H 
ATOM     79  H39 non d ame     -30.734   9.812  24.192  0.00  0.00     0.036 H 
ATOM     80  N5  non d ame     -29.601   8.446  21.693  0.00  0.00    -0.049 N 
ATOM     81  H40 non d ame     -30.573  10.342  21.657  0.00  0.00     0.075 H 
ATOM     82  H41 non d ame     -29.263  10.099  22.994  0.00  0.00     0.075 H 
ATOM     83  C28 non d ame     -30.164   7.215  22.574  0.00  0.00     0.193 C 
ATOM     84  H42 non d ame     -30.052   8.428  20.790  0.00  0.00     0.280 HD
ATOM     85  H43 non d ame     -28.592   8.450  21.754  0.00  0.00     0.280 HD
ATOM     86  H44 non d ame     -29.500   6.659  23.236  0.00  0.00     0.129 H 
ATOM     87  H37 non d ame     -30.522   7.302  24.327  0.00  0.00     0.046 H 
BRANCH  83  88
ATOM     88  O6  non d ame     -30.765   6.236  21.724  0.00  0.00    -0.369 OA
ATOM     89  H45 non d ame     -31.486   5.806  22.191  0.00  0.00     0.212 HD
ENDBRANCH  83  88
ENDBRANCH  72  75
ENDBRANCH  47  72
ENDBRANCH  45  47
ENDBRANCH   1  43
BRANCH   1  90
ATOM     90  C16 non d ame     -34.058   3.335  26.051  0.00  0.00    -0.035 C 
ATOM     91  H21 non d ame     -35.044   3.681  25.742  0.00  0.00     0.037 H 
ATOM     92  H22 non d ame     -33.242   3.301  25.330  0.00  0.00     0.037 H 
BRANCH  90  93
ATOM     93  C17 non d ame     -34.248   1.874  26.571  0.00  0.00    -0.059 C 
ATOM     94  H23 non d ame     -33.960   1.858  27.623  0.00  0.00     0.038 H 
BRANCH  93  95
ATOM     95  C18 non d ame     -35.734   1.403  26.477  0.00  0.00    -0.073 C 
ATOM     96  H24 non d ame     -35.772   0.406  26.038  0.00  0.00     0.028 H 
ATOM     97  H25 non d ame     -36.172   1.377  27.474  0.00  0.00     0.028 H 
ATOM     98  H26 non d ame     -36.296   2.096  25.851  0.00  0.00     0.028 H 
ENDBRANCH  93  95
BRANCH  93  99
ATOM     99  C19 non d ame     -33.321   0.906  25.832  0.00  0.00    -0.073 C 
ATOM    100  H27 non d ame     -32.604   1.472  25.236  0.00  0.00     0.028 H 
ATOM    101  H28 non d ame     -32.786   0.290  26.555  0.00  0.00     0.028 H 
ATOM    102  H29 non d ame     -33.912   0.265  25.178  0.00  0.00     0.028 H 
ENDBRANCH  93  99
ENDBRANCH  90  93
ENDBRANCH   1  90
TORSDOF 26
ENDMDL
MODEL 20
REMARK VINA RESULT:      -5.5      2.104      3.697
REMARK  26 active torsions:
REMARK  status: ('A' for Active; 'I' for Inactive)
REMARK    1  A    between atoms: C2_2  and  C3_3 
REMARK    2  A    between atoms: C4_6  and  C5_7 
REMARK       I    between atoms: C5_7  and  N2_9 
REMARK    3  A    between atoms: N2_9  and  C6_10 
REMARK    4  A    between atoms: C6_10  and  C7_11 
REMARK    5  A    between atoms: C6_10  and  C8_13 
REMARK       I    between atoms: C7_11  and  N3_14 
REMARK    6  A    between atoms: N3_14  and  C9_15 
REMARK    7  A    between atoms: C9_15  and  C10_16 
REMARK    8  A    between atoms: C9_15  and  C11_18 
REMARK       I    between atoms: C10_16  and  N4_21 
REMARK    9  A    between atoms: C11_18  and  C12_19 
REMARK   10  A    between atoms: C11_18  and  C13_20 
REMARK   11  A    between atoms: N4_21  and  C14_22 
REMARK   12  A    between atoms: C14_22  and  C15_23 
REMARK   13  A    between atoms: C14_22  and  C16_25 
REMARK       I    between atoms: C15_23  and  N6_40 
REMARK   14  A    between atoms: C16_25  and  C17_26 
REMARK   15  A    between atoms: C17_26  and  C18_27 
REMARK   16  A    between atoms: C17_26  and  C19_28 
REMARK   17  A    between atoms: C20_29  and  C21_30 
REMARK   18  A    between atoms: C20_29  and  C24_33 
REMARK   19  A    between atoms: C20_29  and  N6_40 
REMARK   20  A    between atoms: C21_30  and  C22_31 
REMARK   21  A    between atoms: C22_31  and  C23_32 
REMARK   22  A    between atoms: C23_32  and  O8_43 
REMARK   23  A    between atoms: C24_33  and  C25_34 
REMARK   24  A    between atoms: C28_38  and  O6_39 
REMARK   25  A    between atoms: C29_42  and  O8_43 
REMARK   26  A    between atoms: C29_42  and  C35_49 
ROOT
ATOM      1  C14 non d ame     -32.569   8.735  25.203  0.00  0.00     0.089 C 
ATOM      2  H20 non d ame     -31.605   8.396  25.582  0.00  0.00     0.087 H 
ENDROOT
BRANCH   1   3
ATOM      3  N4  non d ame     -33.306   7.558  24.767  0.00  0.00    -0.346 N 
ATOM      4  C10 non d ame     -32.594   6.244  24.568  0.00  0.00     0.241 C 
ATOM      5  O4  non d ame     -31.427   6.158  24.764  0.00  0.00    -0.271 OA
ATOM      6  H19 non d ame     -34.299   7.653  24.603  0.00  0.00     0.163 HD
BRANCH   4   7
ATOM      7  C9  non d ame     -33.373   5.035  24.122  0.00  0.00     0.092 C 
ATOM      8  H11 non d ame     -32.728   4.157  24.163  0.00  0.00     0.088 H 
BRANCH   7   9
ATOM      9  N3  non d ame     -34.485   4.799  25.048  0.00  0.00    -0.346 N 
ATOM     10  C7  non d ame     -34.337   3.850  26.124  0.00  0.00     0.240 C 
ATOM     11  O3  non d ame     -33.331   3.267  26.258  0.00  0.00    -0.271 OA
ATOM     12  H10 non d ame     -35.359   5.294  24.944  0.00  0.00     0.163 HD
BRANCH  10  13
ATOM     13  C6  non d ame     -35.524   3.602  27.106  0.00  0.00     0.086 C 
ATOM     14  H6  non d ame     -35.193   3.348  28.112  0.00  0.00     0.086 H 
BRANCH  13  15
ATOM     15  N2  non d ame     -36.304   4.823  27.220  0.00  0.00    -0.343 N 
ATOM     16  C5  non d ame     -36.182   5.646  28.425  0.00  0.00     0.273 C 
ATOM     17  O2  non d ame     -35.456   5.317  29.297  0.00  0.00    -0.266 OA
ATOM     18  H5  non d ame     -36.925   5.095  26.471  0.00  0.00     0.163 HD
BRANCH  16  19
ATOM     19  C4  non d ame     -37.000   6.940  28.559  0.00  0.00     0.154 A 
ATOM     20  C1  non d ame     -38.144   7.158  29.390  0.00  0.00    -0.017 A 
ATOM     21  C2  non d ame     -38.519   8.499  29.149  0.00  0.00     0.077 A 
ATOM     22  H1  non d ame     -38.628   6.452  30.065  0.00  0.00     0.091 H 
ATOM     23  O1  non d ame     -37.681   8.985  28.281  0.00  0.00    -0.218 OA
ATOM     24  N1  non d ame     -36.786   8.095  27.921  0.00  0.00    -0.123 NA
BRANCH  21  25
ATOM     25  C3  non d ame     -39.687   9.238  29.789  0.00  0.00    -0.029 C 
ATOM     26  H2  non d ame     -40.499   8.537  29.981  0.00  0.00     0.036 H 
ATOM     27  H3  non d ame     -39.363   9.684  30.729  0.00  0.00     0.036 H 
ATOM     28  H4  non d ame     -40.034  10.021  29.116  0.00  0.00     0.036 H 
ENDBRANCH  21  25
ENDBRANCH  16  19
ENDBRANCH  13  15
BRANCH  13  29
ATOM     29  C8  non d ame     -36.388   2.484  26.580  0.00  0.00    -0.049 C 
ATOM     30  H7  non d ame     -36.008   2.155  25.613  0.00  0.00     0.030 H 
ATOM     31  H8  non d ame     -36.368   1.649  27.281  0.00  0.00     0.030 H 
ATOM     32  H9  non d ame     -37.413   2.839  26.467  0.00  0.00     0.030 H 
ENDBRANCH  13  29
ENDBRANCH  10  13
ENDBRANCH   7   9
BRANCH   7  33
ATOM     33  C11 non d ame     -33.937   5.281  22.692  0.00  0.00    -0.033 C 
ATOM     34  H12 non d ame     -33.480   6.194  22.310  0.00  0.00     0.042 H 
BRANCH  33  35
ATOM     35  C12 non d ame     -33.551   4.122  21.721  0.00  0.00    -0.071 C 
ATOM     36  H13 non d ame     -34.411   3.861  21.105  0.00  0.00     0.028 H 
ATOM     37  H14 non d ame     -32.729   4.443  21.081  0.00  0.00     0.028 H 
ATOM     38  H15 non d ame     -33.243   3.251  22.299  0.00  0.00     0.028 H 
ENDBRANCH  33  35
BRANCH  33  39
ATOM     39  C13 non d ame     -35.485   5.495  22.730  0.00  0.00    -0.071 C 
ATOM     40  H16 non d ame     -35.985   4.527  22.750  0.00  0.00     0.028 H 
ATOM     41  H17 non d ame     -35.751   6.061  23.623  0.00  0.00     0.028 H 
ATOM     42  H18 non d ame     -35.797   6.049  21.844  0.00  0.00     0.028 H 
ENDBRANCH  33  39
ENDBRANCH   7  33
ENDBRANCH   4   7
ENDBRANCH   1   3
BRANCH   1  43
ATOM     43  C15 non d ame     -33.404   9.466  26.293  0.00  0.00     0.240 C 
ATOM     44  O5  non d ame     -34.481   9.892  26.025  0.00  0.00    -0.271 OA
ATOM     45  N6  non d ame     -32.865   9.628  27.673  0.00  0.00    -0.355 N 
ATOM     46  H46 non d ame     -31.954   9.266  27.914  0.00  0.00     0.162 HD
BRANCH  45  47
ATOM     47  C20 non d ame     -33.672  10.324  28.698  0.00  0.00     0.013 C 
ATOM     48  H30 non d ame     -34.684  10.439  28.308  0.00  0.00     0.072 H 
BRANCH  47  49
ATOM     49  C21 non d ame     -33.067  11.682  28.972  0.00  0.00    -0.038 C 
ATOM     50  H31 non d ame     -32.468  11.921  28.094  0.00  0.00     0.036 H 
ATOM     51  H32 non d ame     -33.902  12.325  29.255  0.00  0.00     0.036 H 
BRANCH  49  52
ATOM     52  C22 non d ame     -32.097  11.675  30.174  0.00  0.00     0.018 C 
ATOM     53  H33 non d ame     -32.701  11.931  31.043  0.00  0.00     0.048 H 
ATOM     54  H34 non d ame     -31.582  10.715  30.131  0.00  0.00     0.048 H 
BRANCH  52  55
ATOM     55  C23 non d ame     -30.988  12.760  30.089  0.00  0.00     0.259 C 
ATOM     56  O7  non d ame     -30.709  13.413  31.042  0.00  0.00    -0.265 OA
BRANCH  55  57
ATOM     57  O8  non d ame     -30.316  12.976  28.854  0.00  0.00    -0.317 OA
BRANCH  57  58
ATOM     58  C29 non d ame     -30.289  14.343  28.437  0.00  0.00     0.052 C 
ATOM     59  H47 non d ame     -30.725  14.911  29.259  0.00  0.00     0.082 H 
ATOM     60  H48 non d ame     -29.262  14.537  28.126  0.00  0.00     0.082 H 
BRANCH  58  61
ATOM     61  C35 non d ame     -31.212  14.484  27.197  0.00  0.00    -0.034 A 
ATOM     62  C30 non d ame     -31.075  13.611  26.123  0.00  0.00    -0.075 A 
ATOM     63  C31 non d ame     -31.904  13.738  25.010  0.00  0.00    -0.082 A 
ATOM     64  H49 non d ame     -30.318  12.827  26.154  0.00  0.00     0.084 H 
ATOM     65  C32 non d ame     -32.872  14.745  24.972  0.00  0.00    -0.083 A 
ATOM     66  H50 non d ame     -31.795  13.050  24.170  0.00  0.00     0.083 H 
ATOM     67  C33 non d ame     -33.003  15.616  26.045  0.00  0.00    -0.082 A 
ATOM     68  H51 non d ame     -33.525  14.851  24.106  0.00  0.00     0.083 H 
ATOM     69  C34 non d ame     -32.178  15.492  27.160  0.00  0.00    -0.075 A 
ATOM     70  H52 non d ame     -33.758  16.403  26.011  0.00  0.00     0.083 H 
ATOM     71  H53 non d ame     -32.288  16.180  27.999  0.00  0.00     0.084 H 
ENDBRANCH  58  61
ENDBRANCH  57  58
ENDBRANCH  55  57
ENDBRANCH  52  55
ENDBRANCH  49  52
ENDBRANCH  47  49
BRANCH  47  72
ATOM     72  C24 non d ame     -33.690   9.504  29.987  0.00  0.00    -0.039 C 
ATOM     73  H35 non d ame     -33.588   8.466  29.671  0.00  0.00     0.036 H 
ATOM     74  H36 non d ame     -32.933   9.955  30.628  0.00  0.00     0.036 H 
BRANCH  72  75
ATOM     75  C25 non d ame     -35.093   9.631  30.750  0.00  0.00    -0.001 C 
ATOM     76  C26 non d ame     -35.005  10.813  31.890  0.00  0.00    -0.035 C 
ATOM     77  C27 non d ame     -35.437  10.313  33.072  0.00  0.00     0.085 C 
ATOM     78  H38 non d ame     -33.964  11.068  32.085  0.00  0.00     0.036 H 
ATOM     79  H39 non d ame     -35.726  11.600  31.668  0.00  0.00     0.036 H 
ATOM     80  N5  non d ame     -35.501   8.813  32.920  0.00  0.00    -0.049 N 
ATOM     81  H40 non d ame     -34.661  10.565  33.795  0.00  0.00     0.075 H 
ATOM     82  H41 non d ame     -36.447  10.700  33.200  0.00  0.00     0.075 H 
ATOM     83  C28 non d ame     -35.409   8.523  31.334  0.00  0.00     0.193 C 
ATOM     84  H42 non d ame     -34.671   8.444  33.363  0.00  0.00     0.280 HD
ATOM     85  H43 non d ame     -36.415   8.531  33.245  0.00  0.00     0.280 HD
ATOM     86  H44 non d ame     -36.299   8.248  30.769  0.00  0.00     0.129 H 
ATOM     87  H37 non d ame     -35.936   9.667  30.061  0.00  0.00     0.046 H 
BRANCH  83  88
ATOM     88  O6  non d ame     -34.458   7.488  31.077  0.00  0.00    -0.369 OA
ATOM     89  H45 non d ame     -34.857   6.819  30.514  0.00  0.00     0.212 HD
ENDBRANCH  83  88
ENDBRANCH  72  75
ENDBRANCH  47  72
ENDBRANCH  45  47
ENDBRANCH   1  43
BRANCH   1  90
ATOM     90  C16 non d ame     -32.360   9.658  24.014  0.00  0.00    -0.035 C 
ATOM     91  H21 non d ame     -33.116   9.368  23.286  0.00  0.00     0.037 H 
ATOM     92  H22 non d ame     -32.361  10.667  24.428  0.00  0.00     0.037 H 
BRANCH  90  93
ATOM     93  C17 non d ame     -30.977   9.472  23.312  0.00  0.00    -0.059 C 
ATOM     94  H23 non d ame     -30.321   8.948  24.007  0.00  0.00     0.038 H 
BRANCH  93  95
ATOM     95  C18 non d ame     -31.087   8.605  22.016  0.00  0.00    -0.073 C 
ATOM     96  H24 non d ame     -30.791   7.580  22.238  0.00  0.00     0.028 H 
ATOM     97  H25 non d ame     -32.116   8.616  21.657  0.00  0.00     0.028 H 
ATOM     98  H26 non d ame     -30.430   9.015  21.249  0.00  0.00     0.028 H 
ENDBRANCH  93  95
BRANCH  93  99
ATOM     99  C19 non d ame     -30.331  10.826  23.008  0.00  0.00    -0.073 C 
ATOM    100  H27 non d ame     -29.521  10.690  22.291  0.00  0.00     0.028 H 
ATOM    101  H28 non d ame     -31.078  11.500  22.589  0.00  0.00     0.028 H 
ATOM    102  H29 non d ame     -29.933  11.253  23.928  0.00  0.00     0.028 H 
ENDBRANCH  93  99
ENDBRANCH  90  93
ENDBRANCH   1  90
TORSDOF 26
ENDMDL
