MODEL 1
REMARK VINA RESULT:      -7.2      0.000      0.000
REMARK  26 active torsions:
REMARK  status: ('A' for Active; 'I' for Inactive)
REMARK    1  A    between atoms: C2_2  and  C3_3 
REMARK    2  A    between atoms: C4_6  and  C5_7 
REMARK       I    between atoms: C5_7  and  N2_9 
REMARK    3  A    between atoms: N2_9  and  C6_10 
REMARK    4  A    between atoms: C6_10  and  C7_11 
REMARK    5  A    between atoms: C6_10  and  C8_13 
REMARK       I    between atoms: C7_11  and  N3_14 
REMARK    6  A    between atoms: N3_14  and  C9_15 
REMARK    7  A    between atoms: C9_15  and  C10_16 
REMARK    8  A    between atoms: C9_15  and  C11_18 
REMARK       I    between atoms: C10_16  and  N4_21 
REMARK    9  A    between atoms: C11_18  and  C12_19 
REMARK   10  A    between atoms: C11_18  and  C13_20 
REMARK   11  A    between atoms: N4_21  and  C14_22 
REMARK   12  A    between atoms: C14_22  and  C15_23 
REMARK   13  A    between atoms: C14_22  and  C16_25 
REMARK       I    between atoms: C15_23  and  N6_40 
REMARK   14  A    between atoms: C16_25  and  C17_26 
REMARK   15  A    between atoms: C17_26  and  C18_27 
REMARK   16  A    between atoms: C17_26  and  C19_28 
REMARK   17  A    between atoms: C20_29  and  C21_30 
REMARK   18  A    between atoms: C20_29  and  C24_33 
REMARK   19  A    between atoms: C20_29  and  N6_40 
REMARK   20  A    between atoms: C21_30  and  C22_31 
REMARK   21  A    between atoms: C22_31  and  C23_32 
REMARK   22  A    between atoms: C23_32  and  O8_43 
REMARK   23  A    between atoms: C24_33  and  C25_34 
REMARK   24  A    between atoms: C28_38  and  O6_39 
REMARK   25  A    between atoms: C29_42  and  O8_43 
REMARK   26  A    between atoms: C29_42  and  C35_49 
ROOT
ATOM      1  C14 non d ame     -32.909  10.461  25.668  0.00  0.00     0.089 C 
ATOM      2  H20 non d ame     -33.639  10.553  24.863  0.00  0.00     0.087 H 
ENDROOT
BRANCH   1   3
ATOM      3  N4  non d ame     -32.346   9.121  25.596  0.00  0.00    -0.346 N 
ATOM      4  C10 non d ame     -33.089   8.019  24.883  0.00  0.00     0.241 C 
ATOM      5  O4  non d ame     -34.140   8.234  24.377  0.00  0.00    -0.271 OA
ATOM      6  H19 non d ame     -31.451   8.957  26.035  0.00  0.00     0.163 HD
BRANCH   4   7
ATOM      7  C9  non d ame     -32.488   6.639  24.814  0.00  0.00     0.092 C 
ATOM      8  H11 non d ame     -31.426   6.699  25.051  0.00  0.00     0.088 H 
BRANCH   7   9
ATOM      9  N3  non d ame     -33.111   5.783  25.828  0.00  0.00    -0.346 N 
ATOM     10  C7  non d ame     -32.687   5.870  27.203  0.00  0.00     0.240 C 
ATOM     11  O3  non d ame     -31.845   6.623  27.512  0.00  0.00    -0.271 OA
ATOM     12  H10 non d ame     -33.838   5.128  25.576  0.00  0.00     0.163 HD
BRANCH  10  13
ATOM     13  C6  non d ame     -33.352   4.954  28.278  0.00  0.00     0.086 C 
ATOM     14  H6  non d ame     -32.726   4.815  29.159  0.00  0.00     0.086 H 
BRANCH  13  15
ATOM     15  N2  non d ame     -34.581   5.581  28.736  0.00  0.00    -0.343 N 
ATOM     16  C5  non d ame     -34.924   5.540  30.159  0.00  0.00     0.273 C 
ATOM     17  O2  non d ame     -34.207   4.998  30.926  0.00  0.00    -0.266 OA
ATOM     18  H5  non d ame     -35.190   6.039  28.073  0.00  0.00     0.163 HD
BRANCH  16  19
ATOM     19  C4  non d ame     -36.219   6.199  30.658  0.00  0.00     0.154 A 
ATOM     20  C1  non d ame     -36.527   7.596  30.675  0.00  0.00    -0.017 A 
ATOM     21  C2  non d ame     -37.827   7.675  31.222  0.00  0.00     0.077 A 
ATOM     22  H1  non d ame     -35.903   8.426  30.342  0.00  0.00     0.091 H 
ATOM     23  O1  non d ame     -38.212   6.461  31.484  0.00  0.00    -0.218 OA
ATOM     24  N1  non d ame     -37.291   5.582  31.163  0.00  0.00    -0.123 NA
BRANCH  21  25
ATOM     25  C3  non d ame     -38.629   8.948  31.461  0.00  0.00    -0.029 C 
ATOM     26  H2  non d ame     -38.831   9.435  30.507  0.00  0.00     0.036 H 
ATOM     27  H3  non d ame     -39.572   8.697  31.947  0.00  0.00     0.036 H 
ATOM     28  H4  non d ame     -38.060   9.622  32.100  0.00  0.00     0.036 H 
ENDBRANCH  21  25
ENDBRANCH  16  19
ENDBRANCH  13  15
BRANCH  13  29
ATOM     29  C8  non d ame     -33.653   3.606  27.675  0.00  0.00    -0.049 C 
ATOM     30  H7  non d ame     -33.495   2.830  28.424  0.00  0.00     0.030 H 
ATOM     31  H8  non d ame     -34.689   3.581  27.340  0.00  0.00     0.030 H 
ATOM     32  H9  non d ame     -32.992   3.431  26.826  0.00  0.00     0.030 H 
ENDBRANCH  13  29
ENDBRANCH  10  13
ENDBRANCH   7   9
BRANCH   7  33
ATOM     33  C11 non d ame     -32.740   6.034  23.402  0.00  0.00    -0.033 C 
ATOM     34  H12 non d ame     -33.561   6.590  22.948  0.00  0.00     0.042 H 
BRANCH  33  35
ATOM     35  C12 non d ame     -31.492   6.203  22.480  0.00  0.00    -0.071 C 
ATOM     36  H13 non d ame     -31.710   6.938  21.705  0.00  0.00     0.028 H 
ATOM     37  H14 non d ame     -30.645   6.542  23.074  0.00  0.00     0.028 H 
ATOM     38  H15 non d ame     -31.252   5.247  22.016  0.00  0.00     0.028 H 
ENDBRANCH  33  35
BRANCH  33  39
ATOM     39  C13 non d ame     -33.170   4.536  23.504  0.00  0.00    -0.071 C 
ATOM     40  H16 non d ame     -34.237   4.478  23.721  0.00  0.00     0.028 H 
ATOM     41  H17 non d ame     -32.964   4.033  22.559  0.00  0.00     0.028 H 
ATOM     42  H18 non d ame     -32.609   4.050  24.303  0.00  0.00     0.028 H 
ENDBRANCH  33  39
ENDBRANCH   7  33
ENDBRANCH   4   7
ENDBRANCH   1   3
BRANCH   1  43
ATOM     43  C15 non d ame     -31.752  11.492  25.532  0.00  0.00     0.240 C 
ATOM     44  O5  non d ame     -30.684  11.246  25.990  0.00  0.00    -0.271 OA
ATOM     45  N6  non d ame     -31.975  12.784  24.823  0.00  0.00    -0.355 N 
ATOM     46  H46 non d ame     -32.877  13.003  24.425  0.00  0.00     0.162 HD
BRANCH  45  47
ATOM     47  C20 non d ame     -30.865  13.754  24.701  0.00  0.00     0.013 C 
ATOM     48  H30 non d ame     -30.053  13.417  25.346  0.00  0.00     0.072 H 
BRANCH  47  49
ATOM     49  C21 non d ame     -31.343  15.119  25.141  0.00  0.00    -0.038 C 
ATOM     50  H31 non d ame     -30.774  15.354  26.041  0.00  0.00     0.036 H 
ATOM     51  H32 non d ame     -31.261  15.757  24.261  0.00  0.00     0.036 H 
BRANCH  49  52
ATOM     52  C22 non d ame     -32.831  15.129  25.551  0.00  0.00     0.018 C 
ATOM     53  H33 non d ame     -33.377  15.473  24.674  0.00  0.00     0.048 H 
ATOM     54  H34 non d ame     -33.031  14.139  25.964  0.00  0.00     0.048 H 
BRANCH  52  55
ATOM     55  C23 non d ame     -33.162  16.140  26.684  0.00  0.00     0.259 C 
ATOM     56  O7  non d ame     -33.510  17.246  26.423  0.00  0.00    -0.265 OA
BRANCH  55  57
ATOM     57  O8  non d ame     -33.032  15.733  28.041  0.00  0.00    -0.317 OA
BRANCH  57  58
ATOM     58  C29 non d ame     -33.658  14.481  28.336  0.00  0.00     0.052 C 
ATOM     59  H47 non d ame     -34.454  14.709  29.044  0.00  0.00     0.082 H 
ATOM     60  H48 non d ame     -33.898  14.037  27.371  0.00  0.00     0.082 H 
BRANCH  58  61
ATOM     61  C35 non d ame     -32.613  13.579  29.046  0.00  0.00    -0.034 A 
ATOM     62  C30 non d ame     -31.283  13.599  28.636  0.00  0.00    -0.075 A 
ATOM     63  C31 non d ame     -30.345  12.789  29.273  0.00  0.00    -0.082 A 
ATOM     64  H49 non d ame     -30.977  14.249  27.817  0.00  0.00     0.084 H 
ATOM     65  C32 non d ame     -30.740  11.954  30.322  0.00  0.00    -0.083 A 
ATOM     66  H50 non d ame     -29.303  12.808  28.951  0.00  0.00     0.083 H 
ATOM     67  C33 non d ame     -32.069  11.935  30.724  0.00  0.00    -0.082 A 
ATOM     68  H51 non d ame     -30.013  11.318  30.826  0.00  0.00     0.083 H 
ATOM     69  C34 non d ame     -33.010  12.745  30.092  0.00  0.00    -0.075 A 
ATOM     70  H52 non d ame     -32.375  11.281  31.541  0.00  0.00     0.083 H 
ATOM     71  H53 non d ame     -34.051  12.725  30.415  0.00  0.00     0.084 H 
ENDBRANCH  58  61
ENDBRANCH  57  58
ENDBRANCH  55  57
ENDBRANCH  52  55
ENDBRANCH  49  52
ENDBRANCH  47  49
BRANCH  47  72
ATOM     72  C24 non d ame     -30.395  13.822  23.249  0.00  0.00    -0.039 C 
ATOM     73  H35 non d ame     -29.423  13.328  23.235  0.00  0.00     0.036 H 
ATOM     74  H36 non d ame     -31.219  13.420  22.659  0.00  0.00     0.036 H 
BRANCH  72  75
ATOM     75  C25 non d ame     -30.165  15.333  22.771  0.00  0.00    -0.001 C 
ATOM     76  C26 non d ame     -31.266  15.730  21.616  0.00  0.00    -0.035 C 
ATOM     77  C27 non d ame     -30.613  16.249  20.549  0.00  0.00     0.085 C 
ATOM     78  H38 non d ame     -31.730  14.828  21.217  0.00  0.00     0.036 H 
ATOM     79  H39 non d ame     -31.888  16.556  21.961  0.00  0.00     0.036 H 
ATOM     80  N5  non d ame     -29.147  15.941  20.737  0.00  0.00    -0.049 N 
ATOM     81  H40 non d ame     -30.984  15.698  19.685  0.00  0.00     0.075 H 
ATOM     82  H41 non d ame     -30.760  17.326  20.613  0.00  0.00     0.075 H 
ATOM     83  C28 non d ame     -28.981  15.493  22.279  0.00  0.00     0.193 C 
ATOM     84  H42 non d ame     -28.943  15.147  20.148  0.00  0.00     0.280 HD
ATOM     85  H43 non d ame     -28.653  16.812  20.601  0.00  0.00     0.280 HD
ATOM     86  H44 non d ame     -28.553  16.177  23.012  0.00  0.00     0.129 H 
ATOM     87  H37 non d ame     -30.057  16.020  23.611  0.00  0.00     0.046 H 
BRANCH  83  88
ATOM     88  O6  non d ame     -28.197  14.301  22.365  0.00  0.00    -0.369 OA
ATOM     89  H45 non d ame     -27.997  13.986  21.480  0.00  0.00     0.212 HD
ENDBRANCH  83  88
ENDBRANCH  72  75
ENDBRANCH  47  72
ENDBRANCH  45  47
ENDBRANCH   1  43
BRANCH   1  90
ATOM     90  C16 non d ame     -33.597  10.638  27.011  0.00  0.00    -0.035 C 
ATOM     91  H21 non d ame     -33.817   9.629  27.359  0.00  0.00     0.037 H 
ATOM     92  H22 non d ame     -32.936  11.283  27.591  0.00  0.00     0.037 H 
BRANCH  90  93
ATOM     93  C17 non d ame     -34.968  11.381  26.920  0.00  0.00    -0.059 C 
ATOM     94  H23 non d ame     -34.797  12.426  27.177  0.00  0.00     0.038 H 
BRANCH  93  95
ATOM     95  C18 non d ame     -35.567  11.337  25.477  0.00  0.00    -0.073 C 
ATOM     96  H24 non d ame     -34.803  11.631  24.758  0.00  0.00     0.028 H 
ATOM     97  H25 non d ame     -35.905  10.326  25.254  0.00  0.00     0.028 H 
ATOM     98  H26 non d ame     -36.410  12.025  25.413  0.00  0.00     0.028 H 
ENDBRANCH  93  95
BRANCH  93  99
ATOM     99  C19 non d ame     -35.963  10.819  27.939  0.00  0.00    -0.073 C 
ATOM    100  H27 non d ame     -36.137   9.762  27.733  0.00  0.00     0.028 H 
ATOM    101  H28 non d ame     -35.556  10.931  28.944  0.00  0.00     0.028 H 
ATOM    102  H29 non d ame     -36.904  11.364  27.866  0.00  0.00     0.028 H 
ENDBRANCH  93  99
ENDBRANCH  90  93
ENDBRANCH   1  90
TORSDOF 26
ENDMDL
MODEL 2
REMARK VINA RESULT:      -6.7      2.528      5.286
REMARK  26 active torsions:
REMARK  status: ('A' for Active; 'I' for Inactive)
REMARK    1  A    between atoms: C2_2  and  C3_3 
REMARK    2  A    between atoms: C4_6  and  C5_7 
REMARK       I    between atoms: C5_7  and  N2_9 
REMARK    3  A    between atoms: N2_9  and  C6_10 
REMARK    4  A    between atoms: C6_10  and  C7_11 
REMARK    5  A    between atoms: C6_10  and  C8_13 
REMARK       I    between atoms: C7_11  and  N3_14 
REMARK    6  A    between atoms: N3_14  and  C9_15 
REMARK    7  A    between atoms: C9_15  and  C10_16 
REMARK    8  A    between atoms: C9_15  and  C11_18 
REMARK       I    between atoms: C10_16  and  N4_21 
REMARK    9  A    between atoms: C11_18  and  C12_19 
REMARK   10  A    between atoms: C11_18  and  C13_20 
REMARK   11  A    between atoms: N4_21  and  C14_22 
REMARK   12  A    between atoms: C14_22  and  C15_23 
REMARK   13  A    between atoms: C14_22  and  C16_25 
REMARK       I    between atoms: C15_23  and  N6_40 
REMARK   14  A    between atoms: C16_25  and  C17_26 
REMARK   15  A    between atoms: C17_26  and  C18_27 
REMARK   16  A    between atoms: C17_26  and  C19_28 
REMARK   17  A    between atoms: C20_29  and  C21_30 
REMARK   18  A    between atoms: C20_29  and  C24_33 
REMARK   19  A    between atoms: C20_29  and  N6_40 
REMARK   20  A    between atoms: C21_30  and  C22_31 
REMARK   21  A    between atoms: C22_31  and  C23_32 
REMARK   22  A    between atoms: C23_32  and  O8_43 
REMARK   23  A    between atoms: C24_33  and  C25_34 
REMARK   24  A    between atoms: C28_38  and  O6_39 
REMARK   25  A    between atoms: C29_42  and  O8_43 
REMARK   26  A    between atoms: C29_42  and  C35_49 
ROOT
ATOM      1  C14 non d ame     -32.112   8.947  24.279  0.00  0.00     0.089 C 
ATOM      2  H20 non d ame     -31.409   8.114  24.302  0.00  0.00     0.087 H 
ENDROOT
BRANCH   1   3
ATOM      3  N4  non d ame     -33.140   8.680  25.274  0.00  0.00    -0.346 N 
ATOM      4  C10 non d ame     -33.396   7.271  25.745  0.00  0.00     0.241 C 
ATOM      5  O4  non d ame     -32.765   6.367  25.307  0.00  0.00    -0.271 OA
ATOM      6  H19 non d ame     -33.668   9.463  25.633  0.00  0.00     0.163 HD
BRANCH   4   7
ATOM      7  C9  non d ame     -34.460   7.014  26.781  0.00  0.00     0.092 C 
ATOM      8  H11 non d ame     -34.027   6.449  27.607  0.00  0.00     0.088 H 
BRANCH   7   9
ATOM      9  N3  non d ame     -34.929   8.290  27.327  0.00  0.00    -0.346 N 
ATOM     10  C7  non d ame     -35.203   8.413  28.738  0.00  0.00     0.240 C 
ATOM     11  O3  non d ame     -35.052   7.494  29.447  0.00  0.00    -0.271 OA
ATOM     12  H10 non d ame     -35.065   9.091  26.727  0.00  0.00     0.163 HD
BRANCH  10  13
ATOM     13  C6  non d ame     -35.705   9.774  29.313  0.00  0.00     0.086 C 
ATOM     14  H6  non d ame     -36.033   9.698  30.350  0.00  0.00     0.086 H 
BRANCH  13  15
ATOM     15  N2  non d ame     -34.609  10.728  29.293  0.00  0.00    -0.343 N 
ATOM     16  C5  non d ame     -33.660  10.760  30.408  0.00  0.00     0.273 C 
ATOM     17  O2  non d ame     -33.789  10.016  31.318  0.00  0.00    -0.266 OA
ATOM     18  H5  non d ame     -34.507  11.361  28.512  0.00  0.00     0.163 HD
BRANCH  16  19
ATOM     19  C4  non d ame     -32.495  11.762  30.399  0.00  0.00     0.154 A 
ATOM     20  C1  non d ame     -32.508  13.098  29.885  0.00  0.00    -0.017 A 
ATOM     21  C2  non d ame     -31.203  13.588  30.117  0.00  0.00     0.077 A 
ATOM     22  H1  non d ame     -33.336  13.630  29.417  0.00  0.00     0.091 H 
ATOM     23  O1  non d ame     -30.529  12.639  30.696  0.00  0.00    -0.218 OA
ATOM     24  N1  non d ame     -31.261  11.563  30.871  0.00  0.00    -0.123 NA
BRANCH  21  25
ATOM     25  C3  non d ame     -30.684  14.974  29.755  0.00  0.00    -0.029 C 
ATOM     26  H2  non d ame     -30.874  15.660  30.579  0.00  0.00     0.036 H 
ATOM     27  H3  non d ame     -29.612  14.921  29.566  0.00  0.00     0.036 H 
ATOM     28  H4  non d ame     -31.193  15.330  28.860  0.00  0.00     0.036 H 
ENDBRANCH  21  25
ENDBRANCH  16  19
ENDBRANCH  13  15
BRANCH  13  29
ATOM     29  C8  non d ame     -36.850  10.285  28.476  0.00  0.00    -0.049 C 
ATOM     30  H7  non d ame     -36.519  11.146  27.895  0.00  0.00     0.030 H 
ATOM     31  H8  non d ame     -37.185   9.498  27.800  0.00  0.00     0.030 H 
ATOM     32  H9  non d ame     -37.673  10.580  29.127  0.00  0.00     0.030 H 
ENDBRANCH  13  29
ENDBRANCH  10  13
ENDBRANCH   7   9
BRANCH   7  33
ATOM     33  C11 non d ame     -35.655   6.264  26.121  0.00  0.00    -0.033 C 
ATOM     34  H12 non d ame     -35.261   5.694  25.280  0.00  0.00     0.042 H 
BRANCH  33  35
ATOM     35  C12 non d ame     -36.305   5.249  27.112  0.00  0.00    -0.071 C 
ATOM     36  H13 non d ame     -36.340   5.687  28.110  0.00  0.00     0.028 H 
ATOM     37  H14 non d ame     -37.317   5.017  26.782  0.00  0.00     0.028 H 
ATOM     38  H15 non d ame     -35.712   4.335  27.138  0.00  0.00     0.028 H 
ENDBRANCH  33  35
BRANCH  33  39
ATOM     39  C13 non d ame     -36.712   7.274  25.569  0.00  0.00    -0.071 C 
ATOM     40  H16 non d ame     -37.187   7.794  26.401  0.00  0.00     0.028 H 
ATOM     41  H17 non d ame     -36.218   7.998  24.921  0.00  0.00     0.028 H 
ATOM     42  H18 non d ame     -37.467   6.733  24.999  0.00  0.00     0.028 H 
ENDBRANCH  33  39
ENDBRANCH   7  33
ENDBRANCH   4   7
ENDBRANCH   1   3
BRANCH   1  43
ATOM     43  C15 non d ame     -31.430  10.302  24.622  0.00  0.00     0.240 C 
ATOM     44  O5  non d ame     -31.075  10.519  25.735  0.00  0.00    -0.271 OA
ATOM     45  N6  non d ame     -31.210  11.325  23.560  0.00  0.00    -0.355 N 
ATOM     46  H46 non d ame     -31.503  11.149  22.610  0.00  0.00     0.162 HD
BRANCH  45  47
ATOM     47  C20 non d ame     -30.558  12.608  23.903  0.00  0.00     0.013 C 
ATOM     48  H30 non d ame     -29.796  12.406  24.655  0.00  0.00     0.072 H 
BRANCH  47  49
ATOM     49  C21 non d ame     -31.592  13.561  24.458  0.00  0.00    -0.038 C 
ATOM     50  H31 non d ame     -31.531  14.456  23.838  0.00  0.00     0.036 H 
ATOM     51  H32 non d ame     -32.521  12.992  24.505  0.00  0.00     0.036 H 
BRANCH  49  52
ATOM     52  C22 non d ame     -31.280  14.009  25.902  0.00  0.00     0.018 C 
ATOM     53  H33 non d ame     -31.652  13.212  26.545  0.00  0.00     0.048 H 
ATOM     54  H34 non d ame     -30.221  14.266  25.909  0.00  0.00     0.048 H 
BRANCH  52  55
ATOM     55  C23 non d ame     -32.036  15.295  26.336  0.00  0.00     0.259 C 
ATOM     56  O7  non d ame     -32.946  15.233  27.097  0.00  0.00    -0.265 OA
BRANCH  55  57
ATOM     57  O8  non d ame     -31.636  16.552  25.802  0.00  0.00    -0.317 OA
BRANCH  57  58
ATOM     58  C29 non d ame     -32.617  17.166  24.962  0.00  0.00     0.052 C 
ATOM     59  H47 non d ame     -32.063  17.594  24.126  0.00  0.00     0.082 H 
ATOM     60  H48 non d ame     -33.372  16.402  24.781  0.00  0.00     0.082 H 
BRANCH  58  61
ATOM     61  C35 non d ame     -33.273  18.325  25.760  0.00  0.00    -0.034 A 
ATOM     62  C30 non d ame     -32.510  19.083  26.642  0.00  0.00    -0.075 A 
ATOM     63  C31 non d ame     -33.099  20.123  27.359  0.00  0.00    -0.082 A 
ATOM     64  H49 non d ame     -31.450  18.862  26.772  0.00  0.00     0.084 H 
ATOM     65  C32 non d ame     -34.458  20.402  27.194  0.00  0.00    -0.083 A 
ATOM     66  H50 non d ame     -32.498  20.717  28.048  0.00  0.00     0.083 H 
ATOM     67  C33 non d ame     -35.217  19.641  26.315  0.00  0.00    -0.082 A 
ATOM     68  H51 non d ame     -34.927  21.214  27.750  0.00  0.00     0.083 H 
ATOM     69  C34 non d ame     -34.632  18.602  25.595  0.00  0.00    -0.075 A 
ATOM     70  H52 non d ame     -36.278  19.860  26.190  0.00  0.00     0.083 H 
ATOM     71  H53 non d ame     -35.234  18.009  24.906  0.00  0.00     0.084 H 
ENDBRANCH  58  61
ENDBRANCH  57  58
ENDBRANCH  55  57
ENDBRANCH  52  55
ENDBRANCH  49  52
ENDBRANCH  47  49
BRANCH  47  72
ATOM     72  C24 non d ame     -29.924  13.214  22.653  0.00  0.00    -0.039 C 
ATOM     73  H35 non d ame     -28.850  13.073  22.775  0.00  0.00     0.036 H 
ATOM     74  H36 non d ame     -30.442  12.753  21.812  0.00  0.00     0.036 H 
BRANCH  72  75
ATOM     75  C25 non d ame     -30.186  14.792  22.561  0.00  0.00    -0.001 C 
ATOM     76  C26 non d ame     -31.085  15.134  21.227  0.00  0.00    -0.035 C 
ATOM     77  C27 non d ame     -30.466  16.112  20.524  0.00  0.00     0.085 C 
ATOM     78  H38 non d ame     -31.077  14.285  20.544  0.00  0.00     0.036 H 
ATOM     79  H39 non d ame     -32.031  15.590  21.520  0.00  0.00     0.036 H 
ATOM     80  N5  non d ame     -29.068  16.240  21.080  0.00  0.00    -0.049 N 
ATOM     81  H40 non d ame     -30.409  15.743  19.500  0.00  0.00     0.075 H 
ATOM     82  H41 non d ame     -31.020  17.024  20.744  0.00  0.00     0.075 H 
ATOM     83  C28 non d ame     -29.076  15.447  22.486  0.00  0.00     0.193 C 
ATOM     84  H42 non d ame     -28.460  15.751  20.439  0.00  0.00     0.280 HD
ATOM     85  H43 non d ame     -28.923  17.222  21.265  0.00  0.00     0.280 HD
ATOM     86  H44 non d ame     -29.104  15.993  23.429  0.00  0.00     0.129 H 
ATOM     87  H37 non d ame     -30.527  15.210  23.509  0.00  0.00     0.046 H 
BRANCH  83  88
ATOM     88  O6  non d ame     -27.937  14.589  22.575  0.00  0.00    -0.369 OA
ATOM     89  H45 non d ame     -27.853  14.084  21.762  0.00  0.00     0.212 HD
ENDBRANCH  83  88
ENDBRANCH  72  75
ENDBRANCH  47  72
ENDBRANCH  45  47
ENDBRANCH   1  43
BRANCH   1  90
ATOM     90  C16 non d ame     -32.762   9.035  22.907  0.00  0.00    -0.035 C 
ATOM     91  H21 non d ame     -33.741   8.572  23.021  0.00  0.00     0.037 H 
ATOM     92  H22 non d ame     -32.685  10.083  22.618  0.00  0.00     0.037 H 
BRANCH  90  93
ATOM     93  C17 non d ame     -32.014   8.217  21.806  0.00  0.00    -0.059 C 
ATOM     94  H23 non d ame     -31.506   8.927  21.154  0.00  0.00     0.038 H 
BRANCH  93  95
ATOM     95  C18 non d ame     -30.931   7.267  22.411  0.00  0.00    -0.073 C 
ATOM     96  H24 non d ame     -31.415   6.394  22.846  0.00  0.00     0.028 H 
ATOM     97  H25 non d ame     -30.246   6.949  21.625  0.00  0.00     0.028 H 
ATOM     98  H26 non d ame     -30.374   7.797  23.184  0.00  0.00     0.028 H 
ENDBRANCH  93  95
BRANCH  93  99
ATOM     99  C19 non d ame     -33.004   7.432  20.941  0.00  0.00    -0.073 C 
ATOM    100  H27 non d ame     -33.389   8.079  20.152  0.00  0.00     0.028 H 
ATOM    101  H28 non d ame     -32.497   6.576  20.494  0.00  0.00     0.028 H 
ATOM    102  H29 non d ame     -33.829   7.082  21.560  0.00  0.00     0.028 H 
ENDBRANCH  93  99
ENDBRANCH  90  93
ENDBRANCH   1  90
TORSDOF 26
ENDMDL
MODEL 3
REMARK VINA RESULT:      -6.7      2.612      8.093
REMARK  26 active torsions:
REMARK  status: ('A' for Active; 'I' for Inactive)
REMARK    1  A    between atoms: C2_2  and  C3_3 
REMARK    2  A    between atoms: C4_6  and  C5_7 
REMARK       I    between atoms: C5_7  and  N2_9 
REMARK    3  A    between atoms: N2_9  and  C6_10 
REMARK    4  A    between atoms: C6_10  and  C7_11 
REMARK    5  A    between atoms: C6_10  and  C8_13 
REMARK       I    between atoms: C7_11  and  N3_14 
REMARK    6  A    between atoms: N3_14  and  C9_15 
REMARK    7  A    between atoms: C9_15  and  C10_16 
REMARK    8  A    between atoms: C9_15  and  C11_18 
REMARK       I    between atoms: C10_16  and  N4_21 
REMARK    9  A    between atoms: C11_18  and  C12_19 
REMARK   10  A    between atoms: C11_18  and  C13_20 
REMARK   11  A    between atoms: N4_21  and  C14_22 
REMARK   12  A    between atoms: C14_22  and  C15_23 
REMARK   13  A    between atoms: C14_22  and  C16_25 
REMARK       I    between atoms: C15_23  and  N6_40 
REMARK   14  A    between atoms: C16_25  and  C17_26 
REMARK   15  A    between atoms: C17_26  and  C18_27 
REMARK   16  A    between atoms: C17_26  and  C19_28 
REMARK   17  A    between atoms: C20_29  and  C21_30 
REMARK   18  A    between atoms: C20_29  and  C24_33 
REMARK   19  A    between atoms: C20_29  and  N6_40 
REMARK   20  A    between atoms: C21_30  and  C22_31 
REMARK   21  A    between atoms: C22_31  and  C23_32 
REMARK   22  A    between atoms: C23_32  and  O8_43 
REMARK   23  A    between atoms: C24_33  and  C25_34 
REMARK   24  A    between atoms: C28_38  and  O6_39 
REMARK   25  A    between atoms: C29_42  and  O8_43 
REMARK   26  A    between atoms: C29_42  and  C35_49 
ROOT
ATOM      1  C14 non d ame     -33.834   7.076  27.438  0.00  0.00     0.089 C 
ATOM      2  H20 non d ame     -33.441   6.785  28.412  0.00  0.00     0.087 H 
ENDROOT
BRANCH   1   3
ATOM      3  N4  non d ame     -34.119   8.502  27.489  0.00  0.00    -0.346 N 
ATOM      4  C10 non d ame     -34.389   9.178  28.809  0.00  0.00     0.241 C 
ATOM      5  O4  non d ame     -34.375   8.553  29.818  0.00  0.00    -0.271 OA
ATOM      6  H19 non d ame     -34.129   9.016  26.619  0.00  0.00     0.163 HD
BRANCH   4   7
ATOM      7  C9  non d ame     -34.677  10.657  28.844  0.00  0.00     0.092 C 
ATOM      8  H11 non d ame     -35.121  10.913  29.806  0.00  0.00     0.088 H 
BRANCH   7   9
ATOM      9  N3  non d ame     -33.419  11.402  28.735  0.00  0.00    -0.346 N 
ATOM     10  C7  non d ame     -32.696  11.773  29.927  0.00  0.00     0.240 C 
ATOM     11  O3  non d ame     -33.113  11.481  30.981  0.00  0.00    -0.271 OA
ATOM     12  H10 non d ame     -33.049  11.662  27.833  0.00  0.00     0.163 HD
BRANCH  10  13
ATOM     13  C6  non d ame     -31.360  12.569  29.804  0.00  0.00     0.086 C 
ATOM     14  H6  non d ame     -30.794  12.308  28.910  0.00  0.00     0.086 H 
BRANCH  13  15
ATOM     15  N2  non d ame     -31.663  13.987  29.705  0.00  0.00    -0.343 N 
ATOM     16  C5  non d ame     -31.913  14.581  28.390  0.00  0.00     0.273 C 
ATOM     17  O2  non d ame     -31.865  13.911  27.418  0.00  0.00    -0.266 OA
ATOM     18  H5  non d ame     -31.700  14.553  30.541  0.00  0.00     0.163 HD
BRANCH  16  19
ATOM     19  C4  non d ame     -32.236  16.079  28.271  0.00  0.00     0.154 A 
ATOM     20  C1  non d ame     -32.641  16.785  27.094  0.00  0.00    -0.017 A 
ATOM     21  C2  non d ame     -32.813  18.123  27.513  0.00  0.00     0.077 A 
ATOM     22  H1  non d ame     -32.789  16.387  26.089  0.00  0.00     0.091 H 
ATOM     23  O1  non d ame     -32.537  18.169  28.784  0.00  0.00    -0.218 OA
ATOM     24  N1  non d ame     -32.198  16.988  29.249  0.00  0.00    -0.123 NA
BRANCH  21  25
ATOM     25  C3  non d ame     -33.241  19.294  26.639  0.00  0.00    -0.029 C 
ATOM     26  H2  non d ame     -32.768  20.208  26.998  0.00  0.00     0.036 H 
ATOM     27  H3  non d ame     -32.938  19.108  25.609  0.00  0.00     0.036 H 
ATOM     28  H4  non d ame     -34.325  19.404  26.684  0.00  0.00     0.036 H 
ENDBRANCH  21  25
ENDBRANCH  16  19
ENDBRANCH  13  15
BRANCH  13  29
ATOM     29  C8  non d ame     -30.503  12.308  31.017  0.00  0.00    -0.049 C 
ATOM     30  H7  non d ame     -29.548  12.822  30.905  0.00  0.00     0.030 H 
ATOM     31  H8  non d ame     -31.012  12.677  31.907  0.00  0.00     0.030 H 
ATOM     32  H9  non d ame     -30.329  11.236  31.115  0.00  0.00     0.030 H 
ENDBRANCH  13  29
ENDBRANCH  10  13
ENDBRANCH   7   9
BRANCH   7  33
ATOM     33  C11 non d ame     -35.605  11.033  27.652  0.00  0.00    -0.033 C 
ATOM     34  H12 non d ame     -35.384  10.346  26.835  0.00  0.00     0.042 H 
BRANCH  33  35
ATOM     35  C12 non d ame     -37.109  10.851  28.023  0.00  0.00    -0.071 C 
ATOM     36  H13 non d ame     -37.350  11.480  28.881  0.00  0.00     0.028 H 
ATOM     37  H14 non d ame     -37.730  11.139  27.175  0.00  0.00     0.028 H 
ATOM     38  H15 non d ame     -37.298   9.808  28.275  0.00  0.00     0.028 H 
ENDBRANCH  33  35
BRANCH  33  39
ATOM     39  C13 non d ame     -35.315  12.485  27.154  0.00  0.00    -0.071 C 
ATOM     40  H16 non d ame     -36.034  13.172  27.601  0.00  0.00     0.028 H 
ATOM     41  H17 non d ame     -34.305  12.775  27.446  0.00  0.00     0.028 H 
ATOM     42  H18 non d ame     -35.403  12.522  26.069  0.00  0.00     0.028 H 
ENDBRANCH  33  39
ENDBRANCH   7  33
ENDBRANCH   4   7
ENDBRANCH   1   3
BRANCH   1  43
ATOM     43  C15 non d ame     -32.816   6.815  26.291  0.00  0.00     0.240 C 
ATOM     44  O5  non d ame     -31.872   6.120  26.486  0.00  0.00    -0.271 OA
ATOM     45  N6  non d ame     -33.023   7.425  24.947  0.00  0.00    -0.355 N 
ATOM     46  H46 non d ame     -33.823   8.014  24.768  0.00  0.00     0.162 HD
BRANCH  45  47
ATOM     47  C20 non d ame     -32.046   7.166  23.867  0.00  0.00     0.013 C 
ATOM     48  H30 non d ame     -31.264   6.523  24.269  0.00  0.00     0.072 H 
BRANCH  47  49
ATOM     49  C21 non d ame     -31.450   8.478  23.407  0.00  0.00    -0.038 C 
ATOM     50  H31 non d ame     -30.502   8.572  23.936  0.00  0.00     0.036 H 
ATOM     51  H32 non d ame     -31.466   8.442  22.317  0.00  0.00     0.036 H 
BRANCH  49  52
ATOM     52  C22 non d ame     -32.302   9.699  23.816  0.00  0.00     0.018 C 
ATOM     53  H33 non d ame     -32.240  10.395  22.980  0.00  0.00     0.048 H 
ATOM     54  H34 non d ame     -33.269   9.297  24.120  0.00  0.00     0.048 H 
BRANCH  52  55
ATOM     55  C23 non d ame     -31.749  10.463  25.051  0.00  0.00     0.259 C 
ATOM     56  O7  non d ame     -32.039  10.122  26.151  0.00  0.00    -0.265 OA
BRANCH  55  57
ATOM     57  O8  non d ame     -30.899  11.586  24.851  0.00  0.00    -0.317 OA
BRANCH  57  58
ATOM     58  C29 non d ame     -30.375  11.692  23.524  0.00  0.00     0.052 C 
ATOM     59  H47 non d ame     -29.344  11.345  23.586  0.00  0.00     0.082 H 
ATOM     60  H48 non d ame     -31.087  11.173  22.884  0.00  0.00     0.082 H 
BRANCH  58  61
ATOM     61  C35 non d ame     -30.365  13.194  23.132  0.00  0.00    -0.034 A 
ATOM     62  C30 non d ame     -31.082  14.116  23.887  0.00  0.00    -0.075 A 
ATOM     63  C31 non d ame     -31.074  15.464  23.535  0.00  0.00    -0.082 A 
ATOM     64  H49 non d ame     -31.651  13.782  24.755  0.00  0.00     0.084 H 
ATOM     65  C32 non d ame     -30.346  15.890  22.420  0.00  0.00    -0.083 A 
ATOM     66  H50 non d ame     -31.636  16.185  24.130  0.00  0.00     0.083 H 
ATOM     67  C33 non d ame     -29.635  14.965  21.667  0.00  0.00    -0.082 A 
ATOM     68  H51 non d ame     -30.334  16.942  22.137  0.00  0.00     0.083 H 
ATOM     69  C34 non d ame     -29.639  13.617  22.017  0.00  0.00    -0.075 A 
ATOM     70  H52 non d ame     -29.070  15.300  20.796  0.00  0.00     0.083 H 
ATOM     71  H53 non d ame     -29.077  12.897  21.421  0.00  0.00     0.084 H 
ENDBRANCH  58  61
ENDBRANCH  57  58
ENDBRANCH  55  57
ENDBRANCH  52  55
ENDBRANCH  49  52
ENDBRANCH  47  49
BRANCH  47  72
ATOM     72  C24 non d ame     -32.744   6.483  22.693  0.00  0.00    -0.039 C 
ATOM     73  H35 non d ame     -32.084   5.667  22.397  0.00  0.00     0.036 H 
ATOM     74  H36 non d ame     -33.754   6.268  23.041  0.00  0.00     0.036 H 
BRANCH  72  75
ATOM     75  C25 non d ame     -32.878   7.463  21.432  0.00  0.00    -0.001 C 
ATOM     76  C26 non d ame     -34.435   7.968  21.278  0.00  0.00    -0.035 C 
ATOM     77  C27 non d ame     -34.841   7.748  20.004  0.00  0.00     0.085 C 
ATOM     78  H38 non d ame     -35.094   7.332  21.868  0.00  0.00     0.036 H 
ATOM     79  H39 non d ame     -34.488   9.052  21.379  0.00  0.00     0.036 H 
ATOM     80  N5  non d ame     -33.817   6.843  19.364  0.00  0.00    -0.049 N 
ATOM     81  H40 non d ame     -35.787   7.213  20.088  0.00  0.00     0.075 H 
ATOM     82  H41 non d ame     -34.808   8.722  19.517  0.00  0.00     0.075 H 
ATOM     83  C28 non d ame     -32.531   6.868  20.339  0.00  0.00     0.193 C 
ATOM     84  H42 non d ame     -34.211   5.913  19.375  0.00  0.00     0.280 HD
ATOM     85  H43 non d ame     -33.564   7.274  18.486  0.00  0.00     0.280 HD
ATOM     86  H44 non d ame     -31.645   7.445  20.073  0.00  0.00     0.129 H 
ATOM     87  H37 non d ame     -32.104   8.230  21.421  0.00  0.00     0.046 H 
BRANCH  83  88
ATOM     88  O6  non d ame     -32.064   5.538  20.574  0.00  0.00    -0.369 OA
ATOM     89  H45 non d ame     -32.392   4.957  19.884  0.00  0.00     0.212 HD
ENDBRANCH  83  88
ENDBRANCH  72  75
ENDBRANCH  47  72
ENDBRANCH  45  47
ENDBRANCH   1  43
BRANCH   1  90
ATOM     90  C16 non d ame     -35.125   6.322  27.157  0.00  0.00    -0.035 C 
ATOM     91  H21 non d ame     -35.917   7.065  27.243  0.00  0.00     0.037 H 
ATOM     92  H22 non d ame     -34.958   5.808  26.210  0.00  0.00     0.037 H 
BRANCH  90  93
ATOM     93  C17 non d ame     -35.444   5.214  28.211  0.00  0.00    -0.059 C 
ATOM     94  H23 non d ame     -35.989   4.420  27.700  0.00  0.00     0.038 H 
BRANCH  93  95
ATOM     95  C18 non d ame     -34.149   4.588  28.819  0.00  0.00    -0.073 C 
ATOM     96  H24 non d ame     -33.437   4.379  28.021  0.00  0.00     0.028 H 
ATOM     97  H25 non d ame     -33.705   5.287  29.528  0.00  0.00     0.028 H 
ATOM     98  H26 non d ame     -34.401   3.660  29.333  0.00  0.00     0.028 H 
ENDBRANCH  93  95
BRANCH  93  99
ATOM     99  C19 non d ame     -36.357   5.756  29.314  0.00  0.00    -0.073 C 
ATOM    100  H27 non d ame     -35.802   6.463  29.931  0.00  0.00     0.028 H 
ATOM    101  H28 non d ame     -37.212   6.260  28.864  0.00  0.00     0.028 H 
ATOM    102  H29 non d ame     -36.708   4.930  29.933  0.00  0.00     0.028 H 
ENDBRANCH  93  99
ENDBRANCH  90  93
ENDBRANCH   1  90
TORSDOF 26
ENDMDL
MODEL 4
REMARK VINA RESULT:      -6.7      1.942      3.533
REMARK  26 active torsions:
REMARK  status: ('A' for Active; 'I' for Inactive)
REMARK    1  A    between atoms: C2_2  and  C3_3 
REMARK    2  A    between atoms: C4_6  and  C5_7 
REMARK       I    between atoms: C5_7  and  N2_9 
REMARK    3  A    between atoms: N2_9  and  C6_10 
REMARK    4  A    between atoms: C6_10  and  C7_11 
REMARK    5  A    between atoms: C6_10  and  C8_13 
REMARK       I    between atoms: C7_11  and  N3_14 
REMARK    6  A    between atoms: N3_14  and  C9_15 
REMARK    7  A    between atoms: C9_15  and  C10_16 
REMARK    8  A    between atoms: C9_15  and  C11_18 
REMARK       I    between atoms: C10_16  and  N4_21 
REMARK    9  A    between atoms: C11_18  and  C12_19 
REMARK   10  A    between atoms: C11_18  and  C13_20 
REMARK   11  A    between atoms: N4_21  and  C14_22 
REMARK   12  A    between atoms: C14_22  and  C15_23 
REMARK   13  A    between atoms: C14_22  and  C16_25 
REMARK       I    between atoms: C15_23  and  N6_40 
REMARK   14  A    between atoms: C16_25  and  C17_26 
REMARK   15  A    between atoms: C17_26  and  C18_27 
REMARK   16  A    between atoms: C17_26  and  C19_28 
REMARK   17  A    between atoms: C20_29  and  C21_30 
REMARK   18  A    between atoms: C20_29  and  C24_33 
REMARK   19  A    between atoms: C20_29  and  N6_40 
REMARK   20  A    between atoms: C21_30  and  C22_31 
REMARK   21  A    between atoms: C22_31  and  C23_32 
REMARK   22  A    between atoms: C23_32  and  O8_43 
REMARK   23  A    between atoms: C24_33  and  C25_34 
REMARK   24  A    between atoms: C28_38  and  O6_39 
REMARK   25  A    between atoms: C29_42  and  O8_43 
REMARK   26  A    between atoms: C29_42  and  C35_49 
ROOT
ATOM      1  C14 non d ame     -33.233   9.781  26.617  0.00  0.00     0.089 C 
ATOM      2  H20 non d ame     -34.260  10.117  26.468  0.00  0.00     0.087 H 
ENDROOT
BRANCH   1   3
ATOM      3  N4  non d ame     -33.004   8.659  25.720  0.00  0.00    -0.346 N 
ATOM      4  C10 non d ame     -33.584   8.666  24.328  0.00  0.00     0.241 C 
ATOM      5  O4  non d ame     -34.234   9.586  23.953  0.00  0.00    -0.271 OA
ATOM      6  H19 non d ame     -32.450   7.885  26.058  0.00  0.00     0.163 HD
BRANCH   4   7
ATOM      7  C9  non d ame     -33.332   7.499  23.410  0.00  0.00     0.092 C 
ATOM      8  H11 non d ame     -32.261   7.408  23.231  0.00  0.00     0.088 H 
BRANCH   7   9
ATOM      9  N3  non d ame     -33.769   6.261  24.062  0.00  0.00    -0.346 N 
ATOM     10  C7  non d ame     -32.840   5.502  24.863  0.00  0.00     0.240 C 
ATOM     11  O3  non d ame     -31.737   5.872  24.991  0.00  0.00    -0.271 OA
ATOM     12  H10 non d ame     -34.717   5.928  23.959  0.00  0.00     0.163 HD
BRANCH  10  13
ATOM     13  C6  non d ame     -33.310   4.183  25.552  0.00  0.00     0.086 C 
ATOM     14  H6  non d ame     -32.482   3.600  25.954  0.00  0.00     0.086 H 
BRANCH  13  15
ATOM     15  N2  non d ame     -34.167   4.519  26.677  0.00  0.00    -0.343 N 
ATOM     16  C5  non d ame     -33.567   4.785  27.986  0.00  0.00     0.273 C 
ATOM     17  O2  non d ame     -32.395   4.724  28.125  0.00  0.00    -0.266 OA
ATOM     18  H5  non d ame     -35.168   4.566  26.550  0.00  0.00     0.163 HD
BRANCH  16  19
ATOM     19  C4  non d ame     -34.461   5.142  29.184  0.00  0.00     0.154 A 
ATOM     20  C1  non d ame     -35.791   5.669  29.144  0.00  0.00    -0.017 A 
ATOM     21  C2  non d ame     -36.163   5.820  30.498  0.00  0.00     0.077 A 
ATOM     22  H1  non d ame     -36.393   5.905  28.266  0.00  0.00     0.091 H 
ATOM     23  O1  non d ame     -35.158   5.423  31.223  0.00  0.00    -0.218 OA
ATOM     24  N1  non d ame     -34.153   5.023  30.478  0.00  0.00    -0.123 NA
BRANCH  21  25
ATOM     25  C3  non d ame     -37.495   6.349  31.013  0.00  0.00    -0.029 C 
ATOM     26  H2  non d ame     -37.315   7.101  31.781  0.00  0.00     0.036 H 
ATOM     27  H3  non d ame     -38.051   6.796  30.190  0.00  0.00     0.036 H 
ATOM     28  H4  non d ame     -38.073   5.528  31.437  0.00  0.00     0.036 H 
ENDBRANCH  21  25
ENDBRANCH  16  19
ENDBRANCH  13  15
BRANCH  13  29
ATOM     29  C8  non d ame     -34.067   3.337  24.560  0.00  0.00    -0.049 C 
ATOM     30  H7  non d ame     -34.754   3.967  23.995  0.00  0.00     0.030 H 
ATOM     31  H8  non d ame     -33.364   2.863  23.876  0.00  0.00     0.030 H 
ATOM     32  H9  non d ame     -34.630   2.570  25.092  0.00  0.00     0.030 H 
ENDBRANCH  13  29
ENDBRANCH  10  13
ENDBRANCH   7   9
BRANCH   7  33
ATOM     33  C11 non d ame     -34.132   7.696  22.089  0.00  0.00    -0.033 C 
ATOM     34  H12 non d ame     -34.535   8.709  22.096  0.00  0.00     0.042 H 
BRANCH  33  35
ATOM     35  C12 non d ame     -33.206   7.569  20.839  0.00  0.00    -0.071 C 
ATOM     36  H13 non d ame     -32.406   6.860  21.050  0.00  0.00     0.028 H 
ATOM     37  H14 non d ame     -33.789   7.217  19.989  0.00  0.00     0.028 H 
ATOM     38  H15 non d ame     -32.774   8.543  20.606  0.00  0.00     0.028 H 
ENDBRANCH  33  35
BRANCH  33  39
ATOM     39  C13 non d ame     -35.332   6.699  22.007  0.00  0.00    -0.071 C 
ATOM     40  H16 non d ame     -36.097   6.992  22.727  0.00  0.00     0.028 H 
ATOM     41  H17 non d ame     -35.753   6.718  21.002  0.00  0.00     0.028 H 
ATOM     42  H18 non d ame     -34.984   5.692  22.236  0.00  0.00     0.028 H 
ENDBRANCH  33  39
ENDBRANCH   7  33
ENDBRANCH   4   7
ENDBRANCH   1   3
BRANCH   1  43
ATOM     43  C15 non d ame     -32.197  10.895  26.293  0.00  0.00     0.240 C 
ATOM     44  O5  non d ame     -31.083  10.599  26.001  0.00  0.00    -0.271 OA
ATOM     45  N6  non d ame     -32.596  12.331  26.337  0.00  0.00    -0.355 N 
ATOM     46  H46 non d ame     -33.540  12.594  26.579  0.00  0.00     0.162 HD
BRANCH  45  47
ATOM     47  C20 non d ame     -31.599  13.378  26.024  0.00  0.00     0.013 C 
ATOM     48  H30 non d ame     -30.862  12.947  25.347  0.00  0.00     0.072 H 
BRANCH  47  49
ATOM     49  C21 non d ame     -30.927  13.825  27.302  0.00  0.00    -0.038 C 
ATOM     50  H31 non d ame     -30.211  13.041  27.550  0.00  0.00     0.036 H 
ATOM     51  H32 non d ame     -30.579  14.841  27.112  0.00  0.00     0.036 H 
BRANCH  49  52
ATOM     52  C22 non d ame     -31.905  13.915  28.494  0.00  0.00     0.018 C 
ATOM     53  H33 non d ame     -32.885  14.104  28.058  0.00  0.00     0.048 H 
ATOM     54  H34 non d ame     -31.735  13.015  29.084  0.00  0.00     0.048 H 
BRANCH  52  55
ATOM     55  C23 non d ame     -31.623  15.111  29.446  0.00  0.00     0.259 C 
ATOM     56  O7  non d ame     -30.676  15.100  30.164  0.00  0.00    -0.265 OA
BRANCH  55  57
ATOM     57  O8  non d ame     -32.518  16.216  29.461  0.00  0.00    -0.317 OA
BRANCH  57  58
ATOM     58  C29 non d ame     -33.526  16.162  28.447  0.00  0.00     0.052 C 
ATOM     59  H47 non d ame     -33.265  15.313  27.816  0.00  0.00     0.082 H 
ATOM     60  H48 non d ame     -34.478  16.174  28.977  0.00  0.00     0.082 H 
BRANCH  58  61
ATOM     61  C35 non d ame     -33.421  17.456  27.597  0.00  0.00    -0.034 A 
ATOM     62  C30 non d ame     -34.163  17.584  26.427  0.00  0.00    -0.075 A 
ATOM     63  C31 non d ame     -34.068  18.746  25.664  0.00  0.00    -0.082 A 
ATOM     64  H49 non d ame     -34.818  16.773  26.109  0.00  0.00     0.084 H 
ATOM     65  C32 non d ame     -33.225  19.783  26.073  0.00  0.00    -0.083 A 
ATOM     66  H50 non d ame     -34.652  18.844  24.748  0.00  0.00     0.083 H 
ATOM     67  C33 non d ame     -32.484  19.650  27.239  0.00  0.00    -0.082 A 
ATOM     68  H51 non d ame     -33.146  20.696  25.482  0.00  0.00     0.083 H 
ATOM     69  C34 non d ame     -32.577  18.491  28.007  0.00  0.00    -0.075 A 
ATOM     70  H52 non d ame     -31.826  20.460  27.555  0.00  0.00     0.083 H 
ATOM     71  H53 non d ame     -31.993  18.394  28.922  0.00  0.00     0.084 H 
ENDBRANCH  58  61
ENDBRANCH  57  58
ENDBRANCH  55  57
ENDBRANCH  52  55
ENDBRANCH  49  52
ENDBRANCH  47  49
BRANCH  47  72
ATOM     72  C24 non d ame     -32.291  14.570  25.367  0.00  0.00    -0.039 C 
ATOM     73  H35 non d ame     -33.340  14.285  25.281  0.00  0.00     0.036 H 
ATOM     74  H36 non d ame     -32.009  15.435  25.967  0.00  0.00     0.036 H 
BRANCH  72  75
ATOM     75  C25 non d ame     -31.748  14.826  23.882  0.00  0.00    -0.001 C 
ATOM     76  C26 non d ame     -30.730  13.612  23.441  0.00  0.00    -0.035 C 
ATOM     77  C27 non d ame     -29.576  14.155  22.984  0.00  0.00     0.085 C 
ATOM     78  H38 non d ame     -30.415  13.050  24.320  0.00  0.00     0.036 H 
ATOM     79  H39 non d ame     -31.127  13.088  22.572  0.00  0.00     0.036 H 
ATOM     80  N5  non d ame     -29.588  15.613  23.377  0.00  0.00    -0.049 N 
ATOM     81  H40 non d ame     -28.780  13.647  23.527  0.00  0.00     0.075 H 
ATOM     82  H41 non d ame     -29.629  14.080  21.898  0.00  0.00     0.075 H 
ATOM     83  C28 non d ame     -31.109  15.945  23.805  0.00  0.00     0.193 C 
ATOM     84  H42 non d ame     -28.999  15.694  24.193  0.00  0.00     0.280 HD
ATOM     85  H43 non d ame     -29.367  16.136  22.541  0.00  0.00     0.280 HD
ATOM     86  H44 non d ame     -31.764  16.502  23.134  0.00  0.00     0.129 H 
ATOM     87  H37 non d ame     -32.549  15.078  23.187  0.00  0.00     0.046 H 
BRANCH  83  88
ATOM     88  O6  non d ame     -31.127  16.663  25.040  0.00  0.00    -0.369 OA
ATOM     89  H45 non d ame     -31.514  17.531  24.900  0.00  0.00     0.212 HD
ENDBRANCH  83  88
ENDBRANCH  72  75
ENDBRANCH  47  72
ENDBRANCH  45  47
ENDBRANCH   1  43
BRANCH   1  90
ATOM     90  C16 non d ame     -33.049   9.314  28.052  0.00  0.00    -0.035 C 
ATOM     91  H21 non d ame     -33.341   8.264  28.054  0.00  0.00     0.037 H 
ATOM     92  H22 non d ame     -32.030   9.597  28.319  0.00  0.00     0.037 H 
BRANCH  90  93
ATOM     93  C17 non d ame     -33.988  10.034  29.071  0.00  0.00    -0.059 C 
ATOM     94  H23 non d ame     -33.460  10.911  29.446  0.00  0.00     0.038 H 
BRANCH  93  95
ATOM     95  C18 non d ame     -35.314  10.524  28.406  0.00  0.00    -0.073 C 
ATOM     96  H24 non d ame     -36.131   9.862  28.693  0.00  0.00     0.028 H 
ATOM     97  H25 non d ame     -35.535  11.538  28.739  0.00  0.00     0.028 H 
ATOM     98  H26 non d ame     -35.202  10.514  27.322  0.00  0.00     0.028 H 
ENDBRANCH  93  95
BRANCH  93  99
ATOM     99  C19 non d ame     -34.283   9.133  30.274  0.00  0.00    -0.073 C 
ATOM    100  H27 non d ame     -34.881   8.280  29.951  0.00  0.00     0.028 H 
ATOM    101  H28 non d ame     -33.345   8.779  30.701  0.00  0.00     0.028 H 
ATOM    102  H29 non d ame     -34.833   9.699  31.025  0.00  0.00     0.028 H 
ENDBRANCH  93  99
ENDBRANCH  90  93
ENDBRANCH   1  90
TORSDOF 26
ENDMDL
MODEL 5
REMARK VINA RESULT:      -6.6      2.226      4.995
REMARK  26 active torsions:
REMARK  status: ('A' for Active; 'I' for Inactive)
REMARK    1  A    between atoms: C2_2  and  C3_3 
REMARK    2  A    between atoms: C4_6  and  C5_7 
REMARK       I    between atoms: C5_7  and  N2_9 
REMARK    3  A    between atoms: N2_9  and  C6_10 
REMARK    4  A    between atoms: C6_10  and  C7_11 
REMARK    5  A    between atoms: C6_10  and  C8_13 
REMARK       I    between atoms: C7_11  and  N3_14 
REMARK    6  A    between atoms: N3_14  and  C9_15 
REMARK    7  A    between atoms: C9_15  and  C10_16 
REMARK    8  A    between atoms: C9_15  and  C11_18 
REMARK       I    between atoms: C10_16  and  N4_21 
REMARK    9  A    between atoms: C11_18  and  C12_19 
REMARK   10  A    between atoms: C11_18  and  C13_20 
REMARK   11  A    between atoms: N4_21  and  C14_22 
REMARK   12  A    between atoms: C14_22  and  C15_23 
REMARK   13  A    between atoms: C14_22  and  C16_25 
REMARK       I    between atoms: C15_23  and  N6_40 
REMARK   14  A    between atoms: C16_25  and  C17_26 
REMARK   15  A    between atoms: C17_26  and  C18_27 
REMARK   16  A    between atoms: C17_26  and  C19_28 
REMARK   17  A    between atoms: C20_29  and  C21_30 
REMARK   18  A    between atoms: C20_29  and  C24_33 
REMARK   19  A    between atoms: C20_29  and  N6_40 
REMARK   20  A    between atoms: C21_30  and  C22_31 
REMARK   21  A    between atoms: C22_31  and  C23_32 
REMARK   22  A    between atoms: C23_32  and  O8_43 
REMARK   23  A    between atoms: C24_33  and  C25_34 
REMARK   24  A    between atoms: C28_38  and  O6_39 
REMARK   25  A    between atoms: C29_42  and  O8_43 
REMARK   26  A    between atoms: C29_42  and  C35_49 
ROOT
ATOM      1  C14 non d ame     -32.310   8.597  24.610  0.00  0.00     0.089 C 
ATOM      2  H20 non d ame     -31.337   8.108  24.675  0.00  0.00     0.087 H 
ENDROOT
BRANCH   1   3
ATOM      3  N4  non d ame     -33.328   7.562  24.719  0.00  0.00    -0.346 N 
ATOM      4  C10 non d ame     -32.945   6.155  25.102  0.00  0.00     0.241 C 
ATOM      5  O4  non d ame     -31.811   5.878  25.314  0.00  0.00    -0.271 OA
ATOM      6  H19 non d ame     -34.287   7.818  24.532  0.00  0.00     0.163 HD
BRANCH   4   7
ATOM      7  C9  non d ame     -34.012   5.098  25.216  0.00  0.00     0.092 C 
ATOM      8  H11 non d ame     -33.551   4.151  25.494  0.00  0.00     0.088 H 
BRANCH   7   9
ATOM      9  N3  non d ame     -34.943   5.457  26.290  0.00  0.00    -0.346 N 
ATOM     10  C7  non d ame     -34.946   4.707  27.522  0.00  0.00     0.240 C 
ATOM     11  O3  non d ame     -34.207   3.810  27.665  0.00  0.00    -0.271 OA
ATOM     12  H10 non d ame     -35.588   6.227  26.181  0.00  0.00     0.163 HD
BRANCH  10  13
ATOM     13  C6  non d ame     -35.941   5.092  28.661  0.00  0.00     0.086 C 
ATOM     14  H6  non d ame     -35.914   4.395  29.498  0.00  0.00     0.086 H 
BRANCH  13  15
ATOM     15  N2  non d ame     -35.571   6.394  29.190  0.00  0.00    -0.343 N 
ATOM     16  C5  non d ame     -35.656   6.637  30.631  0.00  0.00     0.273 C 
ATOM     17  O2  non d ame     -36.026   5.780  31.356  0.00  0.00    -0.266 OA
ATOM     18  H5  non d ame     -35.259   7.122  28.563  0.00  0.00     0.163 HD
BRANCH  16  19
ATOM     19  C4  non d ame     -35.266   8.009  31.205  0.00  0.00     0.154 A 
ATOM     20  C1  non d ame     -36.123   8.944  31.867  0.00  0.00    -0.017 A 
ATOM     21  C2  non d ame     -35.287  10.034  32.196  0.00  0.00     0.077 A 
ATOM     22  H1  non d ame     -37.189   8.847  32.076  0.00  0.00     0.091 H 
ATOM     23  O1  non d ame     -34.091   9.747  31.770  0.00  0.00    -0.218 OA
ATOM     24  N1  non d ame     -34.055   8.570  31.188  0.00  0.00    -0.123 NA
BRANCH  21  25
ATOM     25  C3  non d ame     -35.707  11.308  32.917  0.00  0.00    -0.029 C 
ATOM     26  H2  non d ame     -36.471  11.071  33.658  0.00  0.00     0.036 H 
ATOM     27  H3  non d ame     -34.842  11.745  33.416  0.00  0.00     0.036 H 
ATOM     28  H4  non d ame     -36.108  12.019  32.195  0.00  0.00     0.036 H 
ENDBRANCH  21  25
ENDBRANCH  16  19
ENDBRANCH  13  15
BRANCH  13  29
ATOM     29  C8  non d ame     -37.345   5.138  28.111  0.00  0.00    -0.049 C 
ATOM     30  H7  non d ame     -37.539   6.125  27.693  0.00  0.00     0.030 H 
ATOM     31  H8  non d ame     -37.453   4.385  27.330  0.00  0.00     0.030 H 
ATOM     32  H9  non d ame     -38.056   4.936  28.912  0.00  0.00     0.030 H 
ENDBRANCH  13  29
ENDBRANCH  10  13
ENDBRANCH   7   9
BRANCH   7  33
ATOM     33  C11 non d ame     -34.790   4.999  23.871  0.00  0.00    -0.033 C 
ATOM     34  H12 non d ame     -35.135   6.001  23.616  0.00  0.00     0.042 H 
BRANCH  33  35
ATOM     35  C12 non d ame     -33.864   4.513  22.714  0.00  0.00    -0.071 C 
ATOM     36  H13 non d ame     -32.870   4.944  22.838  0.00  0.00     0.028 H 
ATOM     37  H14 non d ame     -33.793   3.426  22.737  0.00  0.00     0.028 H 
ATOM     38  H15 non d ame     -34.280   4.830  21.758  0.00  0.00     0.028 H 
ENDBRANCH  33  35
BRANCH  33  39
ATOM     39  C13 non d ame     -36.045   4.079  24.017  0.00  0.00    -0.071 C 
ATOM     40  H16 non d ame     -35.724   3.050  24.175  0.00  0.00     0.028 H 
ATOM     41  H17 non d ame     -36.641   4.410  24.869  0.00  0.00     0.028 H 
ATOM     42  H18 non d ame     -36.646   4.139  23.110  0.00  0.00     0.028 H 
ENDBRANCH  33  39
ENDBRANCH   7  33
ENDBRANCH   4   7
ENDBRANCH   1   3
BRANCH   1  43
ATOM     43  C15 non d ame     -32.526   9.628  25.754  0.00  0.00     0.240 C 
ATOM     44  O5  non d ame     -32.505   9.268  26.887  0.00  0.00    -0.271 OA
ATOM     45  N6  non d ame     -32.752  11.067  25.438  0.00  0.00    -0.355 N 
ATOM     46  H46 non d ame     -32.767  11.386  24.480  0.00  0.00     0.162 HD
BRANCH  45  47
ATOM     47  C20 non d ame     -32.955  12.036  26.538  0.00  0.00     0.013 C 
ATOM     48  H30 non d ame     -33.401  11.502  27.377  0.00  0.00     0.072 H 
BRANCH  47  49
ATOM     49  C21 non d ame     -33.883  13.134  26.071  0.00  0.00    -0.038 C 
ATOM     50  H31 non d ame     -33.669  13.270  25.011  0.00  0.00     0.036 H 
ATOM     51  H32 non d ame     -34.881  12.832  26.392  0.00  0.00     0.036 H 
BRANCH  49  52
ATOM     52  C22 non d ame     -33.598  14.490  26.752  0.00  0.00     0.018 C 
ATOM     53  H33 non d ame     -34.459  14.687  27.389  0.00  0.00     0.048 H 
ATOM     54  H34 non d ame     -32.604  14.396  27.191  0.00  0.00     0.048 H 
BRANCH  52  55
ATOM     55  C23 non d ame     -33.517  15.684  25.761  0.00  0.00     0.259 C 
ATOM     56  O7  non d ame     -34.104  16.693  25.983  0.00  0.00    -0.265 OA
BRANCH  55  57
ATOM     57  O8  non d ame     -32.742  15.554  24.575  0.00  0.00    -0.317 OA
BRANCH  57  58
ATOM     58  C29 non d ame     -31.341  15.767  24.769  0.00  0.00     0.052 C 
ATOM     59  H47 non d ame     -31.164  16.812  24.516  0.00  0.00     0.082 H 
ATOM     60  H48 non d ame     -31.123  15.405  25.774  0.00  0.00     0.082 H 
BRANCH  58  61
ATOM     61  C35 non d ame     -30.576  14.879  23.752  0.00  0.00    -0.034 A 
ATOM     62  C30 non d ame     -30.872  13.523  23.649  0.00  0.00    -0.075 A 
ATOM     63  C31 non d ame     -30.184  12.726  22.736  0.00  0.00    -0.082 A 
ATOM     64  H49 non d ame     -31.641  13.086  24.285  0.00  0.00     0.084 H 
ATOM     65  C32 non d ame     -29.196  13.288  21.924  0.00  0.00    -0.083 A 
ATOM     66  H50 non d ame     -30.420  11.664  22.657  0.00  0.00     0.083 H 
ATOM     67  C33 non d ame     -28.902  14.641  22.031  0.00  0.00    -0.082 A 
ATOM     68  H51 non d ame     -28.654  12.672  21.206  0.00  0.00     0.083 H 
ATOM     69  C34 non d ame     -29.588  15.442  22.942  0.00  0.00    -0.075 A 
ATOM     70  H52 non d ame     -28.128  15.076  21.398  0.00  0.00     0.083 H 
ATOM     71  H53 non d ame     -29.352  16.504  23.020  0.00  0.00     0.084 H 
ENDBRANCH  58  61
ENDBRANCH  57  58
ENDBRANCH  55  57
ENDBRANCH  52  55
ENDBRANCH  49  52
ENDBRANCH  47  49
BRANCH  47  72
ATOM     72  C24 non d ame     -31.614  12.642  26.946  0.00  0.00    -0.039 C 
ATOM     73  H35 non d ame     -30.880  12.209  26.265  0.00  0.00     0.036 H 
ATOM     74  H36 non d ame     -31.774  13.720  26.960  0.00  0.00     0.036 H 
BRANCH  72  75
ATOM     75  C25 non d ame     -31.195  12.207  28.430  0.00  0.00    -0.001 C 
ATOM     76  C26 non d ame     -32.539  11.864  29.314  0.00  0.00    -0.035 C 
ATOM     77  C27 non d ame     -32.485  12.558  30.476  0.00  0.00     0.085 C 
ATOM     78  H38 non d ame     -33.423  12.264  28.819  0.00  0.00     0.036 H 
ATOM     79  H39 non d ame     -32.519  10.824  29.637  0.00  0.00     0.036 H 
ATOM     80  N5  non d ame     -31.393  13.590  30.324  0.00  0.00    -0.049 N 
ATOM     81  H40 non d ame     -33.446  13.066  30.557  0.00  0.00     0.075 H 
ATOM     82  H41 non d ame     -32.186  11.834  31.234  0.00  0.00     0.075 H 
ATOM     83  C28 non d ame     -30.542  13.148  29.026  0.00  0.00     0.193 C 
ATOM     84  H42 non d ame     -31.854  14.466  30.124  0.00  0.00     0.280 HD
ATOM     85  H43 non d ame     -30.804  13.504  31.141  0.00  0.00     0.280 HD
ATOM     86  H44 non d ame     -29.567  12.672  29.139  0.00  0.00     0.129 H 
ATOM     87  H37 non d ame     -30.397  11.464  28.433  0.00  0.00     0.046 H 
BRANCH  83  88
ATOM     88  O6  non d ame     -30.321  14.273  28.175  0.00  0.00    -0.369 OA
ATOM     89  H45 non d ame     -31.165  14.630  27.889  0.00  0.00     0.212 HD
ENDBRANCH  83  88
ENDBRANCH  72  75
ENDBRANCH  47  72
ENDBRANCH  45  47
ENDBRANCH   1  43
BRANCH   1  90
ATOM     90  C16 non d ame     -32.449   9.290  23.264  0.00  0.00    -0.035 C 
ATOM     91  H21 non d ame     -33.489   9.144  22.971  0.00  0.00     0.037 H 
ATOM     92  H22 non d ame     -32.062  10.297  23.417  0.00  0.00     0.037 H 
BRANCH  90  93
ATOM     93  C17 non d ame     -31.580   8.649  22.136  0.00  0.00    -0.059 C 
ATOM     94  H23 non d ame     -31.220   9.455  21.497  0.00  0.00     0.038 H 
BRANCH  93  95
ATOM     95  C18 non d ame     -30.332   7.901  22.707  0.00  0.00    -0.073 C 
ATOM     96  H24 non d ame     -30.132   8.249  23.720  0.00  0.00     0.028 H 
ATOM     97  H25 non d ame     -30.527   6.829  22.724  0.00  0.00     0.028 H 
ATOM     98  H26 non d ame     -29.467   8.103  22.076  0.00  0.00     0.028 H 
ENDBRANCH  93  95
BRANCH  93  99
ATOM     99  C19 non d ame     -32.420   7.716  21.261  0.00  0.00    -0.073 C 
ATOM    100  H27 non d ame     -33.471   7.997  21.335  0.00  0.00     0.028 H 
ATOM    101  H28 non d ame     -32.094   7.798  20.224  0.00  0.00     0.028 H 
ATOM    102  H29 non d ame     -32.294   6.688  21.600  0.00  0.00     0.028 H 
ENDBRANCH  93  99
ENDBRANCH  90  93
ENDBRANCH   1  90
TORSDOF 26
ENDMDL
MODEL 6
REMARK VINA RESULT:      -6.6      1.985      3.405
REMARK  26 active torsions:
REMARK  status: ('A' for Active; 'I' for Inactive)
REMARK    1  A    between atoms: C2_2  and  C3_3 
REMARK    2  A    between atoms: C4_6  and  C5_7 
REMARK       I    between atoms: C5_7  and  N2_9 
REMARK    3  A    between atoms: N2_9  and  C6_10 
REMARK    4  A    between atoms: C6_10  and  C7_11 
REMARK    5  A    between atoms: C6_10  and  C8_13 
REMARK       I    between atoms: C7_11  and  N3_14 
REMARK    6  A    between atoms: N3_14  and  C9_15 
REMARK    7  A    between atoms: C9_15  and  C10_16 
REMARK    8  A    between atoms: C9_15  and  C11_18 
REMARK       I    between atoms: C10_16  and  N4_21 
REMARK    9  A    between atoms: C11_18  and  C12_19 
REMARK   10  A    between atoms: C11_18  and  C13_20 
REMARK   11  A    between atoms: N4_21  and  C14_22 
REMARK   12  A    between atoms: C14_22  and  C15_23 
REMARK   13  A    between atoms: C14_22  and  C16_25 
REMARK       I    between atoms: C15_23  and  N6_40 
REMARK   14  A    between atoms: C16_25  and  C17_26 
REMARK   15  A    between atoms: C17_26  and  C18_27 
REMARK   16  A    between atoms: C17_26  and  C19_28 
REMARK   17  A    between atoms: C20_29  and  C21_30 
REMARK   18  A    between atoms: C20_29  and  C24_33 
REMARK   19  A    between atoms: C20_29  and  N6_40 
REMARK   20  A    between atoms: C21_30  and  C22_31 
REMARK   21  A    between atoms: C22_31  and  C23_32 
REMARK   22  A    between atoms: C23_32  and  O8_43 
REMARK   23  A    between atoms: C24_33  and  C25_34 
REMARK   24  A    between atoms: C28_38  and  O6_39 
REMARK   25  A    between atoms: C29_42  and  O8_43 
REMARK   26  A    between atoms: C29_42  and  C35_49 
ROOT
ATOM      1  C14 non d ame     -32.427  10.659  26.677  0.00  0.00     0.089 C 
ATOM      2  H20 non d ame     -33.477  10.745  26.395  0.00  0.00     0.087 H 
ENDROOT
BRANCH   1   3
ATOM      3  N4  non d ame     -31.854   9.567  25.905  0.00  0.00    -0.346 N 
ATOM      4  C10 non d ame     -32.396   9.235  24.537  0.00  0.00     0.241 C 
ATOM      5  O4  non d ame     -33.295   9.859  24.080  0.00  0.00    -0.271 OA
ATOM      6  H19 non d ame     -31.091   9.045  26.313  0.00  0.00     0.163 HD
BRANCH   4   7
ATOM      7  C9  non d ame     -31.787   8.104  23.750  0.00  0.00     0.092 C 
ATOM      8  H11 non d ame     -30.849   7.806  24.217  0.00  0.00     0.088 H 
BRANCH   7   9
ATOM      9  N3  non d ame     -32.681   6.942  23.792  0.00  0.00    -0.346 N 
ATOM     10  C7  non d ame     -32.500   5.932  24.806  0.00  0.00     0.240 C 
ATOM     11  O3  non d ame     -31.641   6.037  25.593  0.00  0.00    -0.271 OA
ATOM     12  H10 non d ame     -33.425   6.837  23.118  0.00  0.00     0.163 HD
BRANCH  10  13
ATOM     13  C6  non d ame     -33.452   4.696  24.844  0.00  0.00     0.086 C 
ATOM     14  H6  non d ame     -32.971   3.805  25.247  0.00  0.00     0.086 H 
BRANCH  13  15
ATOM     15  N2  non d ame     -34.575   4.993  25.718  0.00  0.00    -0.343 N 
ATOM     16  C5  non d ame     -34.597   4.445  27.076  0.00  0.00     0.273 C 
ATOM     17  O2  non d ame     -33.707   3.764  27.455  0.00  0.00    -0.266 OA
ATOM     18  H5  non d ame     -35.332   5.573  25.385  0.00  0.00     0.163 HD
BRANCH  16  19
ATOM     19  C4  non d ame     -35.777   4.752  28.011  0.00  0.00     0.154 A 
ATOM     20  C1  non d ame     -35.750   5.535  29.208  0.00  0.00    -0.017 A 
ATOM     21  C2  non d ame     -37.078   5.510  29.689  0.00  0.00     0.077 A 
ATOM     22  H1  non d ame     -34.898   6.044  29.659  0.00  0.00     0.091 H 
ATOM     23  O1  non d ame     -37.777   4.794  28.857  0.00  0.00    -0.218 OA
ATOM     24  N1  non d ame     -37.040   4.341  27.870  0.00  0.00    -0.123 NA
BRANCH  21  25
ATOM     25  C3  non d ame     -37.595   6.195  30.947  0.00  0.00    -0.029 C 
ATOM     26  H2  non d ame     -36.753   6.552  31.539  0.00  0.00     0.036 H 
ATOM     27  H3  non d ame     -38.226   7.039  30.668  0.00  0.00     0.036 H 
ATOM     28  H4  non d ame     -38.177   5.485  31.534  0.00  0.00     0.036 H 
ENDBRANCH  21  25
ENDBRANCH  16  19
ENDBRANCH  13  15
BRANCH  13  29
ATOM     29  C8  non d ame     -33.947   4.395  23.452  0.00  0.00    -0.049 C 
ATOM     30  H7  non d ame     -34.330   3.376  23.414  0.00  0.00     0.030 H 
ATOM     31  H8  non d ame     -34.743   5.092  23.191  0.00  0.00     0.030 H 
ATOM     32  H9  non d ame     -33.124   4.501  22.743  0.00  0.00     0.030 H 
ENDBRANCH  13  29
ENDBRANCH  10  13
ENDBRANCH   7   9
BRANCH   7  33
ATOM     33  C11 non d ame     -31.590   8.549  22.271  0.00  0.00    -0.033 C 
ATOM     34  H12 non d ame     -32.193   9.443  22.113  0.00  0.00     0.042 H 
BRANCH  33  35
ATOM     35  C12 non d ame     -30.104   8.930  21.986  0.00  0.00    -0.071 C 
ATOM     36  H13 non d ame     -29.632   8.142  21.399  0.00  0.00     0.028 H 
ATOM     37  H14 non d ame     -30.069   9.867  21.431  0.00  0.00     0.028 H 
ATOM     38  H15 non d ame     -29.571   9.047  22.930  0.00  0.00     0.028 H 
ENDBRANCH  33  35
BRANCH  33  39
ATOM     39  C13 non d ame     -32.091   7.447  21.284  0.00  0.00    -0.071 C 
ATOM     40  H16 non d ame     -33.044   7.752  20.852  0.00  0.00     0.028 H 
ATOM     41  H17 non d ame     -31.358   7.311  20.488  0.00  0.00     0.028 H 
ATOM     42  H18 non d ame     -32.219   6.508  21.822  0.00  0.00     0.028 H 
ENDBRANCH  33  39
ENDBRANCH   7  33
ENDBRANCH   4   7
ENDBRANCH   1   3
BRANCH   1  43
ATOM     43  C15 non d ame     -31.628  11.957  26.366  0.00  0.00     0.240 C 
ATOM     44  O5  non d ame     -30.898  12.412  27.186  0.00  0.00    -0.271 OA
ATOM     45  N6  non d ame     -31.766  12.628  25.042  0.00  0.00    -0.355 N 
ATOM     46  H46 non d ame     -32.379  12.249  24.336  0.00  0.00     0.162 HD
BRANCH  45  47
ATOM     47  C20 non d ame     -30.998  13.861  24.761  0.00  0.00     0.013 C 
ATOM     48  H30 non d ame     -30.084  13.829  25.354  0.00  0.00     0.072 H 
BRANCH  47  49
ATOM     49  C21 non d ame     -31.826  15.065  25.152  0.00  0.00    -0.038 C 
ATOM     50  H31 non d ame     -31.889  15.039  26.240  0.00  0.00     0.036 H 
ATOM     51  H32 non d ame     -31.361  15.915  24.652  0.00  0.00     0.036 H 
BRANCH  49  52
ATOM     52  C22 non d ame     -33.276  14.990  24.628  0.00  0.00     0.018 C 
ATOM     53  H33 non d ame     -33.516  15.994  24.279  0.00  0.00     0.048 H 
ATOM     54  H34 non d ame     -33.296  14.151  23.931  0.00  0.00     0.048 H 
BRANCH  52  55
ATOM     55  C23 non d ame     -34.323  14.658  25.728  0.00  0.00     0.259 C 
ATOM     56  O7  non d ame     -34.654  13.534  25.926  0.00  0.00    -0.265 OA
BRANCH  55  57
ATOM     57  O8  non d ame     -34.893  15.716  26.489  0.00  0.00    -0.317 OA
BRANCH  57  58
ATOM     58  C29 non d ame     -35.020  16.947  25.772  0.00  0.00     0.052 C 
ATOM     59  H47 non d ame     -34.610  16.754  24.781  0.00  0.00     0.082 H 
ATOM     60  H48 non d ame     -36.062  17.246  25.882  0.00  0.00     0.082 H 
BRANCH  58  61
ATOM     61  C35 non d ame     -34.129  18.005  26.475  0.00  0.00    -0.034 A 
ATOM     62  C30 non d ame     -34.034  19.292  25.955  0.00  0.00    -0.075 A 
ATOM     63  C31 non d ame     -33.233  20.243  26.586  0.00  0.00    -0.082 A 
ATOM     64  H49 non d ame     -34.586  19.555  25.053  0.00  0.00     0.084 H 
ATOM     65  C32 non d ame     -32.523  19.902  27.741  0.00  0.00    -0.083 A 
ATOM     66  H50 non d ame     -33.162  21.251  26.177  0.00  0.00     0.083 H 
ATOM     67  C33 non d ame     -32.619  18.615  28.254  0.00  0.00    -0.082 A 
ATOM     68  H51 non d ame     -31.896  20.639  28.241  0.00  0.00     0.083 H 
ATOM     69  C34 non d ame     -33.419  17.663  27.628  0.00  0.00    -0.075 A 
ATOM     70  H52 non d ame     -32.062  18.352  29.154  0.00  0.00     0.083 H 
ATOM     71  H53 non d ame     -33.490  16.655  28.038  0.00  0.00     0.084 H 
ENDBRANCH  58  61
ENDBRANCH  57  58
ENDBRANCH  55  57
ENDBRANCH  52  55
ENDBRANCH  49  52
ENDBRANCH  47  49
BRANCH  47  72
ATOM     72  C24 non d ame     -30.663  13.933  23.273  0.00  0.00    -0.039 C 
ATOM     73  H35 non d ame     -29.820  13.256  23.133  0.00  0.00     0.036 H 
ATOM     74  H36 non d ame     -31.603  13.747  22.755  0.00  0.00     0.036 H 
BRANCH  72  75
ATOM     75  C25 non d ame     -30.170  15.397  22.847  0.00  0.00    -0.001 C 
ATOM     76  C26 non d ame     -31.236  16.059  21.785  0.00  0.00    -0.035 C 
ATOM     77  C27 non d ame     -30.554  16.502  20.701  0.00  0.00     0.085 C 
ATOM     78  H38 non d ame     -31.888  15.286  21.378  0.00  0.00     0.036 H 
ATOM     79  H39 non d ame     -31.666  16.969  22.204  0.00  0.00     0.036 H 
ATOM     80  N5  non d ame     -29.168  15.910  20.780  0.00  0.00    -0.049 N 
ATOM     81  H40 non d ame     -31.073  16.081  19.839  0.00  0.00     0.075 H 
ATOM     82  H41 non d ame     -30.486  17.582  20.821  0.00  0.00     0.075 H 
ATOM     83  C28 non d ame     -29.007  15.354  22.287  0.00  0.00     0.193 C 
ATOM     84  H42 non d ame     -29.155  15.125  20.144  0.00  0.00     0.280 HD
ATOM     85  H43 non d ame     -28.523  16.676  20.649  0.00  0.00     0.280 HD
ATOM     86  H44 non d ame     -28.414  15.902  23.019  0.00  0.00     0.129 H 
ATOM     87  H37 non d ame     -29.885  16.003  23.707  0.00  0.00     0.046 H 
BRANCH  83  88
ATOM     88  O6  non d ame     -28.466  14.032  22.270  0.00  0.00    -0.369 OA
ATOM     89  H45 non d ame     -29.019  13.467  21.725  0.00  0.00     0.212 HD
ENDBRANCH  83  88
ENDBRANCH  72  75
ENDBRANCH  47  72
ENDBRANCH  45  47
ENDBRANCH   1  43
BRANCH   1  90
ATOM     90  C16 non d ame     -32.316  10.333  28.157  0.00  0.00    -0.035 C 
ATOM     91  H21 non d ame     -31.543   9.568  28.227  0.00  0.00     0.037 H 
ATOM     92  H22 non d ame     -32.179  11.293  28.655  0.00  0.00     0.037 H 
BRANCH  90  93
ATOM     93  C17 non d ame     -33.613   9.704  28.759  0.00  0.00    -0.059 C 
ATOM     94  H23 non d ame     -33.588   8.634  28.555  0.00  0.00     0.038 H 
BRANCH  93  95
ATOM     95  C18 non d ame     -33.694   9.891  30.308  0.00  0.00    -0.073 C 
ATOM     96  H24 non d ame     -33.210  10.827  30.587  0.00  0.00     0.028 H 
ATOM     97  H25 non d ame     -34.738   9.917  30.617  0.00  0.00     0.028 H 
ATOM     98  H26 non d ame     -33.190   9.060  30.801  0.00  0.00     0.028 H 
ENDBRANCH  93  95
BRANCH  93  99
ATOM     99  C19 non d ame     -34.861  10.268  28.077  0.00  0.00    -0.073 C 
ATOM    100  H27 non d ame     -35.408  10.897  28.781  0.00  0.00     0.028 H 
ATOM    101  H28 non d ame     -34.566  10.864  27.212  0.00  0.00     0.028 H 
ATOM    102  H29 non d ame     -35.499   9.448  27.750  0.00  0.00     0.028 H 
ENDBRANCH  93  99
ENDBRANCH  90  93
ENDBRANCH   1  90
TORSDOF 26
ENDMDL
MODEL 7
REMARK VINA RESULT:      -6.5      3.001      8.838
REMARK  26 active torsions:
REMARK  status: ('A' for Active; 'I' for Inactive)
REMARK    1  A    between atoms: C2_2  and  C3_3 
REMARK    2  A    between atoms: C4_6  and  C5_7 
REMARK       I    between atoms: C5_7  and  N2_9 
REMARK    3  A    between atoms: N2_9  and  C6_10 
REMARK    4  A    between atoms: C6_10  and  C7_11 
REMARK    5  A    between atoms: C6_10  and  C8_13 
REMARK       I    between atoms: C7_11  and  N3_14 
REMARK    6  A    between atoms: N3_14  and  C9_15 
REMARK    7  A    between atoms: C9_15  and  C10_16 
REMARK    8  A    between atoms: C9_15  and  C11_18 
REMARK       I    between atoms: C10_16  and  N4_21 
REMARK    9  A    between atoms: C11_18  and  C12_19 
REMARK   10  A    between atoms: C11_18  and  C13_20 
REMARK   11  A    between atoms: N4_21  and  C14_22 
REMARK   12  A    between atoms: C14_22  and  C15_23 
REMARK   13  A    between atoms: C14_22  and  C16_25 
REMARK       I    between atoms: C15_23  and  N6_40 
REMARK   14  A    between atoms: C16_25  and  C17_26 
REMARK   15  A    between atoms: C17_26  and  C18_27 
REMARK   16  A    between atoms: C17_26  and  C19_28 
REMARK   17  A    between atoms: C20_29  and  C21_30 
REMARK   18  A    between atoms: C20_29  and  C24_33 
REMARK   19  A    between atoms: C20_29  and  N6_40 
REMARK   20  A    between atoms: C21_30  and  C22_31 
REMARK   21  A    between atoms: C22_31  and  C23_32 
REMARK   22  A    between atoms: C23_32  and  O8_43 
REMARK   23  A    between atoms: C24_33  and  C25_34 
REMARK   24  A    between atoms: C28_38  and  O6_39 
REMARK   25  A    between atoms: C29_42  and  O8_43 
REMARK   26  A    between atoms: C29_42  and  C35_49 
ROOT
ATOM      1  C14 non d ame     -35.298  10.013  29.683  0.00  0.00     0.089 C 
ATOM      2  H20 non d ame     -34.861   9.016  29.747  0.00  0.00     0.087 H 
ENDROOT
BRANCH   1   3
ATOM      3  N4  non d ame     -34.204  10.967  29.578  0.00  0.00    -0.346 N 
ATOM      4  C10 non d ame     -32.988  10.642  28.748  0.00  0.00     0.241 C 
ATOM      5  O4  non d ame     -32.911   9.606  28.176  0.00  0.00    -0.271 OA
ATOM      6  H19 non d ame     -34.288  11.842  30.076  0.00  0.00     0.163 HD
BRANCH   4   7
ATOM      7  C9  non d ame     -31.867  11.643  28.647  0.00  0.00     0.092 C 
ATOM      8  H11 non d ame     -30.937  11.119  28.424  0.00  0.00     0.088 H 
BRANCH   7   9
ATOM      9  N3  non d ame     -32.127  12.558  27.531  0.00  0.00    -0.346 N 
ATOM     10  C7  non d ame     -31.520  12.316  26.245  0.00  0.00     0.240 C 
ATOM     11  O3  non d ame     -30.819  11.392  26.091  0.00  0.00    -0.271 OA
ATOM     12  H10 non d ame     -32.729  13.360  27.649  0.00  0.00     0.163 HD
BRANCH  10  13
ATOM     13  C6  non d ame     -31.799  13.295  25.062  0.00  0.00     0.086 C 
ATOM     14  H6  non d ame     -32.802  13.183  24.650  0.00  0.00     0.086 H 
BRANCH  13  15
ATOM     15  N2  non d ame     -31.698  14.661  25.547  0.00  0.00    -0.343 N 
ATOM     16  C5  non d ame     -32.834  15.570  25.383  0.00  0.00     0.273 C 
ATOM     17  O2  non d ame     -33.824  15.194  24.857  0.00  0.00    -0.266 OA
ATOM     18  H5  non d ame     -30.848  14.975  25.992  0.00  0.00     0.163 HD
BRANCH  16  19
ATOM     19  C4  non d ame     -32.742  17.017  25.892  0.00  0.00     0.154 A 
ATOM     20  C1  non d ame     -32.709  17.454  27.254  0.00  0.00    -0.017 A 
ATOM     21  C2  non d ame     -32.621  18.862  27.182  0.00  0.00     0.077 A 
ATOM     22  H1  non d ame     -32.744  16.843  28.156  0.00  0.00     0.091 H 
ATOM     23  O1  non d ame     -32.605  19.186  25.922  0.00  0.00    -0.218 OA
ATOM     24  N1  non d ame     -32.675  18.126  25.150  0.00  0.00    -0.123 NA
BRANCH  21  25
ATOM     25  C3  non d ame     -32.557  19.823  28.362  0.00  0.00    -0.029 C 
ATOM     26  H2  non d ame     -33.482  19.759  28.934  0.00  0.00     0.036 H 
ATOM     27  H3  non d ame     -31.716  19.556  29.002  0.00  0.00     0.036 H 
ATOM     28  H4  non d ame     -32.426  20.841  27.996  0.00  0.00     0.036 H 
ENDBRANCH  21  25
ENDBRANCH  16  19
ENDBRANCH  13  15
BRANCH  13  29
ATOM     29  C8  non d ame     -30.792  13.060  23.965  0.00  0.00    -0.049 C 
ATOM     30  H7  non d ame     -31.045  13.676  23.102  0.00  0.00     0.030 H 
ATOM     31  H8  non d ame     -29.798  13.326  24.322  0.00  0.00     0.030 H 
ATOM     32  H9  non d ame     -30.806  12.009  23.677  0.00  0.00     0.030 H 
ENDBRANCH  13  29
ENDBRANCH  10  13
ENDBRANCH   7   9
BRANCH   7  33
ATOM     33  C11 non d ame     -31.777  12.457  29.971  0.00  0.00    -0.033 C 
ATOM     34  H12 non d ame     -32.742  12.378  30.472  0.00  0.00     0.042 H 
BRANCH  33  35
ATOM     35  C12 non d ame     -30.700  11.864  30.932  0.00  0.00    -0.071 C 
ATOM     36  H13 non d ame     -31.066  10.927  31.353  0.00  0.00     0.028 H 
ATOM     37  H14 non d ame     -29.781  11.679  30.377  0.00  0.00     0.028 H 
ATOM     38  H15 non d ame     -30.503  12.571  31.737  0.00  0.00     0.028 H 
ENDBRANCH  33  35
BRANCH  33  39
ATOM     39  C13 non d ame     -31.506  13.969  29.681  0.00  0.00    -0.071 C 
ATOM     40  H16 non d ame     -30.438  14.125  29.534  0.00  0.00     0.028 H 
ATOM     41  H17 non d ame     -32.045  14.268  28.781  0.00  0.00     0.028 H 
ATOM     42  H18 non d ame     -31.849  14.568  30.525  0.00  0.00     0.028 H 
ENDBRANCH  33  39
ENDBRANCH   7  33
ENDBRANCH   4   7
ENDBRANCH   1   3
BRANCH   1  43
ATOM     43  C15 non d ame     -36.215  10.173  28.436  0.00  0.00     0.240 C 
ATOM     44  O5  non d ame     -37.136  10.923  28.472  0.00  0.00    -0.271 OA
ATOM     45  N6  non d ame     -35.940   9.397  27.194  0.00  0.00    -0.355 N 
ATOM     46  H46 non d ame     -35.157   8.760  27.150  0.00  0.00     0.162 HD
BRANCH  45  47
ATOM     47  C20 non d ame     -36.820   9.561  26.017  0.00  0.00     0.013 C 
ATOM     48  H30 non d ame     -37.795   9.894  26.371  0.00  0.00     0.072 H 
BRANCH  47  49
ATOM     49  C21 non d ame     -36.954   8.234  25.304  0.00  0.00    -0.038 C 
ATOM     50  H31 non d ame     -36.682   7.476  26.039  0.00  0.00     0.036 H 
ATOM     51  H32 non d ame     -37.953   8.235  24.866  0.00  0.00     0.036 H 
BRANCH  49  52
ATOM     52  C22 non d ame     -35.963   8.081  24.131  0.00  0.00     0.018 C 
ATOM     53  H33 non d ame     -36.461   7.437  23.406  0.00  0.00     0.048 H 
ATOM     54  H34 non d ame     -35.676   9.095  23.853  0.00  0.00     0.048 H 
BRANCH  52  55
ATOM     55  C23 non d ame     -34.645   7.353  24.515  0.00  0.00     0.259 C 
ATOM     56  O7  non d ame     -34.464   6.982  25.629  0.00  0.00    -0.265 OA
BRANCH  55  57
ATOM     57  O8  non d ame     -33.649   7.144  23.522  0.00  0.00    -0.317 OA
BRANCH  57  58
ATOM     58  C29 non d ame     -33.272   8.331  22.817  0.00  0.00     0.052 C 
ATOM     59  H47 non d ame     -33.661   8.210  21.806  0.00  0.00     0.082 H 
ATOM     60  H48 non d ame     -33.611   9.162  23.436  0.00  0.00     0.082 H 
BRANCH  58  61
ATOM     61  C35 non d ame     -31.722   8.374  22.746  0.00  0.00    -0.034 A 
ATOM     62  C30 non d ame     -30.990   7.191  22.779  0.00  0.00    -0.075 A 
ATOM     63  C31 non d ame     -29.598   7.229  22.715  0.00  0.00    -0.082 A 
ATOM     64  H49 non d ame     -31.507   6.234  22.855  0.00  0.00     0.084 H 
ATOM     65  C32 non d ame     -28.937   8.456  22.620  0.00  0.00    -0.083 A 
ATOM     66  H50 non d ame     -29.028   6.300  22.739  0.00  0.00     0.083 H 
ATOM     67  C33 non d ame     -29.671   9.634  22.591  0.00  0.00    -0.082 A 
ATOM     68  H51 non d ame     -27.849   8.495  22.568  0.00  0.00     0.083 H 
ATOM     69  C34 non d ame     -31.063   9.601  22.652  0.00  0.00    -0.075 A 
ATOM     70  H52 non d ame     -29.153  10.590  22.519  0.00  0.00     0.083 H 
ATOM     71  H53 non d ame     -31.633  10.530  22.628  0.00  0.00     0.084 H 
ENDBRANCH  58  61
ENDBRANCH  57  58
ENDBRANCH  55  57
ENDBRANCH  52  55
ENDBRANCH  49  52
ENDBRANCH  47  49
BRANCH  47  72
ATOM     72  C24 non d ame     -36.221  10.593  25.064  0.00  0.00    -0.039 C 
ATOM     73  H35 non d ame     -35.245  10.843  25.483  0.00  0.00     0.036 H 
ATOM     74  H36 non d ame     -36.290  10.146  24.072  0.00  0.00     0.036 H 
BRANCH  72  75
ATOM     75  C25 non d ame     -37.082  11.943  25.035  0.00  0.00    -0.001 C 
ATOM     76  C26 non d ame     -37.720  12.169  23.536  0.00  0.00    -0.035 C 
ATOM     77  C27 non d ame     -37.420  13.422  23.118  0.00  0.00     0.085 C 
ATOM     78  H38 non d ame     -37.212  11.531  22.814  0.00  0.00     0.036 H 
ATOM     79  H39 non d ame     -38.809  12.172  23.589  0.00  0.00     0.036 H 
ATOM     80  N5  non d ame     -36.361  13.957  24.052  0.00  0.00    -0.049 N 
ATOM     81  H40 non d ame     -36.989  13.302  22.124  0.00  0.00     0.075 H 
ATOM     82  H41 non d ame     -38.334  14.000  23.250  0.00  0.00     0.075 H 
ATOM     83  C28 non d ame     -36.354  12.969  25.328  0.00  0.00     0.193 C 
ATOM     84  H42 non d ame     -35.479  13.864  23.568  0.00  0.00     0.280 HD
ATOM     85  H43 non d ame     -36.679  14.868  24.351  0.00  0.00     0.280 HD
ATOM     86  H44 non d ame     -36.814  13.275  26.268  0.00  0.00     0.129 H 
ATOM     87  H37 non d ame     -37.766  12.015  25.881  0.00  0.00     0.046 H 
BRANCH  83  88
ATOM     88  O6  non d ame     -35.014  12.601  25.660  0.00  0.00    -0.369 OA
ATOM     89  H45 non d ame     -34.711  13.132  26.401  0.00  0.00     0.212 HD
ENDBRANCH  83  88
ENDBRANCH  72  75
ENDBRANCH  47  72
ENDBRANCH  45  47
ENDBRANCH   1  43
BRANCH   1  90
ATOM     90  C16 non d ame     -36.094  10.307  30.944  0.00  0.00    -0.035 C 
ATOM     91  H21 non d ame     -35.477  10.995  31.521  0.00  0.00     0.037 H 
ATOM     92  H22 non d ame     -37.080  10.620  30.597  0.00  0.00     0.037 H 
BRANCH  90  93
ATOM     93  C17 non d ame     -36.321   9.054  31.849  0.00  0.00    -0.059 C 
ATOM     94  H23 non d ame     -36.396   9.400  32.880  0.00  0.00     0.038 H 
BRANCH  93  95
ATOM     95  C18 non d ame     -37.649   8.308  31.499  0.00  0.00    -0.073 C 
ATOM     96  H24 non d ame     -37.684   7.359  32.033  0.00  0.00     0.028 H 
ATOM     97  H25 non d ame     -38.500   8.921  31.794  0.00  0.00     0.028 H 
ATOM     98  H26 non d ame     -37.689   8.123  30.426  0.00  0.00     0.028 H 
ENDBRANCH  93  95
BRANCH  93  99
ATOM     99  C19 non d ame     -35.125   8.102  31.774  0.00  0.00    -0.073 C 
ATOM    100  H27 non d ame     -34.456   8.293  32.613  0.00  0.00     0.028 H 
ATOM    101  H28 non d ame     -35.477   7.071  31.817  0.00  0.00     0.028 H 
ATOM    102  H29 non d ame     -34.590   8.263  30.838  0.00  0.00     0.028 H 
ENDBRANCH  93  99
ENDBRANCH  90  93
ENDBRANCH   1  90
TORSDOF 26
ENDMDL
MODEL 8
REMARK VINA RESULT:      -6.5      3.463      9.804
REMARK  26 active torsions:
REMARK  status: ('A' for Active; 'I' for Inactive)
REMARK    1  A    between atoms: C2_2  and  C3_3 
REMARK    2  A    between atoms: C4_6  and  C5_7 
REMARK       I    between atoms: C5_7  and  N2_9 
REMARK    3  A    between atoms: N2_9  and  C6_10 
REMARK    4  A    between atoms: C6_10  and  C7_11 
REMARK    5  A    between atoms: C6_10  and  C8_13 
REMARK       I    between atoms: C7_11  and  N3_14 
REMARK    6  A    between atoms: N3_14  and  C9_15 
REMARK    7  A    between atoms: C9_15  and  C10_16 
REMARK    8  A    between atoms: C9_15  and  C11_18 
REMARK       I    between atoms: C10_16  and  N4_21 
REMARK    9  A    between atoms: C11_18  and  C12_19 
REMARK   10  A    between atoms: C11_18  and  C13_20 
REMARK   11  A    between atoms: N4_21  and  C14_22 
REMARK   12  A    between atoms: C14_22  and  C15_23 
REMARK   13  A    between atoms: C14_22  and  C16_25 
REMARK       I    between atoms: C15_23  and  N6_40 
REMARK   14  A    between atoms: C16_25  and  C17_26 
REMARK   15  A    between atoms: C17_26  and  C18_27 
REMARK   16  A    between atoms: C17_26  and  C19_28 
REMARK   17  A    between atoms: C20_29  and  C21_30 
REMARK   18  A    between atoms: C20_29  and  C24_33 
REMARK   19  A    between atoms: C20_29  and  N6_40 
REMARK   20  A    between atoms: C21_30  and  C22_31 
REMARK   21  A    between atoms: C22_31  and  C23_32 
REMARK   22  A    between atoms: C23_32  and  O8_43 
REMARK   23  A    between atoms: C24_33  and  C25_34 
REMARK   24  A    between atoms: C28_38  and  O6_39 
REMARK   25  A    between atoms: C29_42  and  O8_43 
REMARK   26  A    between atoms: C29_42  and  C35_49 
ROOT
ATOM      1  C14 non d ame     -36.278  13.487  26.398  0.00  0.00     0.089 C 
ATOM      2  H20 non d ame     -36.956  13.387  27.246  0.00  0.00     0.087 H 
ENDROOT
BRANCH   1   3
ATOM      3  N4  non d ame     -35.953  14.899  26.261  0.00  0.00    -0.346 N 
ATOM      4  C10 non d ame     -36.954  15.953  26.663  0.00  0.00     0.241 C 
ATOM      5  O4  non d ame     -38.015  15.641  27.092  0.00  0.00    -0.271 OA
ATOM      6  H19 non d ame     -35.045  15.144  25.892  0.00  0.00     0.163 HD
BRANCH   4   7
ATOM      7  C9  non d ame     -36.598  17.410  26.521  0.00  0.00     0.092 C 
ATOM      8  H11 non d ame     -36.835  17.929  27.449  0.00  0.00     0.088 H 
BRANCH   7   9
ATOM      9  N3  non d ame     -35.154  17.542  26.306  0.00  0.00    -0.346 N 
ATOM     10  C7  non d ame     -34.276  17.759  27.430  0.00  0.00     0.240 C 
ATOM     11  O3  non d ame     -34.714  17.830  28.513  0.00  0.00    -0.271 OA
ATOM     12  H10 non d ame     -34.761  17.484  25.378  0.00  0.00     0.163 HD
BRANCH  10  13
ATOM     13  C6  non d ame     -32.740  17.902  27.195  0.00  0.00     0.086 C 
ATOM     14  H6  non d ame     -32.148  17.361  27.934  0.00  0.00     0.086 H 
BRANCH  13  15
ATOM     15  N2  non d ame     -32.406  17.335  25.899  0.00  0.00    -0.343 N 
ATOM     16  C5  non d ame     -31.800  16.003  25.829  0.00  0.00     0.273 C 
ATOM     17  O2  non d ame     -31.583  15.398  26.821  0.00  0.00    -0.266 OA
ATOM     18  H5  non d ame     -32.593  17.860  25.057  0.00  0.00     0.163 HD
BRANCH  16  19
ATOM     19  C4  non d ame     -31.444  15.391  24.465  0.00  0.00     0.154 A 
ATOM     20  C1  non d ame     -31.382  16.064  23.204  0.00  0.00    -0.017 A 
ATOM     21  C2  non d ame     -31.013  15.065  22.276  0.00  0.00     0.077 A 
ATOM     22  H1  non d ame     -31.575  17.117  22.995  0.00  0.00     0.091 H 
ATOM     23  O1  non d ame     -30.880  13.953  22.937  0.00  0.00    -0.218 OA
ATOM     24  N1  non d ame     -31.126  14.117  24.216  0.00  0.00    -0.123 NA
BRANCH  21  25
ATOM     25  C3  non d ame     -30.808  15.257  20.779  0.00  0.00    -0.029 C 
ATOM     26  H2  non d ame     -31.558  15.948  20.395  0.00  0.00     0.036 H 
ATOM     27  H3  non d ame     -29.813  15.663  20.598  0.00  0.00     0.036 H 
ATOM     28  H4  non d ame     -30.905  14.296  20.273  0.00  0.00     0.036 H 
ENDBRANCH  21  25
ENDBRANCH  16  19
ENDBRANCH  13  15
BRANCH  13  29
ATOM     29  C8  non d ame     -32.356  19.359  27.236  0.00  0.00    -0.049 C 
ATOM     30  H7  non d ame     -32.998  19.884  27.943  0.00  0.00     0.030 H 
ATOM     31  H8  non d ame     -31.317  19.452  27.550  0.00  0.00     0.030 H 
ATOM     32  H9  non d ame     -32.477  19.795  26.243  0.00  0.00     0.030 H 
ENDBRANCH  13  29
ENDBRANCH  10  13
ENDBRANCH   7   9
BRANCH   7  33
ATOM     33  C11 non d ame     -37.358  18.012  25.302  0.00  0.00    -0.033 C 
ATOM     34  H12 non d ame     -38.387  18.190  25.613  0.00  0.00     0.042 H 
BRANCH  33  35
ATOM     35  C12 non d ame     -36.752  19.386  24.877  0.00  0.00    -0.071 C 
ATOM     36  H13 non d ame     -37.199  19.704  23.935  0.00  0.00     0.028 H 
ATOM     37  H14 non d ame     -36.958  20.128  25.647  0.00  0.00     0.028 H 
ATOM     38  H15 non d ame     -35.674  19.283  24.750  0.00  0.00     0.028 H 
ENDBRANCH  33  35
BRANCH  33  39
ATOM     39  C13 non d ame     -37.381  17.008  24.106  0.00  0.00    -0.071 C 
ATOM     40  H16 non d ame     -37.253  17.554  23.171  0.00  0.00     0.028 H 
ATOM     41  H17 non d ame     -36.570  16.287  24.220  0.00  0.00     0.028 H 
ATOM     42  H18 non d ame     -38.335  16.481  24.092  0.00  0.00     0.028 H 
ENDBRANCH  33  39
ENDBRANCH   7  33
ENDBRANCH   4   7
ENDBRANCH   1   3
BRANCH   1  43
ATOM     43  C15 non d ame     -34.957  12.692  26.605  0.00  0.00     0.240 C 
ATOM     44  O5  non d ame     -33.937  13.117  26.168  0.00  0.00    -0.271 OA
ATOM     45  N6  non d ame     -34.962  11.406  27.359  0.00  0.00    -0.355 N 
ATOM     46  H46 non d ame     -35.822  11.038  27.739  0.00  0.00     0.162 HD
BRANCH  45  47
ATOM     47  C20 non d ame     -33.697  10.663  27.549  0.00  0.00     0.013 C 
ATOM     48  H30 non d ame     -32.907  11.209  27.034  0.00  0.00     0.072 H 
BRANCH  47  49
ATOM     49  C21 non d ame     -33.838   9.278  26.958  0.00  0.00    -0.038 C 
ATOM     50  H31 non d ame     -32.952   9.130  26.340  0.00  0.00     0.036 H 
ATOM     51  H32 non d ame     -34.031   8.616  27.802  0.00  0.00     0.036 H 
BRANCH  49  52
ATOM     52  C22 non d ame     -35.054   9.149  26.015  0.00  0.00     0.018 C 
ATOM     53  H33 non d ame     -35.373   8.110  26.086  0.00  0.00     0.048 H 
ATOM     54  H34 non d ame     -35.736   9.950  26.301  0.00  0.00     0.048 H 
BRANCH  52  55
ATOM     55  C23 non d ame     -34.714   9.391  24.518  0.00  0.00     0.259 C 
ATOM     56  O7  non d ame     -35.439  10.035  23.831  0.00  0.00    -0.265 OA
BRANCH  55  57
ATOM     57  O8  non d ame     -33.530   8.822  23.972  0.00  0.00    -0.317 OA
BRANCH  57  58
ATOM     58  C29 non d ame     -32.516   9.781  23.655  0.00  0.00     0.052 C 
ATOM     59  H47 non d ame     -32.905  10.355  22.814  0.00  0.00     0.082 H 
ATOM     60  H48 non d ame     -32.280  10.282  24.594  0.00  0.00     0.082 H 
BRANCH  58  61
ATOM     61  C35 non d ame     -31.257   9.007  23.182  0.00  0.00    -0.034 A 
ATOM     62  C30 non d ame     -31.190   7.626  23.333  0.00  0.00    -0.075 A 
ATOM     63  C31 non d ame     -30.059   6.931  22.909  0.00  0.00    -0.082 A 
ATOM     64  H49 non d ame     -32.023   7.088  23.786  0.00  0.00     0.084 H 
ATOM     65  C32 non d ame     -28.990   7.623  22.332  0.00  0.00    -0.083 A 
ATOM     66  H50 non d ame     -30.010   5.848  23.028  0.00  0.00     0.083 H 
ATOM     67  C33 non d ame     -29.060   9.002  22.186  0.00  0.00    -0.082 A 
ATOM     68  H51 non d ame     -28.102   7.087  21.997  0.00  0.00     0.083 H 
ATOM     69  C34 non d ame     -30.190   9.700  22.607  0.00  0.00    -0.075 A 
ATOM     70  H52 non d ame     -28.224   9.539  21.738  0.00  0.00     0.083 H 
ATOM     71  H53 non d ame     -30.238  10.783  22.488  0.00  0.00     0.084 H 
ENDBRANCH  58  61
ENDBRANCH  57  58
ENDBRANCH  55  57
ENDBRANCH  52  55
ENDBRANCH  49  52
ENDBRANCH  47  49
BRANCH  47  72
ATOM     72  C24 non d ame     -33.383  10.552  29.039  0.00  0.00    -0.039 C 
ATOM     73  H35 non d ame     -34.342  10.377  29.526  0.00  0.00     0.036 H 
ATOM     74  H36 non d ame     -32.590   9.807  29.114  0.00  0.00     0.036 H 
BRANCH  72  75
ATOM     75  C25 non d ame     -32.799  11.924  29.625  0.00  0.00    -0.001 C 
ATOM     76  C26 non d ame     -31.461  12.370  28.779  0.00  0.00    -0.035 C 
ATOM     77  C27 non d ame     -30.457  12.623  29.652  0.00  0.00     0.085 C 
ATOM     78  H38 non d ame     -31.088  11.527  28.198  0.00  0.00     0.036 H 
ATOM     79  H39 non d ame     -31.628  13.333  28.296  0.00  0.00     0.036 H 
ATOM     80  N5  non d ame     -30.888  12.077  30.991  0.00  0.00    -0.049 N 
ATOM     81  H40 non d ame     -29.605  12.048  29.290  0.00  0.00     0.075 H 
ATOM     82  H41 non d ame     -30.393  13.709  29.715  0.00  0.00     0.075 H 
ATOM     83  C28 non d ame     -32.474  11.800  30.869  0.00  0.00     0.193 C 
ATOM     84  H42 non d ame     -30.415  11.192  31.105  0.00  0.00     0.280 HD
ATOM     85  H43 non d ame     -30.741  12.817  31.662  0.00  0.00     0.280 HD
ATOM     86  H44 non d ame     -33.191  12.479  31.330  0.00  0.00     0.129 H 
ATOM     87  H37 non d ame     -33.574  12.678  29.761  0.00  0.00     0.046 H 
BRANCH  83  88
ATOM     88  O6  non d ame     -32.789  10.505  31.382  0.00  0.00    -0.369 OA
ATOM     89  H45 non d ame     -32.032  10.156  31.859  0.00  0.00     0.212 HD
ENDBRANCH  83  88
ENDBRANCH  72  75
ENDBRANCH  47  72
ENDBRANCH  45  47
ENDBRANCH   1  43
BRANCH   1  90
ATOM     90  C16 non d ame     -36.966  13.011  25.128  0.00  0.00    -0.035 C 
ATOM     91  H21 non d ame     -37.037  13.892  24.491  0.00  0.00     0.037 H 
ATOM     92  H22 non d ame     -36.395  12.144  24.798  0.00  0.00     0.037 H 
BRANCH  90  93
ATOM     93  C17 non d ame     -38.429  12.515  25.357  0.00  0.00    -0.059 C 
ATOM     94  H23 non d ame     -39.100  13.341  25.122  0.00  0.00     0.038 H 
BRANCH  93  95
ATOM     95  C18 non d ame     -38.799  11.319  24.422  0.00  0.00    -0.073 C 
ATOM     96  H24 non d ame     -39.848  11.392  24.136  0.00  0.00     0.028 H 
ATOM     97  H25 non d ame     -38.176  11.351  23.528  0.00  0.00     0.028 H 
ATOM     98  H26 non d ame     -38.631  10.380  24.949  0.00  0.00     0.028 H 
ENDBRANCH  93  95
BRANCH  93  99
ATOM     99  C19 non d ame     -38.659  12.148  26.826  0.00  0.00    -0.073 C 
ATOM    100  H27 non d ame     -39.641  11.689  26.937  0.00  0.00     0.028 H 
ATOM    101  H28 non d ame     -37.891  11.445  27.150  0.00  0.00     0.028 H 
ATOM    102  H29 non d ame     -38.607  13.048  27.438  0.00  0.00     0.028 H 
ENDBRANCH  93  99
ENDBRANCH  90  93
ENDBRANCH   1  90
TORSDOF 26
ENDMDL
MODEL 9
REMARK VINA RESULT:      -6.4      2.491      9.305
REMARK  26 active torsions:
REMARK  status: ('A' for Active; 'I' for Inactive)
REMARK    1  A    between atoms: C2_2  and  C3_3 
REMARK    2  A    between atoms: C4_6  and  C5_7 
REMARK       I    between atoms: C5_7  and  N2_9 
REMARK    3  A    between atoms: N2_9  and  C6_10 
REMARK    4  A    between atoms: C6_10  and  C7_11 
REMARK    5  A    between atoms: C6_10  and  C8_13 
REMARK       I    between atoms: C7_11  and  N3_14 
REMARK    6  A    between atoms: N3_14  and  C9_15 
REMARK    7  A    between atoms: C9_15  and  C10_16 
REMARK    8  A    between atoms: C9_15  and  C11_18 
REMARK       I    between atoms: C10_16  and  N4_21 
REMARK    9  A    between atoms: C11_18  and  C12_19 
REMARK   10  A    between atoms: C11_18  and  C13_20 
REMARK   11  A    between atoms: N4_21  and  C14_22 
REMARK   12  A    between atoms: C14_22  and  C15_23 
REMARK   13  A    between atoms: C14_22  and  C16_25 
REMARK       I    between atoms: C15_23  and  N6_40 
REMARK   14  A    between atoms: C16_25  and  C17_26 
REMARK   15  A    between atoms: C17_26  and  C18_27 
REMARK   16  A    between atoms: C17_26  and  C19_28 
REMARK   17  A    between atoms: C20_29  and  C21_30 
REMARK   18  A    between atoms: C20_29  and  C24_33 
REMARK   19  A    between atoms: C20_29  and  N6_40 
REMARK   20  A    between atoms: C21_30  and  C22_31 
REMARK   21  A    between atoms: C22_31  and  C23_32 
REMARK   22  A    between atoms: C23_32  and  O8_43 
REMARK   23  A    between atoms: C24_33  and  C25_34 
REMARK   24  A    between atoms: C28_38  and  O6_39 
REMARK   25  A    between atoms: C29_42  and  O8_43 
REMARK   26  A    between atoms: C29_42  and  C35_49 
ROOT
ATOM      1  C14 non d ame     -34.082   9.088  29.875  0.00  0.00     0.089 C 
ATOM      2  H20 non d ame     -33.846   8.437  30.717  0.00  0.00     0.087 H 
ENDROOT
BRANCH   1   3
ATOM      3  N4  non d ame     -32.939   9.965  29.666  0.00  0.00    -0.346 N 
ATOM      4  C10 non d ame     -33.060  11.176  28.776  0.00  0.00     0.241 C 
ATOM      5  O4  non d ame     -34.088  11.423  28.235  0.00  0.00    -0.271 OA
ATOM      6  H19 non d ame     -32.073   9.736  30.133  0.00  0.00     0.163 HD
BRANCH   4   7
ATOM      7  C9  non d ame     -31.869  12.075  28.575  0.00  0.00     0.092 C 
ATOM      8  H11 non d ame     -30.996  11.466  28.337  0.00  0.00     0.088 H 
BRANCH   7   9
ATOM      9  N3  non d ame     -32.109  12.956  27.428  0.00  0.00    -0.346 N 
ATOM     10  C7  non d ame     -31.435  12.710  26.177  0.00  0.00     0.240 C 
ATOM     11  O3  non d ame     -30.695  11.808  26.076  0.00  0.00    -0.271 OA
ATOM     12  H10 non d ame     -32.742  13.739  27.501  0.00  0.00     0.163 HD
BRANCH  10  13
ATOM     13  C6  non d ame     -31.692  13.653  24.961  0.00  0.00     0.086 C 
ATOM     14  H6  non d ame     -32.685  13.526  24.532  0.00  0.00     0.086 H 
BRANCH  13  15
ATOM     15  N2  non d ame     -31.606  15.033  25.408  0.00  0.00    -0.343 N 
ATOM     16  C5  non d ame     -32.834  15.778  25.692  0.00  0.00     0.273 C 
ATOM     17  O2  non d ame     -33.887  15.258  25.555  0.00  0.00    -0.266 OA
ATOM     18  H5  non d ame     -30.702  15.470  25.521  0.00  0.00     0.163 HD
BRANCH  16  19
ATOM     19  C4  non d ame     -32.758  17.237  26.168  0.00  0.00     0.154 A 
ATOM     20  C1  non d ame     -32.689  17.704  27.519  0.00  0.00    -0.017 A 
ATOM     21  C2  non d ame     -32.636  19.112  27.415  0.00  0.00     0.077 A 
ATOM     22  H1  non d ame     -32.679  17.112  28.434  0.00  0.00     0.091 H 
ATOM     23  O1  non d ame     -32.669  19.408  26.148  0.00  0.00    -0.218 OA
ATOM     24  N1  non d ame     -32.741  18.331  25.401  0.00  0.00    -0.123 NA
BRANCH  21  25
ATOM     25  C3  non d ame     -32.553  20.099  28.571  0.00  0.00    -0.029 C 
ATOM     26  H2  non d ame     -31.512  20.232  28.862  0.00  0.00     0.036 H 
ATOM     27  H3  non d ame     -32.969  21.057  28.261  0.00  0.00     0.036 H 
ATOM     28  H4  non d ame     -33.121  19.715  29.418  0.00  0.00     0.036 H 
ENDBRANCH  21  25
ENDBRANCH  16  19
ENDBRANCH  13  15
BRANCH  13  29
ATOM     29  C8  non d ame     -30.662  13.392  23.892  0.00  0.00    -0.049 C 
ATOM     30  H7  non d ame     -29.776  12.944  24.342  0.00  0.00     0.030 H 
ATOM     31  H8  non d ame     -31.075  12.710  23.149  0.00  0.00     0.030 H 
ATOM     32  H9  non d ame     -30.389  14.332  23.412  0.00  0.00     0.030 H 
ENDBRANCH  13  29
ENDBRANCH  10  13
ENDBRANCH   7   9
BRANCH   7  33
ATOM     33  C11 non d ame     -31.649  12.938  29.852  0.00  0.00    -0.033 C 
ATOM     34  H12 non d ame     -32.620  13.070  30.330  0.00  0.00     0.042 H 
BRANCH  33  35
ATOM     35  C12 non d ame     -30.718  12.214  30.874  0.00  0.00    -0.071 C 
ATOM     36  H13 non d ame     -30.184  11.408  30.371  0.00  0.00     0.028 H 
ATOM     37  H14 non d ame     -30.001  12.927  31.280  0.00  0.00     0.028 H 
ATOM     38  H15 non d ame     -31.319  11.802  31.684  0.00  0.00     0.028 H 
ENDBRANCH  33  35
BRANCH  33  39
ATOM     39  C13 non d ame     -31.096  14.352  29.483  0.00  0.00    -0.071 C 
ATOM     40  H16 non d ame     -31.560  15.102  30.124  0.00  0.00     0.028 H 
ATOM     41  H17 non d ame     -30.015  14.368  29.628  0.00  0.00     0.028 H 
ATOM     42  H18 non d ame     -31.325  14.571  28.441  0.00  0.00     0.028 H 
ENDBRANCH  33  39
ENDBRANCH   7  33
ENDBRANCH   4   7
ENDBRANCH   1   3
BRANCH   1  43
ATOM     43  C15 non d ame     -34.338   8.288  28.566  0.00  0.00     0.240 C 
ATOM     44  O5  non d ame     -35.368   8.415  27.988  0.00  0.00    -0.271 OA
ATOM     45  N6  non d ame     -33.295   7.369  28.029  0.00  0.00    -0.355 N 
ATOM     46  H46 non d ame     -32.414   7.256  28.509  0.00  0.00     0.162 HD
BRANCH  45  47
ATOM     47  C20 non d ame     -33.553   6.616  26.783  0.00  0.00     0.013 C 
ATOM     48  H30 non d ame     -34.591   6.785  26.498  0.00  0.00     0.072 H 
BRANCH  47  49
ATOM     49  C21 non d ame     -33.320   5.143  27.031  0.00  0.00    -0.038 C 
ATOM     50  H31 non d ame     -34.237   4.772  27.490  0.00  0.00     0.036 H 
ATOM     51  H32 non d ame     -32.982   4.734  26.079  0.00  0.00     0.036 H 
BRANCH  49  52
ATOM     52  C22 non d ame     -32.186   4.878  28.046  0.00  0.00     0.018 C 
ATOM     53  H33 non d ame     -31.550   4.121  27.589  0.00  0.00     0.048 H 
ATOM     54  H34 non d ame     -31.776   5.858  28.293  0.00  0.00     0.048 H 
BRANCH  52  55
ATOM     55  C23 non d ame     -32.677   4.270  29.389  0.00  0.00     0.259 C 
ATOM     56  O7  non d ame     -31.898   3.857  30.185  0.00  0.00    -0.265 OA
BRANCH  55  57
ATOM     57  O8  non d ame     -34.074   4.199  29.653  0.00  0.00    -0.317 OA
BRANCH  57  58
ATOM     58  C29 non d ame     -34.551   5.216  30.537  0.00  0.00     0.052 C 
ATOM     59  H47 non d ame     -34.575   4.760  31.527  0.00  0.00     0.082 H 
ATOM     60  H48 non d ame     -33.922   6.087  30.353  0.00  0.00     0.082 H 
BRANCH  58  61
ATOM     61  C35 non d ame     -36.006   5.567  30.123  0.00  0.00    -0.034 A 
ATOM     62  C30 non d ame     -36.849   6.213  31.021  0.00  0.00    -0.075 A 
ATOM     63  C31 non d ame     -38.156   6.527  30.649  0.00  0.00    -0.082 A 
ATOM     64  H49 non d ame     -36.487   6.473  32.016  0.00  0.00     0.084 H 
ATOM     65  C32 non d ame     -38.619   6.190  29.374  0.00  0.00    -0.083 A 
ATOM     66  H50 non d ame     -38.814   7.035  31.355  0.00  0.00     0.083 H 
ATOM     67  C33 non d ame     -37.774   5.542  28.483  0.00  0.00    -0.082 A 
ATOM     68  H51 non d ame     -39.638   6.433  29.075  0.00  0.00     0.083 H 
ATOM     69  C34 non d ame     -36.467   5.228  28.849  0.00  0.00    -0.075 A 
ATOM     70  H52 non d ame     -38.139   5.279  27.490  0.00  0.00     0.083 H 
ATOM     71  H53 non d ame     -35.810   4.720  28.143  0.00  0.00     0.084 H 
ENDBRANCH  58  61
ENDBRANCH  57  58
ENDBRANCH  55  57
ENDBRANCH  52  55
ENDBRANCH  49  52
ENDBRANCH  47  49
BRANCH  47  72
ATOM     72  C24 non d ame     -32.614   7.102  25.681  0.00  0.00    -0.039 C 
ATOM     73  H35 non d ame     -31.751   7.522  26.200  0.00  0.00     0.036 H 
ATOM     74  H36 non d ame     -32.486   6.251  25.012  0.00  0.00     0.036 H 
BRANCH  72  75
ATOM     75  C25 non d ame     -33.270   8.285  24.822  0.00  0.00    -0.001 C 
ATOM     76  C26 non d ame     -33.003   8.028  23.220  0.00  0.00    -0.035 C 
ATOM     77  C27 non d ame     -32.474   9.152  22.681  0.00  0.00     0.085 C 
ATOM     78  H38 non d ame     -32.216   7.286  23.087  0.00  0.00     0.036 H 
ATOM     79  H39 non d ame     -33.952   7.916  22.696  0.00  0.00     0.036 H 
ATOM     80  N5  non d ame     -32.052  10.037  23.829  0.00  0.00    -0.049 N 
ATOM     81  H40 non d ame     -31.586   8.825  22.139  0.00  0.00     0.075 H 
ATOM     82  H41 non d ame     -33.293   9.631  22.145  0.00  0.00     0.075 H 
ATOM     83  C28 non d ame     -32.767   9.430  25.143  0.00  0.00     0.193 C 
ATOM     84  H42 non d ame     -31.053   9.924  23.925  0.00  0.00     0.280 HD
ATOM     85  H43 non d ame     -32.442  10.950  23.643  0.00  0.00     0.280 HD
ATOM     86  H44 non d ame     -33.642   9.918  25.572  0.00  0.00     0.129 H 
ATOM     87  H37 non d ame     -34.295   8.496  25.126  0.00  0.00     0.046 H 
BRANCH  83  88
ATOM     88  O6  non d ame     -31.825   9.325  26.212  0.00  0.00    -0.369 OA
ATOM     89  H45 non d ame     -30.997   8.974  25.876  0.00  0.00     0.212 HD
ENDBRANCH  83  88
ENDBRANCH  72  75
ENDBRANCH  47  72
ENDBRANCH  45  47
ENDBRANCH   1  43
BRANCH   1  90
ATOM     90  C16 non d ame     -35.301   9.934  30.205  0.00  0.00    -0.035 C 
ATOM     91  H21 non d ame     -35.009  10.960  29.985  0.00  0.00     0.037 H 
ATOM     92  H22 non d ame     -36.127   9.474  29.661  0.00  0.00     0.037 H 
BRANCH  90  93
ATOM     93  C17 non d ame     -35.696   9.902  31.715  0.00  0.00    -0.059 C 
ATOM     94  H23 non d ame     -36.785   9.913  31.773  0.00  0.00     0.038 H 
BRANCH  93  95
ATOM     95  C18 non d ame     -35.194   8.606  32.429  0.00  0.00    -0.073 C 
ATOM     96  H24 non d ame     -36.042   8.079  32.864  0.00  0.00     0.028 H 
ATOM     97  H25 non d ame     -34.699   7.961  31.704  0.00  0.00     0.028 H 
ATOM     98  H26 non d ame     -34.490   8.875  33.216  0.00  0.00     0.028 H 
ENDBRANCH  93  95
BRANCH  93  99
ATOM     99  C19 non d ame     -35.191  11.153  32.439  0.00  0.00    -0.073 C 
ATOM    100  H27 non d ame     -35.990  11.893  32.487  0.00  0.00     0.028 H 
ATOM    101  H28 non d ame     -34.880  10.888  33.450  0.00  0.00     0.028 H 
ATOM    102  H29 non d ame     -34.342  11.569  31.896  0.00  0.00     0.028 H 
ENDBRANCH  93  99
ENDBRANCH  90  93
ENDBRANCH   1  90
TORSDOF 26
ENDMDL
MODEL 10
REMARK VINA RESULT:      -6.3      2.326      9.280
REMARK  26 active torsions:
REMARK  status: ('A' for Active; 'I' for Inactive)
REMARK    1  A    between atoms: C2_2  and  C3_3 
REMARK    2  A    between atoms: C4_6  and  C5_7 
REMARK       I    between atoms: C5_7  and  N2_9 
REMARK    3  A    between atoms: N2_9  and  C6_10 
REMARK    4  A    between atoms: C6_10  and  C7_11 
REMARK    5  A    between atoms: C6_10  and  C8_13 
REMARK       I    between atoms: C7_11  and  N3_14 
REMARK    6  A    between atoms: N3_14  and  C9_15 
REMARK    7  A    between atoms: C9_15  and  C10_16 
REMARK    8  A    between atoms: C9_15  and  C11_18 
REMARK       I    between atoms: C10_16  and  N4_21 
REMARK    9  A    between atoms: C11_18  and  C12_19 
REMARK   10  A    between atoms: C11_18  and  C13_20 
REMARK   11  A    between atoms: N4_21  and  C14_22 
REMARK   12  A    between atoms: C14_22  and  C15_23 
REMARK   13  A    between atoms: C14_22  and  C16_25 
REMARK       I    between atoms: C15_23  and  N6_40 
REMARK   14  A    between atoms: C16_25  and  C17_26 
REMARK   15  A    between atoms: C17_26  and  C18_27 
REMARK   16  A    between atoms: C17_26  and  C19_28 
REMARK   17  A    between atoms: C20_29  and  C21_30 
REMARK   18  A    between atoms: C20_29  and  C24_33 
REMARK   19  A    between atoms: C20_29  and  N6_40 
REMARK   20  A    between atoms: C21_30  and  C22_31 
REMARK   21  A    between atoms: C22_31  and  C23_32 
REMARK   22  A    between atoms: C23_32  and  O8_43 
REMARK   23  A    between atoms: C24_33  and  C25_34 
REMARK   24  A    between atoms: C28_38  and  O6_39 
REMARK   25  A    between atoms: C29_42  and  O8_43 
REMARK   26  A    between atoms: C29_42  and  C35_49 
ROOT
ATOM      1  C14 non d ame     -32.265  10.676  24.317  0.00  0.00     0.089 C 
ATOM      2  H20 non d ame     -32.676  11.176  23.439  0.00  0.00     0.087 H 
ENDROOT
BRANCH   1   3
ATOM      3  N4  non d ame     -32.519  11.530  25.467  0.00  0.00    -0.346 N 
ATOM      4  C10 non d ame     -32.033  11.127  26.837  0.00  0.00     0.241 C 
ATOM      5  O4  non d ame     -31.442  10.109  26.988  0.00  0.00    -0.271 OA
ATOM      6  H19 non d ame     -33.027  12.390  25.318  0.00  0.00     0.163 HD
BRANCH   4   7
ATOM      7  C9  non d ame     -32.301  12.025  28.016  0.00  0.00     0.092 C 
ATOM      8  H11 non d ame     -31.402  12.087  28.631  0.00  0.00     0.088 H 
BRANCH   7   9
ATOM      9  N3  non d ame     -32.595  13.380  27.541  0.00  0.00    -0.346 N 
ATOM     10  C7  non d ame     -31.576  14.400  27.595  0.00  0.00     0.240 C 
ATOM     11  O3  non d ame     -30.514  14.147  28.018  0.00  0.00    -0.271 OA
ATOM     12  H10 non d ame     -33.507  13.614  27.175  0.00  0.00     0.163 HD
BRANCH  10  13
ATOM     13  C6  non d ame     -31.896  15.841  27.091  0.00  0.00     0.086 C 
ATOM     14  H6  non d ame     -31.535  16.615  27.769  0.00  0.00     0.086 H 
BRANCH  13  15
ATOM     15  N2  non d ame     -31.226  16.056  25.820  0.00  0.00    -0.343 N 
ATOM     16  C5  non d ame     -31.556  15.203  24.676  0.00  0.00     0.273 C 
ATOM     17  O2  non d ame     -32.361  14.345  24.790  0.00  0.00    -0.266 OA
ATOM     18  H5  non d ame     -30.537  16.790  25.732  0.00  0.00     0.163 HD
BRANCH  16  19
ATOM     19  C4  non d ame     -30.856  15.420  23.326  0.00  0.00     0.154 A 
ATOM     20  C1  non d ame     -31.474  15.530  22.040  0.00  0.00    -0.017 A 
ATOM     21  C2  non d ame     -30.403  15.721  21.138  0.00  0.00     0.077 A 
ATOM     22  H1  non d ame     -32.536  15.480  21.798  0.00  0.00     0.091 H 
ATOM     23  O1  non d ame     -29.305  15.720  21.834  0.00  0.00    -0.218 OA
ATOM     24  N1  non d ame     -29.543  15.546  23.114  0.00  0.00    -0.123 NA
BRANCH  21  25
ATOM     25  C3  non d ame     -30.516  15.896  19.629  0.00  0.00    -0.029 C 
ATOM     26  H2  non d ame     -29.702  16.528  19.275  0.00  0.00     0.036 H 
ATOM     27  H3  non d ame     -30.456  14.922  19.145  0.00  0.00     0.036 H 
ATOM     28  H4  non d ame     -31.470  16.364  19.388  0.00  0.00     0.036 H 
ENDBRANCH  21  25
ENDBRANCH  16  19
ENDBRANCH  13  15
BRANCH  13  29
ATOM     29  C8  non d ame     -33.386  15.998  26.922  0.00  0.00    -0.049 C 
ATOM     30  H7  non d ame     -33.902  15.376  27.653  0.00  0.00     0.030 H 
ATOM     31  H8  non d ame     -33.661  17.041  27.075  0.00  0.00     0.030 H 
ATOM     32  H9  non d ame     -33.672  15.690  25.916  0.00  0.00     0.030 H 
ENDBRANCH  13  29
ENDBRANCH  10  13
ENDBRANCH   7   9
BRANCH   7  33
ATOM     33  C11 non d ame     -33.521  11.482  28.816  0.00  0.00    -0.033 C 
ATOM     34  H12 non d ame     -34.002  12.332  29.299  0.00  0.00     0.042 H 
BRANCH  33  35
ATOM     35  C12 non d ame     -34.573  10.824  27.869  0.00  0.00    -0.071 C 
ATOM     36  H13 non d ame     -34.180   9.882  27.488  0.00  0.00     0.028 H 
ATOM     37  H14 non d ame     -35.493  10.637  28.423  0.00  0.00     0.028 H 
ATOM     38  H15 non d ame     -34.781  11.494  27.035  0.00  0.00     0.028 H 
ENDBRANCH  33  35
BRANCH  33  39
ATOM     39  C13 non d ame     -33.062  10.487  29.930  0.00  0.00    -0.071 C 
ATOM     40  H16 non d ame     -33.170   9.464  29.571  0.00  0.00     0.028 H 
ATOM     41  H17 non d ame     -32.017  10.677  30.178  0.00  0.00     0.028 H 
ATOM     42  H18 non d ame     -33.677  10.629  30.819  0.00  0.00     0.028 H 
ENDBRANCH  33  39
ENDBRANCH   7  33
ENDBRANCH   4   7
ENDBRANCH   1   3
BRANCH   1  43
ATOM     43  C15 non d ame     -32.929   9.292  24.569  0.00  0.00     0.240 C 
ATOM     44  O5  non d ame     -34.103   9.166  24.429  0.00  0.00    -0.271 OA
ATOM     45  N6  non d ame     -32.101   8.123  24.978  0.00  0.00    -0.355 N 
ATOM     46  H46 non d ame     -31.102   8.217  25.096  0.00  0.00     0.162 HD
BRANCH  45  47
ATOM     47  C20 non d ame     -32.747   6.813  25.213  0.00  0.00     0.013 C 
ATOM     48  H30 non d ame     -33.809   6.919  24.991  0.00  0.00     0.072 H 
BRANCH  47  49
ATOM     49  C21 non d ame     -32.560   6.416  26.660  0.00  0.00    -0.038 C 
ATOM     50  H31 non d ame     -32.932   5.394  26.736  0.00  0.00     0.036 H 
ATOM     51  H32 non d ame     -31.518   6.636  26.893  0.00  0.00     0.036 H 
BRANCH  49  52
ATOM     52  C22 non d ame     -33.412   7.264  27.630  0.00  0.00     0.018 C 
ATOM     53  H33 non d ame     -32.791   7.415  28.512  0.00  0.00     0.048 H 
ATOM     54  H34 non d ame     -33.753   8.122  27.050  0.00  0.00     0.048 H 
BRANCH  52  55
ATOM     55  C23 non d ame     -34.696   6.545  28.127  0.00  0.00     0.259 C 
ATOM     56  O7  non d ame     -35.599   6.338  27.382  0.00  0.00    -0.265 OA
BRANCH  55  57
ATOM     57  O8  non d ame     -34.789   6.147  29.490  0.00  0.00    -0.317 OA
BRANCH  57  58
ATOM     58  C29 non d ame     -36.077   6.364  30.073  0.00  0.00     0.052 C 
ATOM     59  H47 non d ame     -36.774   6.418  29.237  0.00  0.00     0.082 H 
ATOM     60  H48 non d ame     -36.192   5.588  30.830  0.00  0.00     0.082 H 
BRANCH  58  61
ATOM     61  C35 non d ame     -36.054   7.743  30.784  0.00  0.00    -0.034 A 
ATOM     62  C30 non d ame     -36.862   8.778  30.323  0.00  0.00    -0.075 A 
ATOM     63  C31 non d ame     -36.842  10.017  30.961  0.00  0.00    -0.082 A 
ATOM     64  H49 non d ame     -37.510   8.618  29.461  0.00  0.00     0.084 H 
ATOM     65  C32 non d ame     -36.008  10.220  32.064  0.00  0.00    -0.083 A 
ATOM     66  H50 non d ame     -37.477  10.826  30.598  0.00  0.00     0.083 H 
ATOM     67  C33 non d ame     -35.202   9.186  32.519  0.00  0.00    -0.082 A 
ATOM     68  H51 non d ame     -35.987  11.186  32.570  0.00  0.00     0.083 H 
ATOM     69  C34 non d ame     -35.220   7.945  31.885  0.00  0.00    -0.075 A 
ATOM     70  H52 non d ame     -34.551   9.348  33.379  0.00  0.00     0.083 H 
ATOM     71  H53 non d ame     -34.585   7.137  32.249  0.00  0.00     0.084 H 
ENDBRANCH  58  61
ENDBRANCH  57  58
ENDBRANCH  55  57
ENDBRANCH  52  55
ENDBRANCH  49  52
ENDBRANCH  47  49
BRANCH  47  72
ATOM     72  C24 non d ame     -32.117   5.756  24.309  0.00  0.00    -0.039 C 
ATOM     73  H35 non d ame     -31.051   5.985  24.294  0.00  0.00     0.036 H 
ATOM     74  H36 non d ame     -32.464   4.798  24.697  0.00  0.00     0.036 H 
BRANCH  72  75
ATOM     75  C25 non d ame     -32.647   5.875  22.801  0.00  0.00    -0.001 C 
ATOM     76  C26 non d ame     -33.207   4.416  22.288  0.00  0.00    -0.035 C 
ATOM     77  C27 non d ame     -32.625   4.118  21.102  0.00  0.00     0.085 C 
ATOM     78  H38 non d ame     -32.853   3.626  22.950  0.00  0.00     0.036 H 
ATOM     79  H39 non d ame     -34.266   4.487  22.042  0.00  0.00     0.036 H 
ATOM     80  N5  non d ame     -31.478   5.082  20.918  0.00  0.00    -0.049 N 
ATOM     81  H40 non d ame     -32.227   3.110  21.217  0.00  0.00     0.075 H 
ATOM     82  H41 non d ame     -33.384   4.321  20.347  0.00  0.00     0.075 H 
ATOM     83  C28 non d ame     -31.706   6.255  22.004  0.00  0.00     0.193 C 
ATOM     84  H42 non d ame     -30.638   4.578  21.161  0.00  0.00     0.280 HD
ATOM     85  H43 non d ame     -31.581   5.476  19.993  0.00  0.00     0.280 HD
ATOM     86  H44 non d ame     -32.089   7.228  21.695  0.00  0.00     0.129 H 
ATOM     87  H37 non d ame     -33.302   6.735  22.660  0.00  0.00     0.046 H 
BRANCH  83  88
ATOM     88  O6  non d ame     -30.487   6.527  22.699  0.00  0.00    -0.369 OA
ATOM     89  H45 non d ame     -30.431   7.466  22.890  0.00  0.00     0.212 HD
ENDBRANCH  83  88
ENDBRANCH  72  75
ENDBRANCH  47  72
ENDBRANCH  45  47
ENDBRANCH   1  43
BRANCH   1  90
ATOM     90  C16 non d ame     -30.764  10.500  24.152  0.00  0.00    -0.035 C 
ATOM     91  H21 non d ame     -30.315  11.336  24.687  0.00  0.00     0.037 H 
ATOM     92  H22 non d ame     -30.557   9.477  24.466  0.00  0.00     0.037 H 
BRANCH  90  93
ATOM     93  C17 non d ame     -30.278  10.614  22.672  0.00  0.00    -0.059 C 
ATOM     94  H23 non d ame     -31.143  10.456  22.027  0.00  0.00     0.038 H 
BRANCH  93  95
ATOM     95  C18 non d ame     -29.695  12.027  22.349  0.00  0.00    -0.073 C 
ATOM     96  H24 non d ame     -29.952  12.301  21.327  0.00  0.00     0.028 H 
ATOM     97  H25 non d ame     -30.116  12.759  23.038  0.00  0.00     0.028 H 
ATOM     98  H26 non d ame     -28.611  12.006  22.459  0.00  0.00     0.028 H 
ENDBRANCH  93  95
BRANCH  93  99
ATOM     99  C19 non d ame     -29.261   9.517  22.344  0.00  0.00    -0.073 C 
ATOM    100  H27 non d ame     -28.266   9.955  22.269  0.00  0.00     0.028 H 
ATOM    101  H28 non d ame     -29.268   8.766  23.135  0.00  0.00     0.028 H 
ATOM    102  H29 non d ame     -29.525   9.048  21.397  0.00  0.00     0.028 H 
ENDBRANCH  93  99
ENDBRANCH  90  93
ENDBRANCH   1  90
TORSDOF 26
ENDMDL
MODEL 11
REMARK VINA RESULT:      -6.3      2.672      6.853
REMARK  26 active torsions:
REMARK  status: ('A' for Active; 'I' for Inactive)
REMARK    1  A    between atoms: C2_2  and  C3_3 
REMARK    2  A    between atoms: C4_6  and  C5_7 
REMARK       I    between atoms: C5_7  and  N2_9 
REMARK    3  A    between atoms: N2_9  and  C6_10 
REMARK    4  A    between atoms: C6_10  and  C7_11 
REMARK    5  A    between atoms: C6_10  and  C8_13 
REMARK       I    between atoms: C7_11  and  N3_14 
REMARK    6  A    between atoms: N3_14  and  C9_15 
REMARK    7  A    between atoms: C9_15  and  C10_16 
REMARK    8  A    between atoms: C9_15  and  C11_18 
REMARK       I    between atoms: C10_16  and  N4_21 
REMARK    9  A    between atoms: C11_18  and  C12_19 
REMARK   10  A    between atoms: C11_18  and  C13_20 
REMARK   11  A    between atoms: N4_21  and  C14_22 
REMARK   12  A    between atoms: C14_22  and  C15_23 
REMARK   13  A    between atoms: C14_22  and  C16_25 
REMARK       I    between atoms: C15_23  and  N6_40 
REMARK   14  A    between atoms: C16_25  and  C17_26 
REMARK   15  A    between atoms: C17_26  and  C18_27 
REMARK   16  A    between atoms: C17_26  and  C19_28 
REMARK   17  A    between atoms: C20_29  and  C21_30 
REMARK   18  A    between atoms: C20_29  and  C24_33 
REMARK   19  A    between atoms: C20_29  and  N6_40 
REMARK   20  A    between atoms: C21_30  and  C22_31 
REMARK   21  A    between atoms: C22_31  and  C23_32 
REMARK   22  A    between atoms: C23_32  and  O8_43 
REMARK   23  A    between atoms: C24_33  and  C25_34 
REMARK   24  A    between atoms: C28_38  and  O6_39 
REMARK   25  A    between atoms: C29_42  and  O8_43 
REMARK   26  A    between atoms: C29_42  and  C35_49 
ROOT
ATOM      1  C14 non d ame     -34.796  10.163  28.843  0.00  0.00     0.089 C 
ATOM      2  H20 non d ame     -35.886  10.164  28.856  0.00  0.00     0.087 H 
ENDROOT
BRANCH   1   3
ATOM      3  N4  non d ame     -34.367   8.916  28.227  0.00  0.00    -0.346 N 
ATOM      4  C10 non d ame     -35.373   7.841  27.903  0.00  0.00     0.241 C 
ATOM      5  O4  non d ame     -36.523   8.001  28.150  0.00  0.00    -0.271 OA
ATOM      6  H19 non d ame     -33.384   8.798  28.027  0.00  0.00     0.163 HD
BRANCH   4   7
ATOM      7  C9  non d ame     -34.912   6.559  27.260  0.00  0.00     0.092 C 
ATOM      8  H11 non d ame     -35.733   5.842  27.262  0.00  0.00     0.088 H 
BRANCH   7   9
ATOM      9  N3  non d ame     -34.561   6.812  25.860  0.00  0.00    -0.346 N 
ATOM     10  C7  non d ame     -35.479   6.446  24.809  0.00  0.00     0.240 C 
ATOM     11  O3  non d ame     -36.504   5.945  25.073  0.00  0.00    -0.271 OA
ATOM     12  H10 non d ame     -33.680   7.242  25.616  0.00  0.00     0.163 HD
BRANCH  10  13
ATOM     13  C6  non d ame     -35.099   6.715  23.320  0.00  0.00     0.086 C 
ATOM     14  H6  non d ame     -35.613   7.581  22.904  0.00  0.00     0.086 H 
BRANCH  13  15
ATOM     15  N2  non d ame     -33.675   7.000  23.241  0.00  0.00    -0.343 N 
ATOM     16  C5  non d ame     -33.227   8.322  22.798  0.00  0.00     0.273 C 
ATOM     17  O2  non d ame     -34.019   9.148  22.505  0.00  0.00    -0.266 OA
ATOM     18  H5  non d ame     -33.005   6.286  23.491  0.00  0.00     0.163 HD
BRANCH  16  19
ATOM     19  C4  non d ame     -31.726   8.636  22.712  0.00  0.00     0.154 A 
ATOM     20  C1  non d ame     -30.654   7.701  22.556  0.00  0.00    -0.017 A 
ATOM     21  C2  non d ame     -29.483   8.491  22.532  0.00  0.00     0.077 A 
ATOM     22  H1  non d ame     -30.716   6.616  22.474  0.00  0.00     0.091 H 
ATOM     23  O1  non d ame     -29.850   9.733  22.658  0.00  0.00    -0.218 OA
ATOM     24  N1  non d ame     -31.154   9.843  22.765  0.00  0.00    -0.123 NA
BRANCH  21  25
ATOM     25  C3  non d ame     -28.055   7.982  22.385  0.00  0.00    -0.029 C 
ATOM     26  H2  non d ame     -27.556   8.013  23.353  0.00  0.00     0.036 H 
ATOM     27  H3  non d ame     -28.071   6.957  22.018  0.00  0.00     0.036 H 
ATOM     28  H4  non d ame     -27.516   8.613  21.678  0.00  0.00     0.036 H 
ENDBRANCH  21  25
ENDBRANCH  16  19
ENDBRANCH  13  15
BRANCH  13  29
ATOM     29  C8  non d ame     -35.431   5.504  22.486  0.00  0.00    -0.049 C 
ATOM     30  H7  non d ame     -35.686   5.818  21.474  0.00  0.00     0.030 H 
ATOM     31  H8  non d ame     -34.568   4.839  22.454  0.00  0.00     0.030 H 
ATOM     32  H9  non d ame     -36.278   4.980  22.928  0.00  0.00     0.030 H 
ENDBRANCH  13  29
ENDBRANCH  10  13
ENDBRANCH   7   9
BRANCH   7  33
ATOM     33  C11 non d ame     -33.662   6.020  28.016  0.00  0.00    -0.033 C 
ATOM     34  H12 non d ame     -33.176   6.870  28.495  0.00  0.00     0.042 H 
BRANCH  33  35
ATOM     35  C12 non d ame     -34.067   5.016  29.140  0.00  0.00    -0.071 C 
ATOM     36  H13 non d ame     -33.969   5.500  30.112  0.00  0.00     0.028 H 
ATOM     37  H14 non d ame     -35.100   4.702  28.993  0.00  0.00     0.028 H 
ATOM     38  H15 non d ame     -33.413   4.145  29.102  0.00  0.00     0.028 H 
ENDBRANCH  33  35
BRANCH  33  39
ATOM     39  C13 non d ame     -32.642   5.377  27.022  0.00  0.00    -0.071 C 
ATOM     40  H16 non d ame     -33.131   4.575  26.468  0.00  0.00     0.028 H 
ATOM     41  H17 non d ame     -32.286   6.136  26.325  0.00  0.00     0.028 H 
ATOM     42  H18 non d ame     -31.798   4.972  27.580  0.00  0.00     0.028 H 
ENDBRANCH  33  39
ENDBRANCH   7  33
ENDBRANCH   4   7
ENDBRANCH   1   3
BRANCH   1  43
ATOM     43  C15 non d ame     -34.216  11.348  28.018  0.00  0.00     0.240 C 
ATOM     44  O5  non d ame     -34.280  11.329  26.832  0.00  0.00    -0.271 OA
ATOM     45  N6  non d ame     -33.589  12.510  28.709  0.00  0.00    -0.355 N 
ATOM     46  H46 non d ame     -33.534  12.540  29.717  0.00  0.00     0.162 HD
BRANCH  45  47
ATOM     47  C20 non d ame     -33.044  13.630  27.911  0.00  0.00     0.013 C 
ATOM     48  H30 non d ame     -33.580  13.658  26.962  0.00  0.00     0.072 H 
BRANCH  47  49
ATOM     49  C21 non d ame     -31.571  13.397  27.665  0.00  0.00    -0.038 C 
ATOM     50  H31 non d ame     -31.139  13.181  28.643  0.00  0.00     0.036 H 
ATOM     51  H32 non d ame     -31.519  12.653  26.870  0.00  0.00     0.036 H 
BRANCH  49  52
ATOM     52  C22 non d ame     -30.845  14.653  27.136  0.00  0.00     0.018 C 
ATOM     53  H33 non d ame     -31.011  15.427  27.885  0.00  0.00     0.048 H 
ATOM     54  H34 non d ame     -29.831  14.331  26.899  0.00  0.00     0.048 H 
BRANCH  52  55
ATOM     55  C23 non d ame     -31.439  15.207  25.811  0.00  0.00     0.259 C 
ATOM     56  O7  non d ame     -31.431  16.374  25.588  0.00  0.00    -0.265 OA
BRANCH  55  57
ATOM     57  O8  non d ame     -32.005  14.304  24.870  0.00  0.00    -0.317 OA
BRANCH  57  58
ATOM     58  C29 non d ame     -31.039  13.583  24.099  0.00  0.00     0.052 C 
ATOM     59  H47 non d ame     -30.202  13.400  24.774  0.00  0.00     0.082 H 
ATOM     60  H48 non d ame     -31.578  12.745  23.659  0.00  0.00     0.082 H 
BRANCH  58  61
ATOM     61  C35 non d ame     -30.552  14.510  22.954  0.00  0.00    -0.034 A 
ATOM     62  C30 non d ame     -31.477  15.151  22.135  0.00  0.00    -0.075 A 
ATOM     63  C31 non d ame     -31.041  15.983  21.106  0.00  0.00    -0.082 A 
ATOM     64  H49 non d ame     -32.544  15.000  22.300  0.00  0.00     0.084 H 
ATOM     65  C32 non d ame     -29.672  16.172  20.895  0.00  0.00    -0.083 A 
ATOM     66  H50 non d ame     -31.768  16.485  20.467  0.00  0.00     0.083 H 
ATOM     67  C33 non d ame     -28.753  15.529  21.712  0.00  0.00    -0.082 A 
ATOM     68  H51 non d ame     -29.322  16.822  20.093  0.00  0.00     0.083 H 
ATOM     69  C34 non d ame     -29.185  14.697  22.743  0.00  0.00    -0.075 A 
ATOM     70  H52 non d ame     -27.686  15.677  21.543  0.00  0.00     0.083 H 
ATOM     71  H53 non d ame     -28.457  14.196  23.381  0.00  0.00     0.084 H 
ENDBRANCH  58  61
ENDBRANCH  57  58
ENDBRANCH  55  57
ENDBRANCH  52  55
ENDBRANCH  49  52
ENDBRANCH  47  49
BRANCH  47  72
ATOM     72  C24 non d ame     -33.234  14.943  28.667  0.00  0.00    -0.039 C 
ATOM     73  H35 non d ame     -33.514  14.657  29.681  0.00  0.00     0.036 H 
ATOM     74  H36 non d ame     -32.320  15.512  28.495  0.00  0.00     0.036 H 
BRANCH  72  75
ATOM     75  C25 non d ame     -34.445  15.803  28.066  0.00  0.00    -0.001 C 
ATOM     76  C26 non d ame     -34.927  15.164  26.630  0.00  0.00    -0.035 C 
ATOM     77  C27 non d ame     -34.960  16.152  25.703  0.00  0.00     0.085 C 
ATOM     78  H38 non d ame     -34.166  14.483  26.250  0.00  0.00     0.036 H 
ATOM     79  H39 non d ame     -35.966  14.840  26.694  0.00  0.00     0.036 H 
ATOM     80  N5  non d ame     -34.233  17.336  26.293  0.00  0.00    -0.049 N 
ATOM     81  H40 non d ame     -34.392  15.772  24.853  0.00  0.00     0.075 H 
ATOM     82  H41 non d ame     -36.013  16.404  25.584  0.00  0.00     0.075 H 
ATOM     83  C28 non d ame     -34.096  17.031  27.872  0.00  0.00     0.193 C 
ATOM     84  H42 non d ame     -33.310  17.338  25.884  0.00  0.00     0.280 HD
ATOM     85  H43 non d ame     -34.841  18.133  26.171  0.00  0.00     0.280 HD
ATOM     86  H44 non d ame     -34.740  17.536  28.592  0.00  0.00     0.129 H 
ATOM     87  H37 non d ame     -35.221  15.997  28.808  0.00  0.00     0.046 H 
BRANCH  83  88
ATOM     88  O6  non d ame     -32.760  17.287  28.309  0.00  0.00    -0.369 OA
ATOM     89  H45 non d ame     -32.479  18.148  27.991  0.00  0.00     0.212 HD
ENDBRANCH  83  88
ENDBRANCH  72  75
ENDBRANCH  47  72
ENDBRANCH  45  47
ENDBRANCH   1  43
BRANCH   1  90
ATOM     90  C16 non d ame     -34.264  10.222  30.266  0.00  0.00    -0.035 C 
ATOM     91  H21 non d ame     -33.454   9.494  30.302  0.00  0.00     0.037 H 
ATOM     92  H22 non d ame     -34.059  11.276  30.454  0.00  0.00     0.037 H 
BRANCH  90  93
ATOM     93  C17 non d ame     -35.304   9.775  31.342  0.00  0.00    -0.059 C 
ATOM     94  H23 non d ame     -36.299   9.935  30.927  0.00  0.00     0.038 H 
BRANCH  93  95
ATOM     95  C18 non d ame     -35.173   8.259  31.696  0.00  0.00    -0.073 C 
ATOM     96  H24 non d ame     -35.208   8.134  32.777  0.00  0.00     0.028 H 
ATOM     97  H25 non d ame     -35.995   7.707  31.240  0.00  0.00     0.028 H 
ATOM     98  H26 non d ame     -34.225   7.879  31.316  0.00  0.00     0.028 H 
ENDBRANCH  93  95
BRANCH  93  99
ATOM     99  C19 non d ame     -35.193  10.640  32.601  0.00  0.00    -0.073 C 
ATOM    100  H27 non d ame     -34.188  10.552  33.015  0.00  0.00     0.028 H 
ATOM    101  H28 non d ame     -35.391  11.681  32.346  0.00  0.00     0.028 H 
ATOM    102  H29 non d ame     -35.921  10.302  33.339  0.00  0.00     0.028 H 
ENDBRANCH  93  99
ENDBRANCH  90  93
ENDBRANCH   1  90
TORSDOF 26
ENDMDL
MODEL 12
REMARK VINA RESULT:      -6.3      2.681      7.088
REMARK  26 active torsions:
REMARK  status: ('A' for Active; 'I' for Inactive)
REMARK    1  A    between atoms: C2_2  and  C3_3 
REMARK    2  A    between atoms: C4_6  and  C5_7 
REMARK       I    between atoms: C5_7  and  N2_9 
REMARK    3  A    between atoms: N2_9  and  C6_10 
REMARK    4  A    between atoms: C6_10  and  C7_11 
REMARK    5  A    between atoms: C6_10  and  C8_13 
REMARK       I    between atoms: C7_11  and  N3_14 
REMARK    6  A    between atoms: N3_14  and  C9_15 
REMARK    7  A    between atoms: C9_15  and  C10_16 
REMARK    8  A    between atoms: C9_15  and  C11_18 
REMARK       I    between atoms: C10_16  and  N4_21 
REMARK    9  A    between atoms: C11_18  and  C12_19 
REMARK   10  A    between atoms: C11_18  and  C13_20 
REMARK   11  A    between atoms: N4_21  and  C14_22 
REMARK   12  A    between atoms: C14_22  and  C15_23 
REMARK   13  A    between atoms: C14_22  and  C16_25 
REMARK       I    between atoms: C15_23  and  N6_40 
REMARK   14  A    between atoms: C16_25  and  C17_26 
REMARK   15  A    between atoms: C17_26  and  C18_27 
REMARK   16  A    between atoms: C17_26  and  C19_28 
REMARK   17  A    between atoms: C20_29  and  C21_30 
REMARK   18  A    between atoms: C20_29  and  C24_33 
REMARK   19  A    between atoms: C20_29  and  N6_40 
REMARK   20  A    between atoms: C21_30  and  C22_31 
REMARK   21  A    between atoms: C22_31  and  C23_32 
REMARK   22  A    between atoms: C23_32  and  O8_43 
REMARK   23  A    between atoms: C24_33  and  C25_34 
REMARK   24  A    between atoms: C28_38  and  O6_39 
REMARK   25  A    between atoms: C29_42  and  O8_43 
REMARK   26  A    between atoms: C29_42  and  C35_49 
ROOT
ATOM      1  C14 non d ame     -33.058  12.294  28.540  0.00  0.00     0.089 C 
ATOM      2  H20 non d ame     -33.142  12.741  29.531  0.00  0.00     0.087 H 
ENDROOT
BRANCH   1   3
ATOM      3  N4  non d ame     -33.766  11.023  28.571  0.00  0.00    -0.346 N 
ATOM      4  C10 non d ame     -33.968  10.295  29.876  0.00  0.00     0.241 C 
ATOM      5  O4  non d ame     -33.549  10.751  30.889  0.00  0.00    -0.271 OA
ATOM      6  H19 non d ame     -34.113  10.651  27.698  0.00  0.00     0.163 HD
BRANCH   4   7
ATOM      7  C9  non d ame     -34.709   8.984  29.890  0.00  0.00     0.092 C 
ATOM      8  H11 non d ame     -35.682   9.116  29.418  0.00  0.00     0.088 H 
BRANCH   7   9
ATOM      9  N3  non d ame     -33.971   7.997  29.095  0.00  0.00    -0.346 N 
ATOM     10  C7  non d ame     -34.565   7.444  27.903  0.00  0.00     0.240 C 
ATOM     11  O3  non d ame     -35.636   7.780  27.570  0.00  0.00    -0.271 OA
ATOM     12  H10 non d ame     -33.048   7.696  29.371  0.00  0.00     0.163 HD
BRANCH  10  13
ATOM     13  C6  non d ame     -33.777   6.392  27.062  0.00  0.00     0.086 C 
ATOM     14  H6  non d ame     -34.417   5.832  26.380  0.00  0.00     0.086 H 
BRANCH  13  15
ATOM     15  N2  non d ame     -32.798   7.084  26.241  0.00  0.00    -0.343 N 
ATOM     16  C5  non d ame     -32.857   6.952  24.783  0.00  0.00     0.273 C 
ATOM     17  O2  non d ame     -33.695   6.286  24.282  0.00  0.00    -0.266 OA
ATOM     18  H5  non d ame     -32.084   7.649  26.678  0.00  0.00     0.163 HD
BRANCH  16  19
ATOM     19  C4  non d ame     -31.829   7.679  23.902  0.00  0.00     0.154 A 
ATOM     20  C1  non d ame     -31.579   9.087  23.847  0.00  0.00    -0.017 A 
ATOM     21  C2  non d ame     -30.550   9.236  22.891  0.00  0.00     0.077 A 
ATOM     22  H1  non d ame     -32.070   9.879  24.413  0.00  0.00     0.091 H 
ATOM     23  O1  non d ame     -30.250   8.048  22.456  0.00  0.00    -0.218 OA
ATOM     24  N1  non d ame     -30.983   7.122  23.031  0.00  0.00    -0.123 NA
BRANCH  21  25
ATOM     25  C3  non d ame     -29.909  10.547  22.453  0.00  0.00    -0.029 C 
ATOM     26  H2  non d ame     -29.411  10.405  21.494  0.00  0.00     0.036 H 
ATOM     27  H3  non d ame     -30.680  11.311  22.352  0.00  0.00     0.036 H 
ATOM     28  H4  non d ame     -29.180  10.862  23.199  0.00  0.00     0.036 H 
ENDBRANCH  21  25
ENDBRANCH  16  19
ENDBRANCH  13  15
BRANCH  13  29
ATOM     29  C8  non d ame     -33.085   5.423  27.986  0.00  0.00    -0.049 C 
ATOM     30  H7  non d ame     -32.479   4.731  27.400  0.00  0.00     0.030 H 
ATOM     31  H8  non d ame     -32.443   5.973  28.675  0.00  0.00     0.030 H 
ATOM     32  H9  non d ame     -33.830   4.864  28.552  0.00  0.00     0.030 H 
ENDBRANCH  13  29
ENDBRANCH  10  13
ENDBRANCH   7   9
BRANCH   7  33
ATOM     33  C11 non d ame     -34.834   8.475  31.356  0.00  0.00    -0.033 C 
ATOM     34  H12 non d ame     -33.877   8.652  31.848  0.00  0.00     0.042 H 
BRANCH  33  35
ATOM     35  C12 non d ame     -35.920   9.271  32.144  0.00  0.00    -0.071 C 
ATOM     36  H13 non d ame     -35.520   9.572  33.112  0.00  0.00     0.028 H 
ATOM     37  H14 non d ame     -36.203  10.158  31.577  0.00  0.00     0.028 H 
ATOM     38  H15 non d ame     -36.796   8.640  32.293  0.00  0.00     0.028 H 
ENDBRANCH  33  35
BRANCH  33  39
ATOM     39  C13 non d ame     -35.119   6.939  31.393  0.00  0.00    -0.071 C 
ATOM     40  H16 non d ame     -36.196   6.770  31.387  0.00  0.00     0.028 H 
ATOM     41  H17 non d ame     -34.672   6.465  30.519  0.00  0.00     0.028 H 
ATOM     42  H18 non d ame     -34.688   6.511  32.298  0.00  0.00     0.028 H 
ENDBRANCH  33  39
ENDBRANCH   7  33
ENDBRANCH   4   7
ENDBRANCH   1   3
BRANCH   1  43
ATOM     43  C15 non d ame     -33.693  13.188  27.436  0.00  0.00     0.240 C 
ATOM     44  O5  non d ame     -33.407  13.012  26.296  0.00  0.00    -0.271 OA
ATOM     45  N6  non d ame     -34.664  14.258  27.800  0.00  0.00    -0.355 N 
ATOM     46  H46 non d ame     -34.918  14.414  28.765  0.00  0.00     0.162 HD
BRANCH  45  47
ATOM     47  C20 non d ame     -35.260  15.099  26.739  0.00  0.00     0.013 C 
ATOM     48  H30 non d ame     -34.669  14.965  25.833  0.00  0.00     0.072 H 
BRANCH  47  49
ATOM     49  C21 non d ame     -35.224  16.548  27.170  0.00  0.00    -0.038 C 
ATOM     50  H31 non d ame     -36.217  16.943  26.958  0.00  0.00     0.036 H 
ATOM     51  H32 non d ame     -34.845  16.541  28.192  0.00  0.00     0.036 H 
BRANCH  49  52
ATOM     52  C22 non d ame     -34.232  17.394  26.343  0.00  0.00     0.018 C 
ATOM     53  H33 non d ame     -34.626  17.402  25.327  0.00  0.00     0.048 H 
ATOM     54  H34 non d ame     -34.115  18.330  26.890  0.00  0.00     0.048 H 
BRANCH  52  55
ATOM     55  C23 non d ame     -32.810  16.775  26.245  0.00  0.00     0.259 C 
ATOM     56  O7  non d ame     -32.203  16.500  27.229  0.00  0.00    -0.265 OA
BRANCH  55  57
ATOM     57  O8  non d ame     -32.234  16.551  24.964  0.00  0.00    -0.317 OA
BRANCH  57  58
ATOM     58  C29 non d ame     -31.087  15.697  24.982  0.00  0.00     0.052 C 
ATOM     59  H47 non d ame     -30.294  16.279  25.453  0.00  0.00     0.082 H 
ATOM     60  H48 non d ame     -31.420  14.764  25.436  0.00  0.00     0.082 H 
BRANCH  58  61
ATOM     61  C35 non d ame     -30.679  15.411  23.512  0.00  0.00    -0.034 A 
ATOM     62  C30 non d ame     -29.904  14.296  23.209  0.00  0.00    -0.075 A 
ATOM     63  C31 non d ame     -29.538  14.038  21.889  0.00  0.00    -0.082 A 
ATOM     64  H49 non d ame     -29.584  13.624  24.005  0.00  0.00     0.084 H 
ATOM     65  C32 non d ame     -29.947  14.903  20.870  0.00  0.00    -0.083 A 
ATOM     66  H50 non d ame     -28.932  13.163  21.654  0.00  0.00     0.083 H 
ATOM     67  C33 non d ame     -30.717  16.016  21.178  0.00  0.00    -0.082 A 
ATOM     68  H51 non d ame     -29.665  14.709  19.835  0.00  0.00     0.083 H 
ATOM     69  C34 non d ame     -31.087  16.276  22.496  0.00  0.00    -0.075 A 
ATOM     70  H52 non d ame     -31.033  16.690  20.381  0.00  0.00     0.083 H 
ATOM     71  H53 non d ame     -31.693  17.152  22.729  0.00  0.00     0.084 H 
ENDBRANCH  58  61
ENDBRANCH  57  58
ENDBRANCH  55  57
ENDBRANCH  52  55
ENDBRANCH  49  52
ENDBRANCH  47  49
BRANCH  47  72
ATOM     72  C24 non d ame     -36.707  14.675  26.496  0.00  0.00    -0.039 C 
ATOM     73  H35 non d ame     -37.063  14.294  27.454  0.00  0.00     0.036 H 
ATOM     74  H36 non d ame     -37.190  15.540  26.040  0.00  0.00     0.036 H 
BRANCH  72  75
ATOM     75  C25 non d ame     -36.803  13.471  25.444  0.00  0.00    -0.001 C 
ATOM     76  C26 non d ame     -37.929  13.818  24.296  0.00  0.00    -0.035 C 
ATOM     77  C27 non d ame     -38.786  12.774  24.196  0.00  0.00     0.085 C 
ATOM     78  H38 non d ame     -38.563  14.638  24.632  0.00  0.00     0.036 H 
ATOM     79  H39 non d ame     -37.460  13.859  23.313  0.00  0.00     0.036 H 
ATOM     80  N5  non d ame     -38.545  11.888  25.394  0.00  0.00    -0.049 N 
ATOM     81  H40 non d ame     -39.783  13.209  24.269  0.00  0.00     0.075 H 
ATOM     82  H41 non d ame     -38.489  12.240  23.294  0.00  0.00     0.075 H 
ATOM     83  C28 non d ame     -37.139  12.368  26.025  0.00  0.00     0.193 C 
ATOM     84  H42 non d ame     -39.281  12.094  26.054  0.00  0.00     0.280 HD
ATOM     85  H43 non d ame     -38.434  10.950  25.037  0.00  0.00     0.280 HD
ATOM     86  H44 non d ame     -36.234  11.780  25.872  0.00  0.00     0.129 H 
ATOM     87  H37 non d ame     -35.822  13.148  25.095  0.00  0.00     0.046 H 
BRANCH  83  88
ATOM     88  O6  non d ame     -37.260  12.520  27.441  0.00  0.00    -0.369 OA
ATOM     89  H45 non d ame     -37.705  11.752  27.808  0.00  0.00     0.212 HD
ENDBRANCH  83  88
ENDBRANCH  72  75
ENDBRANCH  47  72
ENDBRANCH  45  47
ENDBRANCH   1  43
BRANCH   1  90
ATOM     90  C16 non d ame     -31.595  12.039  28.213  0.00  0.00    -0.035 C 
ATOM     91  H21 non d ame     -31.457  10.964  28.325  0.00  0.00     0.037 H 
ATOM     92  H22 non d ame     -31.430  12.511  27.244  0.00  0.00     0.037 H 
BRANCH  90  93
ATOM     93  C17 non d ame     -30.603  12.717  29.210  0.00  0.00    -0.059 C 
ATOM     94  H23 non d ame     -29.592  12.545  28.839  0.00  0.00     0.038 H 
BRANCH  93  95
ATOM     95  C18 non d ame     -30.820  14.262  29.299  0.00  0.00    -0.073 C 
ATOM     96  H24 non d ame     -31.637  14.475  29.989  0.00  0.00     0.028 H 
ATOM     97  H25 non d ame     -29.908  14.737  29.659  0.00  0.00     0.028 H 
ATOM     98  H26 non d ame     -31.068  14.651  28.312  0.00  0.00     0.028 H 
ENDBRANCH  93  95
BRANCH  93  99
ATOM     99  C19 non d ame     -30.695  12.073  30.596  0.00  0.00    -0.073 C 
ATOM    100  H27 non d ame     -29.956  12.527  31.257  0.00  0.00     0.028 H 
ATOM    101  H28 non d ame     -31.693  12.230  31.004  0.00  0.00     0.028 H 
ATOM    102  H29 non d ame     -30.501  11.004  30.513  0.00  0.00     0.028 H 
ENDBRANCH  93  99
ENDBRANCH  90  93
ENDBRANCH   1  90
TORSDOF 26
ENDMDL
MODEL 13
REMARK VINA RESULT:      -6.3      2.959      5.489
REMARK  26 active torsions:
REMARK  status: ('A' for Active; 'I' for Inactive)
REMARK    1  A    between atoms: C2_2  and  C3_3 
REMARK    2  A    between atoms: C4_6  and  C5_7 
REMARK       I    between atoms: C5_7  and  N2_9 
REMARK    3  A    between atoms: N2_9  and  C6_10 
REMARK    4  A    between atoms: C6_10  and  C7_11 
REMARK    5  A    between atoms: C6_10  and  C8_13 
REMARK       I    between atoms: C7_11  and  N3_14 
REMARK    6  A    between atoms: N3_14  and  C9_15 
REMARK    7  A    between atoms: C9_15  and  C10_16 
REMARK    8  A    between atoms: C9_15  and  C11_18 
REMARK       I    between atoms: C10_16  and  N4_21 
REMARK    9  A    between atoms: C11_18  and  C12_19 
REMARK   10  A    between atoms: C11_18  and  C13_20 
REMARK   11  A    between atoms: N4_21  and  C14_22 
REMARK   12  A    between atoms: C14_22  and  C15_23 
REMARK   13  A    between atoms: C14_22  and  C16_25 
REMARK       I    between atoms: C15_23  and  N6_40 
REMARK   14  A    between atoms: C16_25  and  C17_26 
REMARK   15  A    between atoms: C17_26  and  C18_27 
REMARK   16  A    between atoms: C17_26  and  C19_28 
REMARK   17  A    between atoms: C20_29  and  C21_30 
REMARK   18  A    between atoms: C20_29  and  C24_33 
REMARK   19  A    between atoms: C20_29  and  N6_40 
REMARK   20  A    between atoms: C21_30  and  C22_31 
REMARK   21  A    between atoms: C22_31  and  C23_32 
REMARK   22  A    between atoms: C23_32  and  O8_43 
REMARK   23  A    between atoms: C24_33  and  C25_34 
REMARK   24  A    between atoms: C28_38  and  O6_39 
REMARK   25  A    between atoms: C29_42  and  O8_43 
REMARK   26  A    between atoms: C29_42  and  C35_49 
ROOT
ATOM      1  C14 non d ame     -32.117   9.554  25.025  0.00  0.00     0.089 C 
ATOM      2  H20 non d ame     -31.362   8.796  25.235  0.00  0.00     0.087 H 
ENDROOT
BRANCH   1   3
ATOM      3  N4  non d ame     -33.382   9.074  25.561  0.00  0.00    -0.346 N 
ATOM      4  C10 non d ame     -33.557   7.618  25.911  0.00  0.00     0.241 C 
ATOM      5  O4  non d ame     -32.667   6.850  25.749  0.00  0.00    -0.271 OA
ATOM      6  H19 non d ame     -34.128   9.743  25.690  0.00  0.00     0.163 HD
BRANCH   4   7
ATOM      7  C9  non d ame     -34.872   7.139  26.470  0.00  0.00     0.092 C 
ATOM      8  H11 non d ame     -34.795   6.078  26.707  0.00  0.00     0.088 H 
BRANCH   7   9
ATOM      9  N3  non d ame     -35.155   7.844  27.724  0.00  0.00    -0.346 N 
ATOM     10  C7  non d ame     -34.807   7.237  28.986  0.00  0.00     0.240 C 
ATOM     11  O3  non d ame     -34.301   6.182  29.010  0.00  0.00    -0.271 OA
ATOM     12  H10 non d ame     -35.593   8.754  27.719  0.00  0.00     0.163 HD
BRANCH  10  13
ATOM     13  C6  non d ame     -35.114   7.991  30.317  0.00  0.00     0.086 C 
ATOM     14  H6  non d ame     -35.129   7.328  31.182  0.00  0.00     0.086 H 
BRANCH  13  15
ATOM     15  N2  non d ame     -34.065   8.967  30.559  0.00  0.00    -0.343 N 
ATOM     16  C5  non d ame     -34.050  10.214  29.792  0.00  0.00     0.273 C 
ATOM     17  O2  non d ame     -34.885  10.422  28.981  0.00  0.00    -0.266 OA
ATOM     18  H5  non d ame     -33.354   8.780  31.252  0.00  0.00     0.163 HD
BRANCH  16  19
ATOM     19  C4  non d ame     -32.948  11.256  30.038  0.00  0.00     0.154 A 
ATOM     20  C1  non d ame     -32.693  12.441  29.277  0.00  0.00    -0.017 A 
ATOM     21  C2  non d ame     -31.583  13.047  29.909  0.00  0.00     0.077 A 
ATOM     22  H1  non d ame     -33.230  12.806  28.402  0.00  0.00     0.091 H 
ATOM     23  O1  non d ame     -31.250  12.291  30.914  0.00  0.00    -0.218 OA
ATOM     24  N1  non d ame     -32.031  11.240  31.010  0.00  0.00    -0.123 NA
BRANCH  21  25
ATOM     25  C3  non d ame     -30.906  14.345  29.491  0.00  0.00    -0.029 C 
ATOM     26  H2  non d ame     -29.896  14.132  29.142  0.00  0.00     0.036 H 
ATOM     27  H3  non d ame     -31.477  14.810  28.688  0.00  0.00     0.036 H 
ATOM     28  H4  non d ame     -30.860  15.022  30.344  0.00  0.00     0.036 H 
ENDBRANCH  21  25
ENDBRANCH  16  19
ENDBRANCH  13  15
BRANCH  13  29
ATOM     29  C8  non d ame     -36.449   8.683  30.210  0.00  0.00    -0.049 C 
ATOM     30  H7  non d ame     -36.322   9.749  30.399  0.00  0.00     0.030 H 
ATOM     31  H8  non d ame     -36.854   8.538  29.209  0.00  0.00     0.030 H 
ATOM     32  H9  non d ame     -37.137   8.263  30.944  0.00  0.00     0.030 H 
ENDBRANCH  13  29
ENDBRANCH  10  13
ENDBRANCH   7   9
BRANCH   7  33
ATOM     33  C11 non d ame     -36.008   7.430  25.446  0.00  0.00    -0.033 C 
ATOM     34  H12 non d ame     -35.644   8.195  24.760  0.00  0.00     0.042 H 
BRANCH  33  35
ATOM     35  C12 non d ame     -36.348   6.165  24.600  0.00  0.00    -0.071 C 
ATOM     36  H13 non d ame     -37.227   5.673  25.017  0.00  0.00     0.028 H 
ATOM     37  H14 non d ame     -36.551   6.460  23.571  0.00  0.00     0.028 H 
ATOM     38  H15 non d ame     -35.504   5.476  24.620  0.00  0.00     0.028 H 
ENDBRANCH  33  35
BRANCH  33  39
ATOM     39  C13 non d ame     -37.278   7.990  26.165  0.00  0.00    -0.071 C 
ATOM     40  H16 non d ame     -38.111   7.302  26.018  0.00  0.00     0.028 H 
ATOM     41  H17 non d ame     -37.076   8.095  27.231  0.00  0.00     0.028 H 
ATOM     42  H18 non d ame     -37.532   8.964  25.747  0.00  0.00     0.028 H 
ENDBRANCH  33  39
ENDBRANCH   7  33
ENDBRANCH   4   7
ENDBRANCH   1   3
BRANCH   1  43
ATOM     43  C15 non d ame     -31.782  10.918  25.693  0.00  0.00     0.240 C 
ATOM     44  O5  non d ame     -31.065  10.952  26.641  0.00  0.00    -0.271 OA
ATOM     45  N6  non d ame     -32.347  12.184  25.146  0.00  0.00    -0.355 N 
ATOM     46  H46 non d ame     -32.953  12.169  24.339  0.00  0.00     0.162 HD
BRANCH  45  47
ATOM     47  C20 non d ame     -32.017  13.473  25.792  0.00  0.00     0.013 C 
ATOM     48  H30 non d ame     -31.862  13.286  26.855  0.00  0.00     0.072 H 
BRANCH  47  49
ATOM     49  C21 non d ame     -33.166  14.437  25.600  0.00  0.00    -0.038 C 
ATOM     50  H31 non d ame     -32.884  15.068  24.757  0.00  0.00     0.036 H 
ATOM     51  H32 non d ame     -34.062  13.819  25.543  0.00  0.00     0.036 H 
BRANCH  49  52
ATOM     52  C22 non d ame     -33.364  15.382  26.806  0.00  0.00     0.018 C 
ATOM     53  H33 non d ame     -34.419  15.309  27.068  0.00  0.00     0.048 H 
ATOM     54  H34 non d ame     -32.601  15.098  27.531  0.00  0.00     0.048 H 
BRANCH  52  55
ATOM     55  C23 non d ame     -33.107  16.879  26.477  0.00  0.00     0.259 C 
ATOM     56  O7  non d ame     -32.207  17.195  25.769  0.00  0.00    -0.265 OA
BRANCH  55  57
ATOM     57  O8  non d ame     -33.953  17.872  27.043  0.00  0.00    -0.317 OA
BRANCH  57  58
ATOM     58  C29 non d ame     -33.793  19.171  26.467  0.00  0.00     0.052 C 
ATOM     59  H47 non d ame     -33.329  19.782  27.241  0.00  0.00     0.082 H 
ATOM     60  H48 non d ame     -33.281  19.012  25.518  0.00  0.00     0.082 H 
BRANCH  58  61
ATOM     61  C35 non d ame     -35.206  19.742  26.172  0.00  0.00    -0.034 A 
ATOM     62  C30 non d ame     -35.885  19.361  25.019  0.00  0.00    -0.075 A 
ATOM     63  C31 non d ame     -37.154  19.874  24.755  0.00  0.00    -0.082 A 
ATOM     64  H49 non d ame     -35.423  18.661  24.323  0.00  0.00     0.084 H 
ATOM     65  C32 non d ame     -37.743  20.773  25.647  0.00  0.00    -0.083 A 
ATOM     66  H50 non d ame     -37.684  19.572  23.851  0.00  0.00     0.083 H 
ATOM     67  C33 non d ame     -37.060  21.153  26.795  0.00  0.00    -0.082 A 
ATOM     68  H51 non d ame     -38.735  21.179  25.448  0.00  0.00     0.083 H 
ATOM     69  C34 non d ame     -35.793  20.642  27.064  0.00  0.00    -0.075 A 
ATOM     70  H52 non d ame     -37.522  21.857  27.488  0.00  0.00     0.083 H 
ATOM     71  H53 non d ame     -35.263  20.944  27.968  0.00  0.00     0.084 H 
ENDBRANCH  58  61
ENDBRANCH  57  58
ENDBRANCH  55  57
ENDBRANCH  52  55
ENDBRANCH  49  52
ENDBRANCH  47  49
BRANCH  47  72
ATOM     72  C24 non d ame     -30.752  14.056  25.166  0.00  0.00    -0.039 C 
ATOM     73  H35 non d ame     -30.665  15.064  25.572  0.00  0.00     0.036 H 
ATOM     74  H36 non d ame     -29.969  13.323  25.357  0.00  0.00     0.036 H 
BRANCH  72  75
ATOM     75  C25 non d ame     -30.890  14.198  23.576  0.00  0.00    -0.001 C 
ATOM     76  C26 non d ame     -29.976  13.052  22.831  0.00  0.00    -0.035 C 
ATOM     77  C27 non d ame     -29.189  13.654  21.907  0.00  0.00     0.085 C 
ATOM     78  H38 non d ame     -29.262  12.626  23.535  0.00  0.00     0.036 H 
ATOM     79  H39 non d ame     -30.612  12.396  22.235  0.00  0.00     0.036 H 
ATOM     80  N5  non d ame     -29.243  15.137  22.180  0.00  0.00    -0.049 N 
ATOM     81  H40 non d ame     -28.180  13.292  22.105  0.00  0.00     0.075 H 
ATOM     82  H41 non d ame     -29.661  13.452  20.946  0.00  0.00     0.075 H 
ATOM     83  C28 non d ame     -30.496  15.360  23.174  0.00  0.00     0.193 C 
ATOM     84  H42 non d ame     -28.394  15.369  22.676  0.00  0.00     0.280 HD
ATOM     85  H43 non d ame     -29.450  15.583  21.297  0.00  0.00     0.280 HD
ATOM     86  H44 non d ame     -31.434  15.769  22.800  0.00  0.00     0.129 H 
ATOM     87  H37 non d ame     -31.928  14.289  23.258  0.00  0.00     0.046 H 
BRANCH  83  88
ATOM     88  O6  non d ame     -30.117  16.207  24.262  0.00  0.00    -0.369 OA
ATOM     89  H45 non d ame     -29.196  16.459  24.165  0.00  0.00     0.212 HD
ENDBRANCH  83  88
ENDBRANCH  72  75
ENDBRANCH  47  72
ENDBRANCH  45  47
ENDBRANCH   1  43
BRANCH   1  90
ATOM     90  C16 non d ame     -32.255   9.741  23.523  0.00  0.00    -0.035 C 
ATOM     91  H21 non d ame     -33.321   9.650  23.317  0.00  0.00     0.037 H 
ATOM     92  H22 non d ame     -31.734  10.672  23.299  0.00  0.00     0.037 H 
BRANCH  90  93
ATOM     93  C17 non d ame     -31.548   8.628  22.685  0.00  0.00    -0.059 C 
ATOM     94  H23 non d ame     -31.267   7.827  23.370  0.00  0.00     0.038 H 
BRANCH  93  95
ATOM     95  C18 non d ame     -32.492   8.018  21.600  0.00  0.00    -0.073 C 
ATOM     96  H24 non d ame     -32.236   8.429  20.623  0.00  0.00     0.028 H 
ATOM     97  H25 non d ame     -32.372   6.936  21.580  0.00  0.00     0.028 H 
ATOM     98  H26 non d ame     -33.526   8.265  21.838  0.00  0.00     0.028 H 
ENDBRANCH  93  95
BRANCH  93  99
ATOM     99  C19 non d ame     -30.258   9.157  22.051  0.00  0.00    -0.073 C 
ATOM    100  H27 non d ame     -30.327  10.239  21.936  0.00  0.00     0.028 H 
ATOM    101  H28 non d ame     -29.411   8.913  22.693  0.00  0.00     0.028 H 
ATOM    102  H29 non d ame     -30.118   8.695  21.074  0.00  0.00     0.028 H 
ENDBRANCH  93  99
ENDBRANCH  90  93
ENDBRANCH   1  90
TORSDOF 26
ENDMDL
